MODEL 1
REMARK VINA RESULT:      -8.7      0.000      0.000
REMARK  3 active torsions:
REMARK  status: ('A' for Active; 'I' for Inactive)
REMARK    1  A    between atoms: O1_2  and  C2_3 
REMARK    2  A    between atoms: C3_4  and  N1_5 
REMARK       I    between atoms: N1_5  and  C4_6 
REMARK    3  A    between atoms: C4_6  and  C5_8 
ROOT
HETATM    1  C2  UNL     1      24.250   2.335  50.972  1.00  0.00     0.104 A 
HETATM    2  C3  UNL     1      24.124   1.349  51.977  1.00  0.00     0.069 A 
HETATM    3  C8  UNL     1      22.902   1.269  52.668  1.00  0.00     0.041 A 
HETATM    4  C9  UNL     1      22.104   2.199  52.190  1.00  0.00    -0.003 A 
HETATM    5  C10 UNL     1      20.797   2.331  52.460  1.00  0.00     0.135 A 
HETATM    6  C11 UNL     1      20.272   1.120  52.946  1.00  0.00     0.014 C 
HETATM    7  C12 UNL     1      20.432   0.401  51.701  1.00  0.00    -0.001 C 
HETATM    8  C13 UNL     1      21.171   0.637  50.514  1.00  0.00     0.001 C 
HETATM    9  C14 UNL     1      21.435   1.578  49.491  1.00  0.00     0.019 C 
HETATM   10  C15 UNL     1      21.990   2.811  49.098  1.00  0.00     0.011 C 
HETATM   11 BR1  UNL     1      21.292   3.778  47.623  1.00  0.00    -0.051 Br
HETATM   12  C16 UNL     1      23.074   3.610  49.615  1.00  0.00     0.032 C 
HETATM   13  C17 UNL     1      23.079   3.021  50.911  1.00  0.00     0.017 A 
HETATM   14  C18 UNL     1      21.821   3.207  51.385  1.00  0.00     0.146 A 
HETATM   15  N3  UNL     1      20.898   4.016  50.967  1.00  0.00    -0.259 NA
HETATM   16  C19 UNL     1      19.626   3.993  51.384  1.00  0.00     0.224 A 
HETATM   17  N4  UNL     1      19.608   2.941  52.289  1.00  0.00    -0.260 NA
ENDROOT
BRANCH   2  18
HETATM   18  N1  UNL     1      25.141   0.465  52.315  1.00  0.00    -0.323 N 
HETATM   19  C4  UNL     1      26.044   0.821  53.355  1.00  0.00     0.247 C 
HETATM   20  O2  UNL     1      25.759   1.966  53.842  1.00  0.00    -0.271 OA
HETATM   21  H4  UNL     1      25.221  -0.440  51.800  1.00  0.00     0.169 HD
BRANCH  19  22
HETATM   22  C5  UNL     1      27.142  -0.063  53.765  1.00  0.00     0.203 C 
HETATM   23  C6  UNL     1      27.148  -1.406  53.068  1.00  0.00     0.215 C 
HETATM   24  O3  UNL     1      28.463  -1.872  53.339  1.00  0.00    -0.301 OA
HETATM   25  C7  UNL     1      29.285  -0.758  53.607  1.00  0.00     0.361 C 
HETATM   26  O4  UNL     1      30.514  -0.954  53.897  1.00  0.00    -0.238 OA
HETATM   27  N2  UNL     1      28.458   0.416  53.474  1.00  0.00    -0.321 N 
HETATM   28  H8  UNL     1      28.943   1.311  53.214  1.00  0.00     0.165 HD
ENDBRANCH  19  22
ENDBRANCH   2  18
BRANCH   1  29
HETATM   29  O1  UNL     1      25.401   2.511  50.217  1.00  0.00    -0.353 OA
HETATM   30  C1  UNL     1      26.516   3.277  50.606  1.00  0.00     0.210 C 
ENDBRANCH   1  29
TORSDOF 3
ENDMDL
MODEL 2
REMARK VINA RESULT:      -8.4      2.154      3.385
REMARK  3 active torsions:
REMARK  status: ('A' for Active; 'I' for Inactive)
REMARK    1  A    between atoms: O1_2  and  C2_3 
REMARK    2  A    between atoms: C3_4  and  N1_5 
REMARK       I    between atoms: N1_5  and  C4_6 
REMARK    3  A    between atoms: C4_6  and  C5_8 
ROOT
HETATM    1  C2  UNL     1      22.865   0.398  52.312  1.00  0.00     0.104 A 
HETATM    2  C3  UNL     1      23.767   1.481  52.418  1.00  0.00     0.069 A 
HETATM    3  C8  UNL     1      23.595   2.566  51.542  1.00  0.00     0.041 A 
HETATM    4  C9  UNL     1      22.566   2.303  50.766  1.00  0.00    -0.003 A 
HETATM    5  C10 UNL     1      21.973   3.161  49.924  1.00  0.00     0.135 A 
HETATM    6  C11 UNL     1      22.277   4.487  50.281  1.00  0.00     0.014 C 
HETATM    7  C12 UNL     1      21.542   4.457  51.527  1.00  0.00    -0.001 C 
HETATM    8  C13 UNL     1      21.010   3.418  52.333  1.00  0.00     0.001 C 
HETATM    9  C14 UNL     1      20.185   2.269  52.331  1.00  0.00     0.019 C 
HETATM   10  C15 UNL     1      19.967   0.939  51.922  1.00  0.00     0.011 C 
HETATM   11 BR1  UNL     1      18.213   0.254  51.696  1.00  0.00    -0.051 Br
HETATM   12  C16 UNL     1      20.859  -0.143  51.583  1.00  0.00     0.032 C 
HETATM   13  C17 UNL     1      21.988   0.682  51.314  1.00  0.00     0.017 A 
HETATM   14  C18 UNL     1      21.572   1.539  50.348  1.00  0.00     0.146 A 
HETATM   15  N3  UNL     1      20.540   1.459  49.568  1.00  0.00    -0.259 NA
HETATM   16  C19 UNL     1      20.112   2.449  48.774  1.00  0.00     0.224 A 
HETATM   17  N4  UNL     1      21.014   3.473  49.031  1.00  0.00    -0.260 NA
ENDROOT
BRANCH   2  18
HETATM   18  N1  UNL     1      24.808   1.523  53.337  1.00  0.00    -0.323 N 
HETATM   19  C4  UNL     1      26.073   0.987  52.968  1.00  0.00     0.247 C 
HETATM   20  O2  UNL     1      26.049   0.523  51.779  1.00  0.00    -0.271 OA
HETATM   21  H4  UNL     1      24.641   1.947  54.277  1.00  0.00     0.169 HD
BRANCH  19  22
HETATM   22  C5  UNL     1      27.218   0.997  53.887  1.00  0.00     0.203 C 
HETATM   23  C6  UNL     1      28.309   0.014  53.527  1.00  0.00     0.215 C 
HETATM   24  O3  UNL     1      29.401   0.491  54.302  1.00  0.00    -0.301 OA
HETATM   25  C7  UNL     1      29.187   1.855  54.583  1.00  0.00     0.361 C 
HETATM   26  O4  UNL     1      30.047   2.482  55.290  1.00  0.00    -0.238 OA
HETATM   27  N2  UNL     1      27.947   2.226  53.946  1.00  0.00    -0.321 N 
HETATM   28  H8  UNL     1      27.836   3.235  53.676  1.00  0.00     0.165 HD
ENDBRANCH  19  22
ENDBRANCH   2  18
BRANCH   1  29
HETATM   29  O1  UNL     1      22.927  -0.729  53.121  1.00  0.00    -0.353 OA
HETATM   30  C1  UNL     1      22.508  -0.786  54.463  1.00  0.00     0.210 C 
ENDBRANCH   1  29
TORSDOF 3
ENDMDL
MODEL 3
REMARK VINA RESULT:      -7.9      3.101      4.863
REMARK  3 active torsions:
REMARK  status: ('A' for Active; 'I' for Inactive)
REMARK    1  A    between atoms: O1_2  and  C2_3 
REMARK    2  A    between atoms: C3_4  and  N1_5 
REMARK       I    between atoms: N1_5  and  C4_6 
REMARK    3  A    between atoms: C4_6  and  C5_8 
ROOT
HETATM    1  C2  UNL     1      22.681   4.464  51.360  1.00  0.00     0.104 A 
HETATM    2  C3  UNL     1      24.056   4.153  51.472  1.00  0.00     0.069 A 
HETATM    3  C8  UNL     1      24.917   4.613  50.461  1.00  0.00     0.041 A 
HETATM    4  C9  UNL     1      24.194   5.269  49.580  1.00  0.00    -0.003 A 
HETATM    5  C10 UNL     1      24.667   6.011  48.567  1.00  0.00     0.135 A 
HETATM    6  C11 UNL     1      26.002   6.378  48.810  1.00  0.00     0.014 C 
HETATM    7  C12 UNL     1      25.697   7.240  49.930  1.00  0.00    -0.001 C 
HETATM    8  C13 UNL     1      24.562   7.410  50.764  1.00  0.00     0.001 C 
HETATM    9  C14 UNL     1      23.167   7.643  50.774  1.00  0.00     0.019 C 
HETATM   10  C15 UNL     1      21.864   7.189  50.493  1.00  0.00     0.011 C 
HETATM   11 BR1  UNL     1      20.463   8.404  50.094  1.00  0.00    -0.051 Br
HETATM   12  C16 UNL     1      21.279   5.873  50.414  1.00  0.00     0.032 C 
HETATM   13  C17 UNL     1      22.508   5.181  50.220  1.00  0.00     0.017 A 
HETATM   14  C18 UNL     1      23.053   5.743  49.111  1.00  0.00     0.146 A 
HETATM   15  N3  UNL     1      22.493   6.480  48.204  1.00  0.00    -0.259 NA
HETATM   16  C19 UNL     1      23.158   7.140  47.247  1.00  0.00     0.224 A 
HETATM   17  N4  UNL     1      24.485   6.831  47.514  1.00  0.00    -0.260 NA
ENDROOT
BRANCH   2  18
HETATM   18  N1  UNL     1      24.591   3.417  52.521  1.00  0.00    -0.323 N 
HETATM   19  C4  UNL     1      24.691   2.004  52.390  1.00  0.00     0.247 C 
HETATM   20  O2  UNL     1      24.245   1.613  51.260  1.00  0.00    -0.271 OA
HETATM   21  H4  UNL     1      24.909   3.915  53.382  1.00  0.00     0.169 HD
BRANCH  19  22
HETATM   22  C5  UNL     1      25.246   1.164  53.458  1.00  0.00     0.203 C 
HETATM   23  C6  UNL     1      25.007  -0.318  53.267  1.00  0.00     0.215 C 
HETATM   24  O3  UNL     1      25.940  -0.886  54.177  1.00  0.00    -0.301 OA
HETATM   25  C7  UNL     1      26.968   0.051  54.405  1.00  0.00     0.361 C 
HETATM   26  O4  UNL     1      27.910  -0.251  55.214  1.00  0.00    -0.238 OA
HETATM   27  N2  UNL     1      26.670   1.208  53.598  1.00  0.00    -0.321 N 
HETATM   28  H8  UNL     1      27.484   1.801  53.299  1.00  0.00     0.165 HD
ENDBRANCH  19  22
ENDBRANCH   2  18
BRANCH   1  29
HETATM   29  O1  UNL     1      21.732   4.071  52.293  1.00  0.00    -0.353 OA
HETATM   30  C1  UNL     1      21.044   2.843  52.282  1.00  0.00     0.210 C 
ENDBRANCH   1  29
TORSDOF 3
ENDMDL
MODEL 4
REMARK VINA RESULT:      -7.8     11.110     13.788
REMARK  3 active torsions:
REMARK  status: ('A' for Active; 'I' for Inactive)
REMARK    1  A    between atoms: O1_2  and  C2_3 
REMARK    2  A    between atoms: C3_4  and  N1_5 
REMARK       I    between atoms: N1_5  and  C4_6 
REMARK    3  A    between atoms: C4_6  and  C5_8 
ROOT
HETATM    1  C2  UNL     1      32.815   6.163  44.464  1.00  0.00     0.104 A 
HETATM    2  C3  UNL     1      33.408   4.945  44.061  1.00  0.00     0.069 A 
HETATM    3  C8  UNL     1      34.214   4.268  44.993  1.00  0.00     0.041 A 
HETATM    4  C9  UNL     1      34.238   4.977  46.100  1.00  0.00    -0.003 A 
HETATM    5  C10 UNL     1      34.746   4.584  47.277  1.00  0.00     0.135 A 
HETATM    6  C11 UNL     1      34.846   3.182  47.325  1.00  0.00     0.014 C 
HETATM    7  C12 UNL     1      33.419   2.951  47.321  1.00  0.00    -0.001 C 
HETATM    8  C13 UNL     1      32.291   3.751  47.010  1.00  0.00     0.001 C 
HETATM    9  C14 UNL     1      31.644   4.981  47.278  1.00  0.00     0.019 C 
HETATM   10  C15 UNL     1      31.633   6.386  47.184  1.00  0.00     0.011 C 
HETATM   11 BR1  UNL     1      30.736   7.451  48.473  1.00  0.00    -0.051 Br
HETATM   12  C16 UNL     1      32.216   7.312  46.245  1.00  0.00     0.032 C 
HETATM   13  C17 UNL     1      33.197   6.409  45.745  1.00  0.00     0.017 A 
HETATM   14  C18 UNL     1      33.904   6.022  46.837  1.00  0.00     0.146 A 
HETATM   15  N3  UNL     1      33.961   6.564  48.013  1.00  0.00    -0.259 NA
HETATM   16  C19 UNL     1      34.543   6.001  49.079  1.00  0.00     0.224 A 
HETATM   17  N4  UNL     1      35.002   4.788  48.584  1.00  0.00    -0.260 NA
ENDROOT
BRANCH   2  18
HETATM   18  N1  UNL     1      33.236   4.390  42.799  1.00  0.00    -0.323 N 
HETATM   19  C4  UNL     1      34.147   4.741  41.765  1.00  0.00     0.247 C 
HETATM   20  O2  UNL     1      35.032   5.559  42.186  1.00  0.00    -0.271 OA
HETATM   21  H4  UNL     1      32.444   3.729  42.637  1.00  0.00     0.169 HD
BRANCH  19  22
HETATM   22  C5  UNL     1      34.027   4.193  40.408  1.00  0.00     0.203 C 
HETATM   23  C6  UNL     1      35.165   4.570  39.486  1.00  0.00     0.215 C 
HETATM   24  O3  UNL     1      35.008   3.634  38.427  1.00  0.00    -0.301 OA
HETATM   25  C7  UNL     1      34.304   2.517  38.920  1.00  0.00     0.361 C 
HETATM   26  O4  UNL     1      34.034   1.556  38.122  1.00  0.00    -0.238 OA
HETATM   27  N2  UNL     1      34.045   2.766  40.317  1.00  0.00    -0.321 N 
HETATM   28  H8  UNL     1      33.931   1.924  40.936  1.00  0.00     0.165 HD
ENDBRANCH  19  22
ENDBRANCH   2  18
BRANCH   1  29
HETATM   29  O1  UNL     1      31.996   6.922  43.640  1.00  0.00    -0.353 OA
HETATM   30  C1  UNL     1      32.439   7.927  42.761  1.00  0.00     0.210 C 
ENDBRANCH   1  29
TORSDOF 3
ENDMDL
MODEL 5
REMARK VINA RESULT:      -7.8      1.947      2.271
REMARK  3 active torsions:
REMARK  status: ('A' for Active; 'I' for Inactive)
REMARK    1  A    between atoms: O1_2  and  C2_3 
REMARK    2  A    between atoms: C3_4  and  N1_5 
REMARK       I    between atoms: N1_5  and  C4_6 
REMARK    3  A    between atoms: C4_6  and  C5_8 
ROOT
HETATM    1  C2  UNL     1      22.902   4.272  50.906  1.00  0.00     0.104 A 
HETATM    2  C3  UNL     1      22.869   3.389  52.009  1.00  0.00     0.069 A 
HETATM    3  C8  UNL     1      21.743   2.560  52.153  1.00  0.00     0.041 A 
HETATM    4  C9  UNL     1      20.919   2.819  51.162  1.00  0.00    -0.003 A 
HETATM    5  C10 UNL     1      19.822   2.117  50.844  1.00  0.00     0.135 A 
HETATM    6  C11 UNL     1      19.889   0.825  51.396  1.00  0.00     0.014 C 
HETATM    7  C12 UNL     1      20.991   0.388  50.568  1.00  0.00    -0.001 C 
HETATM    8  C13 UNL     1      21.941   1.059  49.756  1.00  0.00     0.001 C 
HETATM    9  C14 UNL     1      22.101   1.992  48.705  1.00  0.00     0.019 C 
HETATM   10  C15 UNL     1      21.996   3.317  48.239  1.00  0.00     0.011 C 
HETATM   11 BR1  UNL     1      21.700   3.694  46.404  1.00  0.00    -0.051 Br
HETATM   12  C16 UNL     1      22.053   4.597  48.900  1.00  0.00     0.032 C 
HETATM   13  C17 UNL     1      21.754   4.100  50.200  1.00  0.00     0.017 A 
HETATM   14  C18 UNL     1      20.562   3.465  50.065  1.00  0.00     0.146 A 
HETATM   15  N3  UNL     1      19.689   3.551  49.111  1.00  0.00    -0.259 NA
HETATM   16  C19 UNL     1      18.629   2.743  48.978  1.00  0.00     0.224 A 
HETATM   17  N4  UNL     1      18.756   1.877  50.055  1.00  0.00    -0.260 NA
ENDROOT
BRANCH   2  18
HETATM   18  N1  UNL     1      23.886   3.303  52.952  1.00  0.00    -0.323 N 
HETATM   19  C4  UNL     1      24.917   2.341  52.766  1.00  0.00     0.247 C 
HETATM   20  O2  UNL     1      24.733   1.668  51.697  1.00  0.00    -0.271 OA
HETATM   21  H4  UNL     1      23.872   3.945  53.775  1.00  0.00     0.169 HD
BRANCH  19  22
HETATM   22  C5  UNL     1      26.022   2.194  53.721  1.00  0.00     0.203 C 
HETATM   23  C6  UNL     1      26.291   0.767  54.141  1.00  0.00     0.215 C 
HETATM   24  O3  UNL     1      27.586   0.869  54.718  1.00  0.00    -0.301 OA
HETATM   25  C7  UNL     1      28.225   2.006  54.182  1.00  0.00     0.361 C 
HETATM   26  O4  UNL     1      29.402   2.298  54.583  1.00  0.00    -0.238 OA
HETATM   27  N2  UNL     1      27.307   2.598  53.240  1.00  0.00    -0.321 N 
HETATM   28  H8  UNL     1      27.728   3.159  52.457  1.00  0.00     0.165 HD
ENDBRANCH  19  22
ENDBRANCH   2  18
BRANCH   1  29
HETATM   29  O1  UNL     1      23.957   5.136  50.652  1.00  0.00    -0.353 OA
HETATM   30  C1  UNL     1      25.131   4.798  49.954  1.00  0.00     0.210 C 
ENDBRANCH   1  29
TORSDOF 3
ENDMDL
MODEL 6
REMARK VINA RESULT:      -7.3      3.641      6.291
REMARK  3 active torsions:
REMARK  status: ('A' for Active; 'I' for Inactive)
REMARK    1  A    between atoms: O1_2  and  C2_3 
REMARK    2  A    between atoms: C3_4  and  N1_5 
REMARK       I    between atoms: N1_5  and  C4_6 
REMARK    3  A    between atoms: C4_6  and  C5_8 
ROOT
HETATM    1  C2  UNL     1      21.519   2.763  50.160  1.00  0.00     0.104 A 
HETATM    2  C3  UNL     1      21.724   1.551  50.859  1.00  0.00     0.069 A 
HETATM    3  C8  UNL     1      23.045   1.202  51.191  1.00  0.00     0.041 A 
HETATM    4  C9  UNL     1      23.841   2.146  50.739  1.00  0.00    -0.003 A 
HETATM    5  C10 UNL     1      25.148   2.272  51.010  1.00  0.00     0.135 A 
HETATM    6  C11 UNL     1      25.479   1.556  52.175  1.00  0.00     0.014 C 
HETATM    7  C12 UNL     1      24.723   2.407  53.067  1.00  0.00    -0.001 C 
HETATM    8  C13 UNL     1      23.709   3.380  52.879  1.00  0.00     0.001 C 
HETATM    9  C14 UNL     1      23.362   4.558  52.177  1.00  0.00     0.019 C 
HETATM   10  C15 UNL     1      23.042   5.189  50.960  1.00  0.00     0.011 C 
HETATM   11 BR1  UNL     1      23.416   7.027  50.676  1.00  0.00    -0.051 Br
HETATM   12  C16 UNL     1      22.445   4.716  49.735  1.00  0.00     0.032 C 
HETATM   13  C17 UNL     1      22.733   3.339  49.959  1.00  0.00     0.017 A 
HETATM   14  C18 UNL     1      24.080   3.286  50.115  1.00  0.00     0.146 A 
HETATM   15  N3  UNL     1      24.978   4.166  49.801  1.00  0.00    -0.259 NA
HETATM   16  C19 UNL     1      26.265   4.097  50.165  1.00  0.00     0.224 A 
HETATM   17  N4  UNL     1      26.321   2.927  50.910  1.00  0.00    -0.260 NA
ENDROOT
BRANCH   2  18
HETATM   18  N1  UNL     1      20.695   0.695  51.226  1.00  0.00    -0.323 N 
HETATM   19  C4  UNL     1      20.071   0.872  52.493  1.00  0.00     0.247 C 
HETATM   20  O2  UNL     1      20.590   1.850  53.129  1.00  0.00    -0.271 OA
HETATM   21  H4  UNL     1      20.400  -0.059  50.566  1.00  0.00     0.169 HD
BRANCH  19  22
HETATM   22  C5  UNL     1      18.978   0.005  52.947  1.00  0.00     0.203 C 
HETATM   23  C6  UNL     1      18.047  -0.447  51.843  1.00  0.00     0.215 C 
HETATM   24  O3  UNL     1      17.364  -1.530  52.459  1.00  0.00    -0.301 OA
HETATM   25  C7  UNL     1      18.168  -2.028  53.504  1.00  0.00     0.361 C 
HETATM   26  O4  UNL     1      17.731  -3.001  54.209  1.00  0.00    -0.238 OA
HETATM   27  N2  UNL     1      19.380  -1.246  53.512  1.00  0.00    -0.321 N 
HETATM   28  H8  UNL     1      20.241  -1.710  53.896  1.00  0.00     0.165 HD
ENDBRANCH  19  22
ENDBRANCH   2  18
BRANCH   1  29
HETATM   29  O1  UNL     1      20.265   3.221  49.779  1.00  0.00    -0.353 OA
HETATM   30  C1  UNL     1      19.363   3.902  50.616  1.00  0.00     0.210 C 
ENDBRANCH   1  29
TORSDOF 3
ENDMDL
MODEL 7
REMARK VINA RESULT:      -7.2      5.643      7.236
REMARK  3 active torsions:
REMARK  status: ('A' for Active; 'I' for Inactive)
REMARK    1  A    between atoms: O1_2  and  C2_3 
REMARK    2  A    between atoms: C3_4  and  N1_5 
REMARK       I    between atoms: N1_5  and  C4_6 
REMARK    3  A    between atoms: C4_6  and  C5_8 
ROOT
HETATM    1  C2  UNL     1      25.475   9.101  48.871  1.00  0.00     0.104 A 
HETATM    2  C3  UNL     1      26.239   8.202  49.648  1.00  0.00     0.069 A 
HETATM    3  C8  UNL     1      25.549   7.317  50.495  1.00  0.00     0.041 A 
HETATM    4  C9  UNL     1      24.261   7.551  50.364  1.00  0.00    -0.003 A 
HETATM    5  C10 UNL     1      23.268   6.801  50.863  1.00  0.00     0.135 A 
HETATM    6  C11 UNL     1      23.733   5.506  51.158  1.00  0.00     0.014 C 
HETATM    7  C12 UNL     1      23.962   5.135  49.779  1.00  0.00    -0.001 C 
HETATM    8  C13 UNL     1      24.066   5.862  48.566  1.00  0.00     0.001 C 
HETATM    9  C14 UNL     1      23.428   6.817  47.739  1.00  0.00     0.019 C 
HETATM   10  C15 UNL     1      22.997   8.142  47.535  1.00  0.00     0.011 C 
HETATM   11 BR1  UNL     1      21.502   8.531  46.435  1.00  0.00    -0.051 Br
HETATM   12  C16 UNL     1      23.465   9.414  48.028  1.00  0.00     0.032 C 
HETATM   13  C17 UNL     1      24.164   8.884  49.150  1.00  0.00     0.017 A 
HETATM   14  C18 UNL     1      23.228   8.194  49.850  1.00  0.00     0.146 A 
HETATM   15  N3  UNL     1      21.935   8.252  49.771  1.00  0.00    -0.259 NA
HETATM   16  C19 UNL     1      21.101   7.396  50.373  1.00  0.00     0.224 A 
HETATM   17  N4  UNL     1      21.960   6.521  51.023  1.00  0.00    -0.260 NA
ENDROOT
BRANCH   2  18
HETATM   18  N1  UNL     1      27.627   8.152  49.619  1.00  0.00    -0.323 N 
HETATM   19  C4  UNL     1      28.267   7.406  48.591  1.00  0.00     0.247 C 
HETATM   20  O2  UNL     1      27.412   6.869  47.810  1.00  0.00    -0.271 OA
HETATM   21  H4  UNL     1      28.170   8.661  50.352  1.00  0.00     0.169 HD
BRANCH  19  22
HETATM   22  C5  UNL     1      29.729   7.309  48.499  1.00  0.00     0.203 C 
HETATM   23  C6  UNL     1      30.467   8.477  49.116  1.00  0.00     0.215 C 
HETATM   24  O3  UNL     1      31.785   7.961  49.236  1.00  0.00    -0.301 OA
HETATM   25  C7  UNL     1      31.713   6.553  49.269  1.00  0.00     0.361 C 
HETATM   26  O4  UNL     1      32.796   5.881  49.355  1.00  0.00    -0.238 OA
HETATM   27  N2  UNL     1      30.316   6.202  49.189  1.00  0.00    -0.321 N 
HETATM   28  H8  UNL     1      30.032   5.285  49.616  1.00  0.00     0.165 HD
ENDBRANCH  19  22
ENDBRANCH   2  18
BRANCH   1  29
HETATM   29  O1  UNL     1      26.037  10.020  47.994  1.00  0.00    -0.353 OA
HETATM   30  C1  UNL     1      26.459  11.317  48.340  1.00  0.00     0.210 C 
ENDBRANCH   1  29
TORSDOF 3
ENDMDL
MODEL 8
REMARK VINA RESULT:      -7.1      3.702      6.555
REMARK  3 active torsions:
REMARK  status: ('A' for Active; 'I' for Inactive)
REMARK    1  A    between atoms: O1_2  and  C2_3 
REMARK    2  A    between atoms: C3_4  and  N1_5 
REMARK       I    between atoms: N1_5  and  C4_6 
REMARK    3  A    between atoms: C4_6  and  C5_8 
ROOT
HETATM    1  C2  UNL     1      22.370   2.384  52.688  1.00  0.00     0.104 A 
HETATM    2  C3  UNL     1      21.003   2.596  52.395  1.00  0.00     0.069 A 
HETATM    3  C8  UNL     1      20.643   3.812  51.788  1.00  0.00     0.041 A 
HETATM    4  C9  UNL     1      21.737   4.524  51.626  1.00  0.00    -0.003 A 
HETATM    5  C10 UNL     1      21.841   5.661  50.922  1.00  0.00     0.135 A 
HETATM    6  C11 UNL     1      20.774   5.774  50.013  1.00  0.00     0.014 C 
HETATM    7  C12 UNL     1      21.191   4.663  49.186  1.00  0.00    -0.001 C 
HETATM    8  C13 UNL     1      22.097   3.587  49.364  1.00  0.00     0.001 C 
HETATM    9  C14 UNL     1      23.424   3.248  49.716  1.00  0.00     0.019 C 
HETATM   10  C15 UNL     1      24.433   3.175  50.697  1.00  0.00     0.011 C 
HETATM   11 BR1  UNL     1      26.268   3.284  50.230  1.00  0.00    -0.051 Br
HETATM   12  C16 UNL     1      24.399   3.034  52.132  1.00  0.00     0.032 C 
HETATM   13  C17 UNL     1      23.058   3.485  52.288  1.00  0.00     0.017 A 
HETATM   14  C18 UNL     1      23.039   4.723  51.732  1.00  0.00     0.146 A 
HETATM   15  N3  UNL     1      24.029   5.505  51.435  1.00  0.00    -0.259 NA
HETATM   16  C19 UNL     1      23.917   6.631  50.719  1.00  0.00     0.224 A 
HETATM   17  N4  UNL     1      22.563   6.681  50.419  1.00  0.00    -0.260 NA
ENDROOT
BRANCH   2  18
HETATM   18  N1  UNL     1      20.007   1.671  52.679  1.00  0.00    -0.323 N 
HETATM   19  C4  UNL     1      19.609   0.755  51.666  1.00  0.00     0.247 C 
HETATM   20  O2  UNL     1      20.272   0.941  50.591  1.00  0.00    -0.271 OA
HETATM   21  H4  UNL     1      19.572   1.667  53.629  1.00  0.00     0.169 HD
BRANCH  19  22
HETATM   22  C5  UNL     1      18.563  -0.249  51.896  1.00  0.00     0.203 C 
HETATM   23  C6  UNL     1      18.662  -0.951  53.232  1.00  0.00     0.215 C 
HETATM   24  O3  UNL     1      17.374  -1.542  53.349  1.00  0.00    -0.301 OA
HETATM   25  C7  UNL     1      16.475  -0.816  52.542  1.00  0.00     0.361 C 
HETATM   26  O4  UNL     1      15.255  -1.192  52.485  1.00  0.00    -0.238 OA
HETATM   27  N2  UNL     1      17.225   0.257  51.936  1.00  0.00    -0.321 N 
HETATM   28  H8  UNL     1      16.688   1.119  51.668  1.00  0.00     0.165 HD
ENDBRANCH  19  22
ENDBRANCH   2  18
BRANCH   1  29
HETATM   29  O1  UNL     1      22.852   1.226  53.282  1.00  0.00    -0.353 OA
HETATM   30  C1  UNL     1      23.006  -0.013  52.634  1.00  0.00     0.210 C 
ENDBRANCH   1  29
TORSDOF 3
ENDMDL
MODEL 9
REMARK VINA RESULT:      -7.1      4.299      6.755
REMARK  3 active torsions:
REMARK  status: ('A' for Active; 'I' for Inactive)
REMARK    1  A    between atoms: O1_2  and  C2_3 
REMARK    2  A    between atoms: C3_4  and  N1_5 
REMARK       I    between atoms: N1_5  and  C4_6 
REMARK    3  A    between atoms: C4_6  and  C5_8 
ROOT
HETATM    1  C2  UNL     1      25.405   4.269  49.811  1.00  0.00     0.104 A 
HETATM    2  C3  UNL     1      24.549   5.339  49.463  1.00  0.00     0.069 A 
HETATM    3  C8  UNL     1      23.163   5.116  49.522  1.00  0.00     0.041 A 
HETATM    4  C9  UNL     1      22.967   3.875  49.909  1.00  0.00    -0.003 A 
HETATM    5  C10 UNL     1      21.791   3.333  50.258  1.00  0.00     0.135 A 
HETATM    6  C11 UNL     1      20.869   4.340  50.597  1.00  0.00     0.014 C 
HETATM    7  C12 UNL     1      21.572   4.763  51.788  1.00  0.00    -0.001 C 
HETATM    8  C13 UNL     1      22.883   4.554  52.287  1.00  0.00     0.001 C 
HETATM    9  C14 UNL     1      23.851   3.572  52.601  1.00  0.00     0.019 C 
HETATM   10  C15 UNL     1      24.747   2.577  52.166  1.00  0.00     0.011 C 
HETATM   11 BR1  UNL     1      25.207   1.112  53.280  1.00  0.00    -0.051 Br
HETATM   12  C16 UNL     1      25.470   2.377  50.935  1.00  0.00     0.032 C 
HETATM   13  C17 UNL     1      24.629   3.204  50.139  1.00  0.00     0.017 A 
HETATM   14  C18 UNL     1      23.385   2.678  50.283  1.00  0.00     0.146 A 
HETATM   15  N3  UNL     1      23.034   1.513  50.728  1.00  0.00    -0.259 NA
HETATM   16  C19 UNL     1      21.773   1.157  51.006  1.00  0.00     0.224 A 
HETATM   17  N4  UNL     1      21.049   2.304  50.712  1.00  0.00    -0.260 NA
ENDROOT
BRANCH   2  18
HETATM   18  N1  UNL     1      25.008   6.589  49.065  1.00  0.00    -0.323 N 
HETATM   19  C4  UNL     1      25.201   7.596  50.051  1.00  0.00     0.247 C 
HETATM   20  O2  UNL     1      24.904   7.166  51.215  1.00  0.00    -0.271 OA
HETATM   21  H4  UNL     1      25.201   6.762  48.053  1.00  0.00     0.169 HD
BRANCH  19  22
HETATM   22  C5  UNL     1      25.683   8.939  49.703  1.00  0.00     0.203 C 
HETATM   23  C6  UNL     1      27.042   9.275  50.275  1.00  0.00     0.215 C 
HETATM   24  O3  UNL     1      27.416  10.405  49.497  1.00  0.00    -0.301 OA
HETATM   25  C7  UNL     1      26.703  10.366  48.282  1.00  0.00     0.361 C 
HETATM   26  O4  UNL     1      26.876  11.307  47.435  1.00  0.00    -0.238 OA
HETATM   27  N2  UNL     1      25.893   9.173  48.308  1.00  0.00    -0.321 N 
HETATM   28  H8  UNL     1      25.640   8.752  47.379  1.00  0.00     0.165 HD
ENDBRANCH  19  22
ENDBRANCH   2  18
BRANCH   1  29
HETATM   29  O1  UNL     1      26.790   4.365  49.797  1.00  0.00    -0.353 OA
HETATM   30  C1  UNL     1      27.565   4.737  48.684  1.00  0.00     0.210 C 
ENDBRANCH   1  29
TORSDOF 3
ENDMDL
