MODEL 1
REMARK VINA RESULT:      -7.7      0.000      0.000
REMARK  6 active torsions:
REMARK  status: ('A' for Active; 'I' for Inactive)
REMARK    1  A    between atoms: C2_2  and  N1_3 
REMARK    2  A    between atoms: N1_3  and  C4_5 
REMARK    3  A    between atoms: C4_5  and  C5_6 
REMARK    4  A    between atoms: C9_10  and  N2_11 
REMARK    5  A    between atoms: N2_11  and  C10_12 
REMARK    6  A    between atoms: C11_13  and  C12_14 
ROOT
HETATM    1  C5  UNL     1      25.093   0.677  52.445  1.00  0.00     0.070 C 
HETATM    2  C6  UNL     1      25.437   1.903  51.921  1.00  0.00    -0.019 C 
HETATM    3  C7  UNL     1      26.637   2.079  51.277  1.00  0.00     0.052 C 
HETATM    4  C8  UNL     1      24.642   3.166  51.943  1.00  0.00     0.020 C 
HETATM    5  C9  UNL     1      24.842   3.710  50.753  1.00  0.00     0.137 C 
HETATM    6  N3  UNL     1      24.117   4.912  50.561  1.00  0.00    -0.224 NA
HETATM    7  C14 UNL     1      23.141   4.875  49.675  1.00  0.00     0.234 C 
HETATM    8  N4  UNL     1      23.075   3.589  49.124  1.00  0.00    -0.254 NA
HETATM    9  C15 UNL     1      22.934   2.478  49.697  1.00  0.00     0.120 C 
HETATM   10  C16 UNL     1      22.765   1.504  50.719  1.00  0.00     0.053 C 
HETATM   11  C17 UNL     1      22.585   1.713  51.993  1.00  0.00     0.072 C 
HETATM   12  C18 UNL     1      22.517   0.331  52.492  1.00  0.00     0.239 C 
HETATM   13  O1  UNL     1      23.914  -0.048  52.813  1.00  0.00    -0.347 OA
HETATM   14  O2  UNL     1      22.491   2.965  52.684  1.00  0.00    -0.348 OA
HETATM   15  C19 UNL     1      23.701   3.805  52.916  1.00  0.00     0.218 C 
ENDROOT
BRANCH   5  16
HETATM   16  N2  UNL     1      25.684   3.028  49.829  1.00  0.00    -0.350 N 
HETATM   17  H14 UNL     1      26.332   2.598  49.127  1.00  0.00     0.166 HD
BRANCH  16  18
HETATM   18  C10 UNL     1      26.419   4.140  49.207  1.00  0.00     0.090 C 
HETATM   19  C11 UNL     1      27.554   4.791  48.891  1.00  0.00     0.022 C 
BRANCH  19  20
HETATM   20  C12 UNL     1      28.223   5.888  48.275  1.00  0.00     0.075 C 
HETATM   21  C13 UNL     1      29.472   5.591  48.035  1.00  0.00     0.267 C 
HETATM   22  F1  UNL     1      30.151   6.588  47.454  1.00  0.00    -0.173 F 
HETATM   23  F2  UNL     1      30.726   5.217  47.823  1.00  0.00    -0.173 F 
ENDBRANCH  19  20
ENDBRANCH  16  18
ENDBRANCH   5  16
BRANCH   1  24
HETATM   24  C4  UNL     1      26.290  -0.143  52.709  1.00  0.00     0.181 C 
BRANCH  24  25
HETATM   25  N1  UNL     1      26.878   0.143  53.976  1.00  0.00    -0.411 N 
HETATM   26  C3  UNL     1      26.058  -0.026  55.074  1.00  0.00     0.143 C 
BRANCH  25  27
HETATM   27  C2  UNL     1      28.263   0.217  54.039  1.00  0.00     0.112 C 
HETATM   28  C1  UNL     1      29.014  -0.895  53.347  1.00  0.00     0.026 C 
ENDBRANCH  25  27
ENDBRANCH  24  25
ENDBRANCH   1  24
TORSDOF 6
ENDMDL
MODEL 2
REMARK VINA RESULT:      -7.4      3.120      6.292
REMARK  6 active torsions:
REMARK  status: ('A' for Active; 'I' for Inactive)
REMARK    1  A    between atoms: C2_2  and  N1_3 
REMARK    2  A    between atoms: N1_3  and  C4_5 
REMARK    3  A    between atoms: C4_5  and  C5_6 
REMARK    4  A    between atoms: C9_10  and  N2_11 
REMARK    5  A    between atoms: N2_11  and  C10_12 
REMARK    6  A    between atoms: C11_13  and  C12_14 
ROOT
HETATM    1  C5  UNL     1      25.016   5.509  49.342  1.00  0.00     0.070 C 
HETATM    2  C6  UNL     1      25.294   4.207  49.695  1.00  0.00    -0.019 C 
HETATM    3  C7  UNL     1      26.593   3.772  49.806  1.00  0.00     0.052 C 
HETATM    4  C8  UNL     1      24.327   3.114  50.005  1.00  0.00     0.020 C 
HETATM    5  C9  UNL     1      24.870   2.462  51.021  1.00  0.00     0.137 C 
HETATM    6  N3  UNL     1      24.062   1.400  51.498  1.00  0.00    -0.224 NA
HETATM    7  C14 UNL     1      23.543   1.552  52.700  1.00  0.00     0.234 C 
HETATM    8  N4  UNL     1      23.950   2.788  53.220  1.00  0.00    -0.254 NA
HETATM    9  C15 UNL     1      23.813   3.943  52.741  1.00  0.00     0.120 C 
HETATM   10  C16 UNL     1      23.446   5.000  51.863  1.00  0.00     0.053 C 
HETATM   11  C17 UNL     1      22.741   4.916  50.770  1.00  0.00     0.072 C 
HETATM   12  C18 UNL     1      22.752   6.319  50.328  1.00  0.00     0.239 C 
HETATM   13  O1  UNL     1      23.953   6.460  49.470  1.00  0.00    -0.347 OA
HETATM   14  O2  UNL     1      22.142   3.753  50.187  1.00  0.00    -0.348 OA
HETATM   15  C19 UNL     1      22.974   2.725  49.497  1.00  0.00     0.218 C 
ENDROOT
BRANCH   5  16
HETATM   16  N2  UNL     1      26.124   2.914  51.523  1.00  0.00    -0.350 N 
HETATM   17  H14 UNL     1      27.065   3.169  51.906  1.00  0.00     0.166 HD
BRANCH  16  18
HETATM   18  C10 UNL     1      26.793   1.648  51.858  1.00  0.00     0.090 C 
HETATM   19  C11 UNL     1      27.156   0.683  52.725  1.00  0.00     0.022 C 
BRANCH  19  20
HETATM   20  C12 UNL     1      27.820  -0.547  53.002  1.00  0.00     0.075 C 
HETATM   21  C13 UNL     1      29.071  -0.335  53.313  1.00  0.00     0.267 C 
HETATM   22  F1  UNL     1      29.746  -1.458  53.586  1.00  0.00    -0.173 F 
HETATM   23  F2  UNL     1      30.327  -0.042  53.620  1.00  0.00    -0.173 F 
ENDBRANCH  19  20
ENDBRANCH  16  18
ENDBRANCH   5  16
BRANCH   1  24
HETATM   24  C4  UNL     1      26.147   6.115  48.613  1.00  0.00     0.181 C 
BRANCH  24  25
HETATM   25  N1  UNL     1      26.161   7.537  48.715  1.00  0.00    -0.411 N 
HETATM   26  C3  UNL     1      26.547   8.052  49.937  1.00  0.00     0.143 C 
BRANCH  25  27
HETATM   27  C2  UNL     1      26.137   8.266  47.533  1.00  0.00     0.112 C 
HETATM   28  C1  UNL     1      27.382   8.183  46.683  1.00  0.00     0.026 C 
ENDBRANCH  25  27
ENDBRANCH  24  25
ENDBRANCH   1  24
TORSDOF 6
ENDMDL
MODEL 3
REMARK VINA RESULT:      -7.4      5.550      7.624
REMARK  6 active torsions:
REMARK  status: ('A' for Active; 'I' for Inactive)
REMARK    1  A    between atoms: C2_2  and  N1_3 
REMARK    2  A    between atoms: N1_3  and  C4_5 
REMARK    3  A    between atoms: C4_5  and  C5_6 
REMARK    4  A    between atoms: C9_10  and  N2_11 
REMARK    5  A    between atoms: N2_11  and  C10_12 
REMARK    6  A    between atoms: C11_13  and  C12_14 
ROOT
HETATM    1  C5  UNL     1      24.004   1.680  52.638  1.00  0.00     0.070 C 
HETATM    2  C6  UNL     1      22.883   0.977  52.258  1.00  0.00    -0.019 C 
HETATM    3  C7  UNL     1      22.441  -0.093  52.998  1.00  0.00     0.052 C 
HETATM    4  C8  UNL     1      22.004   1.221  51.077  1.00  0.00     0.020 C 
HETATM    5  C9  UNL     1      20.776   1.005  51.522  1.00  0.00     0.137 C 
HETATM    6  N3  UNL     1      19.779   1.239  50.542  1.00  0.00    -0.224 NA
HETATM    7  C14 UNL     1      18.987   2.273  50.745  1.00  0.00     0.234 C 
HETATM    8  N4  UNL     1      19.356   2.903  51.941  1.00  0.00    -0.254 NA
HETATM    9  C15 UNL     1      20.471   3.370  52.290  1.00  0.00     0.120 C 
HETATM   10  C16 UNL     1      21.842   3.745  52.255  1.00  0.00     0.053 C 
HETATM   11  C17 UNL     1      22.667   3.644  51.251  1.00  0.00     0.072 C 
HETATM   12  C18 UNL     1      23.904   4.158  51.859  1.00  0.00     0.239 C 
HETATM   13  O1  UNL     1      24.578   2.979  52.454  1.00  0.00    -0.347 OA
HETATM   14  O2  UNL     1      22.405   3.154  49.930  1.00  0.00    -0.348 OA
HETATM   15  C19 UNL     1      22.225   1.696  49.675  1.00  0.00     0.218 C 
ENDROOT
BRANCH   5  16
HETATM   16  N2  UNL     1      20.605   0.629  52.885  1.00  0.00    -0.350 N 
HETATM   17  H14 UNL     1      20.419   0.305  53.863  1.00  0.00     0.166 HD
BRANCH  16  18
HETATM   18  C10 UNL     1      19.496  -0.333  52.800  1.00  0.00     0.090 C 
HETATM   19  C11 UNL     1      18.201  -0.676  52.934  1.00  0.00     0.022 C 
BRANCH  19  20
HETATM   20  C12 UNL     1      17.159  -1.644  52.837  1.00  0.00     0.075 C 
HETATM   21  C13 UNL     1      17.438  -2.695  53.561  1.00  0.00     0.267 C 
HETATM   22  F1  UNL     1      16.491  -3.640  53.509  1.00  0.00    -0.173 F 
HETATM   23  F2  UNL     1      17.789  -3.726  54.317  1.00  0.00    -0.173 F 
ENDBRANCH  19  20
ENDBRANCH  16  18
ENDBRANCH   5  16
BRANCH   1  24
HETATM   24  C4  UNL     1      24.882   0.859  53.493  1.00  0.00     0.181 C 
BRANCH  24  25
HETATM   25  N1  UNL     1      26.224   0.816  53.013  1.00  0.00    -0.411 N 
HETATM   26  C3  UNL     1      27.170   1.434  53.806  1.00  0.00     0.143 C 
BRANCH  25  27
HETATM   27  C2  UNL     1      26.520  -0.108  52.019  1.00  0.00     0.112 C 
HETATM   28  C1  UNL     1      26.700  -1.535  52.480  1.00  0.00     0.026 C 
ENDBRANCH  25  27
ENDBRANCH  24  25
ENDBRANCH   1  24
TORSDOF 6
ENDMDL
MODEL 4
REMARK VINA RESULT:      -7.1      4.945      8.129
REMARK  6 active torsions:
REMARK  status: ('A' for Active; 'I' for Inactive)
REMARK    1  A    between atoms: C2_2  and  N1_3 
REMARK    2  A    between atoms: N1_3  and  C4_5 
REMARK    3  A    between atoms: C4_5  and  C5_6 
REMARK    4  A    between atoms: C9_10  and  N2_11 
REMARK    5  A    between atoms: N2_11  and  C10_12 
REMARK    6  A    between atoms: C11_13  and  C12_14 
ROOT
HETATM    1  C5  UNL     1      30.166   7.324  47.833  1.00  0.00     0.070 C 
HETATM    2  C6  UNL     1      28.890   6.807  47.830  1.00  0.00    -0.019 C 
HETATM    3  C7  UNL     1      28.660   5.506  48.207  1.00  0.00     0.052 C 
HETATM    4  C8  UNL     1      27.621   7.497  47.456  1.00  0.00     0.020 C 
HETATM    5  C9  UNL     1      26.731   7.061  48.333  1.00  0.00     0.137 C 
HETATM    6  N3  UNL     1      25.452   7.651  48.169  1.00  0.00    -0.224 NA
HETATM    7  C14 UNL     1      25.054   8.465  49.127  1.00  0.00     0.234 C 
HETATM    8  N4  UNL     1      26.051   8.536  50.109  1.00  0.00    -0.254 NA
HETATM    9  C15 UNL     1      27.263   8.853  49.999  1.00  0.00     0.120 C 
HETATM   10  C16 UNL     1      28.500   9.263  49.428  1.00  0.00     0.053 C 
HETATM   11  C17 UNL     1      28.722   9.637  48.199  1.00  0.00     0.072 C 
HETATM   12  C18 UNL     1      30.170   9.891  48.246  1.00  0.00     0.239 C 
HETATM   13  O1  UNL     1      30.814   8.599  47.907  1.00  0.00    -0.347 OA
HETATM   14  O2  UNL     1      27.784   9.749  47.121  1.00  0.00    -0.348 OA
HETATM   15  C19 UNL     1      27.241   8.535  46.448  1.00  0.00     0.218 C 
ENDROOT
BRANCH   5  16
HETATM   16  N2  UNL     1      27.155   6.131  49.324  1.00  0.00    -0.350 N 
HETATM   17  H14 UNL     1      27.396   5.408  50.043  1.00  0.00     0.166 HD
BRANCH  16  18
HETATM   18  C10 UNL     1      26.013   5.205  49.383  1.00  0.00     0.090 C 
HETATM   19  C11 UNL     1      25.417   4.070  49.794  1.00  0.00     0.022 C 
BRANCH  19  20
HETATM   20  C12 UNL     1      24.285   3.204  49.821  1.00  0.00     0.075 C 
HETATM   21  C13 UNL     1      24.379   2.354  50.809  1.00  0.00     0.267 C 
HETATM   22  F1  UNL     1      23.340   1.514  50.884  1.00  0.00    -0.173 F 
HETATM   23  F2  UNL     1      24.544   1.526  51.831  1.00  0.00    -0.173 F 
ENDBRANCH  19  20
ENDBRANCH  16  18
ENDBRANCH   5  16
BRANCH   1  24
HETATM   24  C4  UNL     1      31.175   6.253  47.732  1.00  0.00     0.181 C 
BRANCH  24  25
HETATM   25  N1  UNL     1      32.212   6.387  48.701  1.00  0.00    -0.411 N 
HETATM   26  C3  UNL     1      31.890   6.002  49.987  1.00  0.00     0.143 C 
BRANCH  25  27
HETATM   27  C2  UNL     1      33.510   6.546  48.236  1.00  0.00     0.112 C 
HETATM   28  C1  UNL     1      34.442   5.382  48.474  1.00  0.00     0.026 C 
ENDBRANCH  25  27
ENDBRANCH  24  25
ENDBRANCH   1  24
TORSDOF 6
ENDMDL
MODEL 5
REMARK VINA RESULT:      -6.9      3.329      5.948
REMARK  6 active torsions:
REMARK  status: ('A' for Active; 'I' for Inactive)
REMARK    1  A    between atoms: C2_2  and  N1_3 
REMARK    2  A    between atoms: N1_3  and  C4_5 
REMARK    3  A    between atoms: C4_5  and  C5_6 
REMARK    4  A    between atoms: C9_10  and  N2_11 
REMARK    5  A    between atoms: N2_11  and  C10_12 
REMARK    6  A    between atoms: C11_13  and  C12_14 
ROOT
HETATM    1  C5  UNL     1      22.312   1.790  51.052  1.00  0.00     0.070 C 
HETATM    2  C6  UNL     1      23.219   1.373  52.000  1.00  0.00    -0.019 C 
HETATM    3  C7  UNL     1      23.350   0.040  52.306  1.00  0.00     0.052 C 
HETATM    4  C8  UNL     1      24.157   2.210  52.804  1.00  0.00     0.020 C 
HETATM    5  C9  UNL     1      25.276   1.505  52.855  1.00  0.00     0.137 C 
HETATM    6  N3  UNL     1      26.321   2.168  53.547  1.00  0.00    -0.224 NA
HETATM    7  C14 UNL     1      27.350   2.558  52.821  1.00  0.00     0.234 C 
HETATM    8  N4  UNL     1      27.131   2.193  51.486  1.00  0.00    -0.254 NA
HETATM    9  C15 UNL     1      26.170   2.474  50.726  1.00  0.00     0.120 C 
HETATM   10  C16 UNL     1      24.945   3.020  50.253  1.00  0.00     0.053 C 
HETATM   11  C17 UNL     1      24.144   3.835  50.879  1.00  0.00     0.072 C 
HETATM   12  C18 UNL     1      23.071   3.986  49.885  1.00  0.00     0.239 C 
HETATM   13  O1  UNL     1      22.100   2.904  50.176  1.00  0.00    -0.347 OA
HETATM   14  O2  UNL     1      24.298   4.403  52.186  1.00  0.00    -0.348 OA
HETATM   15  C19 UNL     1      24.098   3.577  53.411  1.00  0.00     0.218 C 
ENDROOT
BRANCH   5  16
HETATM   16  N2  UNL     1      25.313   0.242  52.198  1.00  0.00    -0.350 N 
HETATM   17  H14 UNL     1      25.407  -0.703  51.757  1.00  0.00     0.166 HD
BRANCH  16  18
HETATM   18  C10 UNL     1      26.499  -0.383  52.803  1.00  0.00     0.090 C 
HETATM   19  C11 UNL     1      27.543  -1.233  52.778  1.00  0.00     0.022 C 
BRANCH  19  20
HETATM   20  C12 UNL     1      28.684  -1.812  53.405  1.00  0.00     0.075 C 
HETATM   21  C13 UNL     1      29.643  -0.932  53.519  1.00  0.00     0.267 C 
HETATM   22  F1  UNL     1      30.743  -1.421  54.103  1.00  0.00    -0.173 F 
HETATM   23  F2  UNL     1      30.568   0.015  53.599  1.00  0.00    -0.173 F 
ENDBRANCH  19  20
ENDBRANCH  16  18
ENDBRANCH   5  16
BRANCH   1  24
HETATM   24  C4  UNL     1      21.232   0.801  50.877  1.00  0.00     0.181 C 
BRANCH  24  25
HETATM   25  N1  UNL     1      20.026   1.189  51.534  1.00  0.00    -0.411 N 
HETATM   26  C3  UNL     1      19.108   1.869  50.759  1.00  0.00     0.143 C 
BRANCH  25  27
HETATM   27  C2  UNL     1      19.726   0.571  52.741  1.00  0.00     0.112 C 
HETATM   28  C1  UNL     1      18.743  -0.573  52.668  1.00  0.00     0.026 C 
ENDBRANCH  25  27
ENDBRANCH  24  25
ENDBRANCH   1  24
TORSDOF 6
ENDMDL
MODEL 6
REMARK VINA RESULT:      -6.8      3.467      6.377
REMARK  6 active torsions:
REMARK  status: ('A' for Active; 'I' for Inactive)
REMARK    1  A    between atoms: C2_2  and  N1_3 
REMARK    2  A    between atoms: N1_3  and  C4_5 
REMARK    3  A    between atoms: C4_5  and  C5_6 
REMARK    4  A    between atoms: C9_10  and  N2_11 
REMARK    5  A    between atoms: N2_11  and  C10_12 
REMARK    6  A    between atoms: C11_13  and  C12_14 
ROOT
HETATM    1  C5  UNL     1      21.784   3.845  51.604  1.00  0.00     0.070 C 
HETATM    2  C6  UNL     1      22.652   2.781  51.708  1.00  0.00    -0.019 C 
HETATM    3  C7  UNL     1      23.945   2.969  52.135  1.00  0.00     0.052 C 
HETATM    4  C8  UNL     1      22.382   1.344  51.411  1.00  0.00     0.020 C 
HETATM    5  C9  UNL     1      23.018   0.679  52.363  1.00  0.00     0.137 C 
HETATM    6  N3  UNL     1      22.836  -0.724  52.278  1.00  0.00    -0.224 NA
HETATM    7  C14 UNL     1      22.130  -1.284  53.241  1.00  0.00     0.234 C 
HETATM    8  N4  UNL     1      21.725  -0.293  54.145  1.00  0.00    -0.254 NA
HETATM    9  C15 UNL     1      21.072   0.762  53.937  1.00  0.00     0.120 C 
HETATM   10  C16 UNL     1      20.345   1.784  53.266  1.00  0.00     0.053 C 
HETATM   11  C17 UNL     1      19.981   1.809  52.015  1.00  0.00     0.072 C 
HETATM   12  C18 UNL     1      19.313   3.117  51.949  1.00  0.00     0.239 C 
HETATM   13  O1  UNL     1      20.373   4.092  51.597  1.00  0.00    -0.347 OA
HETATM   14  O2  UNL     1      20.198   0.814  51.007  1.00  0.00    -0.348 OA
HETATM   15  C19 UNL     1      21.548   0.612  50.407  1.00  0.00     0.218 C 
ENDROOT
BRANCH   5  16
HETATM   16  N2  UNL     1      23.736   1.420  53.343  1.00  0.00    -0.350 N 
HETATM   17  H14 UNL     1      24.324   1.911  54.058  1.00  0.00     0.166 HD
BRANCH  16  18
HETATM   18  C10 UNL     1      24.987   0.653  53.450  1.00  0.00     0.090 C 
HETATM   19  C11 UNL     1      26.182   0.392  54.014  1.00  0.00     0.022 C 
BRANCH  19  20
HETATM   20  C12 UNL     1      27.379  -0.378  54.078  1.00  0.00     0.075 C 
HETATM   21  C13 UNL     1      28.382   0.361  54.471  1.00  0.00     0.267 C 
HETATM   22  F1  UNL     1      29.536  -0.312  54.551  1.00  0.00    -0.173 F 
HETATM   23  F2  UNL     1      29.349   1.174  54.874  1.00  0.00    -0.173 F 
ENDBRANCH  19  20
ENDBRANCH  16  18
ENDBRANCH   5  16
BRANCH   1  24
HETATM   24  C4  UNL     1      22.517   5.117  51.457  1.00  0.00     0.181 C 
BRANCH  24  25
HETATM   25  N1  UNL     1      22.070   5.876  50.335  1.00  0.00    -0.411 N 
HETATM   26  C3  UNL     1      21.546   7.122  50.619  1.00  0.00     0.143 C 
BRANCH  25  27
HETATM   27  C2  UNL     1      22.503   5.479  49.077  1.00  0.00     0.112 C 
HETATM   28  C1  UNL     1      23.951   5.061  48.981  1.00  0.00     0.026 C 
ENDBRANCH  25  27
ENDBRANCH  24  25
ENDBRANCH   1  24
TORSDOF 6
ENDMDL
MODEL 7
REMARK VINA RESULT:      -6.8      3.792      6.901
REMARK  6 active torsions:
REMARK  status: ('A' for Active; 'I' for Inactive)
REMARK    1  A    between atoms: C2_2  and  N1_3 
REMARK    2  A    between atoms: N1_3  and  C4_5 
REMARK    3  A    between atoms: C4_5  and  C5_6 
REMARK    4  A    between atoms: C9_10  and  N2_11 
REMARK    5  A    between atoms: N2_11  and  C10_12 
REMARK    6  A    between atoms: C11_13  and  C12_14 
ROOT
HETATM    1  C5  UNL     1      25.865   7.014  48.432  1.00  0.00     0.070 C 
HETATM    2  C6  UNL     1      25.721   5.689  48.776  1.00  0.00    -0.019 C 
HETATM    3  C7  UNL     1      26.822   4.897  48.997  1.00  0.00     0.052 C 
HETATM    4  C8  UNL     1      24.454   4.923  48.965  1.00  0.00     0.020 C 
HETATM    5  C9  UNL     1      24.686   4.143  50.010  1.00  0.00     0.137 C 
HETATM    6  N3  UNL     1      23.563   3.361  50.381  1.00  0.00    -0.224 NA
HETATM    7  C14 UNL     1      22.995   3.659  51.533  1.00  0.00     0.234 C 
HETATM    8  N4  UNL     1      23.689   4.726  52.121  1.00  0.00    -0.254 NA
HETATM    9  C15 UNL     1      23.937   5.870  51.661  1.00  0.00     0.120 C 
HETATM   10  C16 UNL     1      23.977   6.986  50.781  1.00  0.00     0.053 C 
HETATM   11  C17 UNL     1      23.388   7.107  49.625  1.00  0.00     0.072 C 
HETATM   12  C18 UNL     1      23.845   8.446  49.222  1.00  0.00     0.239 C 
HETATM   13  O1  UNL     1      25.113   8.232  48.485  1.00  0.00    -0.347 OA
HETATM   14  O2  UNL     1      22.539   6.166  48.957  1.00  0.00    -0.348 OA
HETATM   15  C19 UNL     1      23.103   4.940  48.322  1.00  0.00     0.218 C 
ENDROOT
BRANCH   5  16
HETATM   16  N2  UNL     1      25.961   4.215  50.639  1.00  0.00    -0.350 N 
HETATM   17  H14 UNL     1      26.892   4.188  51.117  1.00  0.00     0.166 HD
BRANCH  16  18
HETATM   18  C10 UNL     1      26.181   2.818  51.044  1.00  0.00     0.090 C 
HETATM   19  C11 UNL     1      26.754   1.875  51.816  1.00  0.00     0.022 C 
BRANCH  19  20
HETATM   20  C12 UNL     1      26.936   0.507  52.171  1.00  0.00     0.075 C 
HETATM   21  C13 UNL     1      25.804  -0.026  52.547  1.00  0.00     0.267 C 
HETATM   22  F1  UNL     1      25.915  -1.314  52.892  1.00  0.00    -0.173 F 
HETATM   23  F2  UNL     1      24.620  -0.496  52.914  1.00  0.00    -0.173 F 
ENDBRANCH  19  20
ENDBRANCH  16  18
ENDBRANCH   5  16
BRANCH   1  24
HETATM   24  C4  UNL     1      27.187   7.266  47.829  1.00  0.00     0.181 C 
BRANCH  24  25
HETATM   25  N1  UNL     1      28.092   7.889  48.738  1.00  0.00    -0.411 N 
HETATM   26  C3  UNL     1      29.434   7.657  48.511  1.00  0.00     0.143 C 
BRANCH  25  27
HETATM   27  C2  UNL     1      27.601   8.922  49.526  1.00  0.00     0.112 C 
HETATM   28  C1  UNL     1      28.164  10.293  49.240  1.00  0.00     0.026 C 
ENDBRANCH  25  27
ENDBRANCH  24  25
ENDBRANCH   1  24
TORSDOF 6
ENDMDL
MODEL 8
REMARK VINA RESULT:      -6.6      5.715      8.683
REMARK  6 active torsions:
REMARK  status: ('A' for Active; 'I' for Inactive)
REMARK    1  A    between atoms: C2_2  and  N1_3 
REMARK    2  A    between atoms: N1_3  and  C4_5 
REMARK    3  A    between atoms: C4_5  and  C5_6 
REMARK    4  A    between atoms: C9_10  and  N2_11 
REMARK    5  A    between atoms: N2_11  and  C10_12 
REMARK    6  A    between atoms: C11_13  and  C12_14 
ROOT
HETATM    1  C5  UNL     1      31.330   6.789  47.950  1.00  0.00     0.070 C 
HETATM    2  C6  UNL     1      29.997   6.503  47.759  1.00  0.00    -0.019 C 
HETATM    3  C7  UNL     1      29.462   5.321  48.211  1.00  0.00     0.052 C 
HETATM    4  C8  UNL     1      28.964   7.346  47.089  1.00  0.00     0.020 C 
HETATM    5  C9  UNL     1      27.874   7.188  47.823  1.00  0.00     0.137 C 
HETATM    6  N3  UNL     1      26.778   7.963  47.367  1.00  0.00    -0.224 NA
HETATM    7  C14 UNL     1      26.391   8.951  48.150  1.00  0.00     0.234 C 
HETATM    8  N4  UNL     1      27.206   8.976  49.289  1.00  0.00    -0.254 NA
HETATM    9  C15 UNL     1      28.458   9.063  49.377  1.00  0.00     0.120 C 
HETATM   10  C16 UNL     1      29.827   9.177  49.010  1.00  0.00     0.053 C 
HETATM   11  C17 UNL     1      30.317   9.343  47.814  1.00  0.00     0.072 C 
HETATM   12  C18 UNL     1      31.759   9.349  48.105  1.00  0.00     0.239 C 
HETATM   13  O1  UNL     1      32.191   7.933  48.019  1.00  0.00    -0.347 OA
HETATM   14  O2  UNL     1      29.611   9.475  46.574  1.00  0.00    -0.348 OA
HETATM   15  C19 UNL     1      28.963   8.295  45.932  1.00  0.00     0.218 C 
ENDROOT
BRANCH   5  16
HETATM   16  N2  UNL     1      27.941   6.335  48.961  1.00  0.00    -0.350 N 
HETATM   17  H14 UNL     1      27.915   5.684  49.782  1.00  0.00     0.166 HD
BRANCH  16  18
HETATM   18  C10 UNL     1      26.625   5.679  48.930  1.00  0.00     0.090 C 
HETATM   19  C11 UNL     1      25.762   4.718  49.310  1.00  0.00     0.022 C 
BRANCH  19  20
HETATM   20  C12 UNL     1      24.472   4.116  49.245  1.00  0.00     0.075 C 
HETATM   21  C13 UNL     1      23.541   4.990  49.521  1.00  0.00     0.267 C 
HETATM   22  F1  UNL     1      22.305   4.479  49.475  1.00  0.00    -0.173 F 
HETATM   23  F2  UNL     1      22.654   5.932  49.811  1.00  0.00    -0.173 F 
ENDBRANCH  19  20
ENDBRANCH  16  18
ENDBRANCH   5  16
BRANCH   1  24
HETATM   24  C4  UNL     1      32.117   5.557  48.143  1.00  0.00     0.181 C 
BRANCH  24  25
HETATM   25  N1  UNL     1      33.081   5.358  47.111  1.00  0.00    -0.411 N 
HETATM   26  C3  UNL     1      32.662   5.652  45.829  1.00  0.00     0.143 C 
BRANCH  25  27
HETATM   27  C2  UNL     1      34.411   5.236  47.490  1.00  0.00     0.112 C 
HETATM   28  C1  UNL     1      34.836   3.868  47.968  1.00  0.00     0.026 C 
ENDBRANCH  25  27
ENDBRANCH  24  25
ENDBRANCH   1  24
TORSDOF 6
ENDMDL
MODEL 9
REMARK VINA RESULT:      -6.5      4.011      6.753
REMARK  6 active torsions:
REMARK  status: ('A' for Active; 'I' for Inactive)
REMARK    1  A    between atoms: C2_2  and  N1_3 
REMARK    2  A    between atoms: N1_3  and  C4_5 
REMARK    3  A    between atoms: C4_5  and  C5_6 
REMARK    4  A    between atoms: C9_10  and  N2_11 
REMARK    5  A    between atoms: N2_11  and  C10_12 
REMARK    6  A    between atoms: C11_13  and  C12_14 
ROOT
HETATM    1  C5  UNL     1      21.957   4.043  50.269  1.00  0.00     0.070 C 
HETATM    2  C6  UNL     1      22.592   2.878  50.638  1.00  0.00    -0.019 C 
HETATM    3  C7  UNL     1      23.909   2.891  51.029  1.00  0.00     0.052 C 
HETATM    4  C8  UNL     1      22.023   1.499  50.688  1.00  0.00     0.020 C 
HETATM    5  C9  UNL     1      22.541   0.962  51.782  1.00  0.00     0.137 C 
HETATM    6  N3  UNL     1      22.073  -0.352  52.032  1.00  0.00    -0.224 NA
HETATM    7  C14 UNL     1      21.301  -0.509  53.088  1.00  0.00     0.234 C 
HETATM    8  N4  UNL     1      21.138   0.729  53.723  1.00  0.00    -0.254 NA
HETATM    9  C15 UNL     1      20.708   1.816  53.259  1.00  0.00     0.120 C 
HETATM   10  C16 UNL     1      20.184   2.778  52.351  1.00  0.00     0.053 C 
HETATM   11  C17 UNL     1      19.790   2.580  51.125  1.00  0.00     0.072 C 
HETATM   12  C18 UNL     1      19.402   3.945  50.737  1.00  0.00     0.239 C 
HETATM   13  O1  UNL     1      20.627   4.567  50.180  1.00  0.00    -0.347 OA
HETATM   14  O2  UNL     1      19.765   1.352  50.387  1.00  0.00    -0.348 OA
HETATM   15  C19 UNL     1      21.024   0.739  49.875  1.00  0.00     0.218 C 
ENDROOT
BRANCH   5  16
HETATM   16  N2  UNL     1      23.429   1.749  52.569  1.00  0.00    -0.350 N 
HETATM   17  H14 UNL     1      24.126   2.262  53.158  1.00  0.00     0.166 HD
BRANCH  16  18
HETATM   18  C10 UNL     1      24.466   0.771  52.931  1.00  0.00     0.090 C 
HETATM   19  C11 UNL     1      25.742   0.344  52.966  1.00  0.00     0.022 C 
BRANCH  19  20
HETATM   20  C12 UNL     1      26.712  -0.634  53.336  1.00  0.00     0.075 C 
HETATM   21  C13 UNL     1      26.665  -1.658  52.527  1.00  0.00     0.267 C 
HETATM   22  F1  UNL     1      27.557  -2.610  52.826  1.00  0.00    -0.173 F 
HETATM   23  F2  UNL     1      26.558  -2.661  51.666  1.00  0.00    -0.173 F 
ENDBRANCH  19  20
ENDBRANCH  16  18
ENDBRANCH   5  16
BRANCH   1  24
HETATM   24  C4  UNL     1      22.929   5.064  49.834  1.00  0.00     0.181 C 
BRANCH  24  25
HETATM   25  N1  UNL     1      22.666   5.540  48.516  1.00  0.00    -0.411 N 
HETATM   26  C3  UNL     1      22.463   4.572  47.553  1.00  0.00     0.143 C 
BRANCH  25  27
HETATM   27  C2  UNL     1      22.295   6.871  48.376  1.00  0.00     0.112 C 
HETATM   28  C1  UNL     1      22.409   7.720  49.620  1.00  0.00     0.026 C 
ENDBRANCH  25  27
ENDBRANCH  24  25
ENDBRANCH   1  24
TORSDOF 6
ENDMDL
