MODEL 1
REMARK VINA RESULT:      -7.8      0.000      0.000
REMARK  5 active torsions:
REMARK  status: ('A' for Active; 'I' for Inactive)
REMARK    1  A    between atoms: C2_2  and  C3_3 
REMARK    2  A    between atoms: C3_3  and  N1_5 
REMARK    3  A    between atoms: C9_11  and  C10_12 
REMARK    4  A    between atoms: C12_16  and  N4_17 
REMARK    5  A    between atoms: N4_17  and  C13_18 
ROOT
HETATM    1  N1  UNL     1      21.378   0.497  52.876  1.00  0.00    -0.383 N 
HETATM    2  C5  UNL     1      21.269  -0.597  53.782  1.00  0.00     0.120 C 
HETATM    3  C6  UNL     1      22.682  -1.115  54.001  1.00  0.00     0.030 C 
HETATM    4  C7  UNL     1      23.548   0.078  53.723  1.00  0.00     0.054 C 
HETATM    5  C8  UNL     1      24.777  -0.360  52.983  1.00  0.00     0.128 C 
HETATM    6  N2  UNL     1      25.988   0.223  53.576  1.00  0.00    -0.391 N 
HETATM    7  C9  UNL     1      27.236   0.157  52.904  1.00  0.00     0.037 C 
HETATM    8  C11 UNL     1      27.087   1.262  52.236  1.00  0.00     0.162 C 
HETATM    9  N3  UNL     1      27.068   2.398  51.469  1.00  0.00    -0.073 NA
HETATM   10  C12 UNL     1      25.918   3.036  51.385  1.00  0.00     0.728 C 
HETATM   11  N7  UNL     1      24.795   2.571  52.038  1.00  0.00    -0.051 NA
HETATM   12  C17 UNL     1      23.754   3.091  52.482  1.00  0.00     0.273 C 
HETATM   13  O1  UNL     1      22.762   2.319  53.122  1.00  0.00    -0.319 OA
HETATM   14  C18 UNL     1      22.723   0.946  52.794  1.00  0.00     0.232 C 
HETATM   15  H17 UNL     1      26.180   0.713  54.485  1.00  0.00     0.159 HD
ENDROOT
BRANCH  10  16
HETATM   16  N4  UNL     1      26.037   4.173  50.580  1.00  0.00    -0.185 N 
HETATM   17  H21 UNL     1      26.945   4.658  50.730  1.00  0.00     0.184 HD
BRANCH  16  18
HETATM   18  C13 UNL     1      25.063   4.633  49.666  1.00  0.00     0.085 A 
HETATM   19  C14 UNL     1      25.100   5.931  49.212  1.00  0.00     0.170 A 
HETATM   20  N5  UNL     1      24.112   6.217  48.350  1.00  0.00    -0.183 NA
HETATM   21  N6  UNL     1      23.406   5.107  48.222  1.00  0.00    -0.283 N 
HETATM   22  C15 UNL     1      22.242   4.943  47.389  1.00  0.00     0.179 C 
HETATM   23  C16 UNL     1      23.964   4.140  49.006  1.00  0.00     0.143 A 
ENDBRANCH  16  18
ENDBRANCH  10  16
BRANCH   7  24
HETATM   24  C10 UNL     1      28.124  -0.970  53.177  1.00  0.00     0.172 C 
HETATM   25 CL1  UNL     1      29.795  -0.456  53.529  1.00  0.00    -0.124 Cl
ENDBRANCH   7  24
BRANCH   1  26
HETATM   26  C3  UNL     1      20.643   0.402  51.669  1.00  0.00     0.077 C 
HETATM   27  C4  UNL     1      19.538   1.425  51.537  1.00  0.00     0.032 C 
BRANCH  26  28
HETATM   28  C2  UNL     1      21.638   0.521  50.525  1.00  0.00     0.020 C 
HETATM   29  C1  UNL     1      21.031   1.151  49.293  1.00  0.00     0.007 C 
ENDBRANCH  26  28
ENDBRANCH   1  26
TORSDOF 5
ENDMDL
MODEL 2
REMARK VINA RESULT:      -7.8      2.900      6.534
REMARK  5 active torsions:
REMARK  status: ('A' for Active; 'I' for Inactive)
REMARK    1  A    between atoms: C2_2  and  C3_3 
REMARK    2  A    between atoms: C3_3  and  N1_5 
REMARK    3  A    between atoms: C9_11  and  C10_12 
REMARK    4  A    between atoms: C12_16  and  N4_17 
REMARK    5  A    between atoms: N4_17  and  C13_18 
ROOT
HETATM    1  N1  UNL     1      23.027   4.685  50.913  1.00  0.00    -0.383 N 
HETATM    2  C5  UNL     1      21.840   5.472  50.863  1.00  0.00     0.120 C 
HETATM    3  C6  UNL     1      20.697   4.546  51.251  1.00  0.00     0.030 C 
HETATM    4  C7  UNL     1      21.357   3.494  52.092  1.00  0.00     0.054 C 
HETATM    5  C8  UNL     1      20.757   2.155  51.776  1.00  0.00     0.128 C 
HETATM    6  N2  UNL     1      20.418   1.425  53.005  1.00  0.00    -0.391 N 
HETATM    7  C9  UNL     1      20.075   0.049  52.966  1.00  0.00     0.037 C 
HETATM    8  C11 UNL     1      21.290  -0.397  53.091  1.00  0.00     0.162 C 
HETATM    9  N3  UNL     1      22.511  -1.007  53.215  1.00  0.00    -0.073 NA
HETATM   10  C12 UNL     1      23.574  -0.236  53.095  1.00  0.00     0.728 C 
HETATM   11  N7  UNL     1      23.449   1.117  52.853  1.00  0.00    -0.051 NA
HETATM   12  C17 UNL     1      24.150   2.122  53.079  1.00  0.00     0.273 C 
HETATM   13  O1  UNL     1      23.729   3.412  52.696  1.00  0.00    -0.319 OA
HETATM   14  C18 UNL     1      22.802   3.483  51.634  1.00  0.00     0.232 C 
HETATM   15  H17 UNL     1      20.341   1.709  54.013  1.00  0.00     0.159 HD
ENDROOT
BRANCH  10  16
HETATM   16  N4  UNL     1      24.748  -0.979  53.244  1.00  0.00    -0.185 N 
HETATM   17  H21 UNL     1      24.608  -1.978  52.990  1.00  0.00     0.184 HD
BRANCH  16  18
HETATM   18  C13 UNL     1      25.990  -0.467  53.683  1.00  0.00     0.085 A 
HETATM   19  C14 UNL     1      26.196  -0.207  55.018  1.00  0.00     0.170 A 
HETATM   20  N5  UNL     1      27.422   0.274  55.279  1.00  0.00    -0.183 NA
HETATM   21  N6  UNL     1      28.044   0.338  54.115  1.00  0.00    -0.283 N 
HETATM   22  C15 UNL     1      29.394   0.797  53.908  1.00  0.00     0.179 C 
HETATM   23  C16 UNL     1      27.198  -0.105  53.140  1.00  0.00     0.143 A 
ENDBRANCH  16  18
ENDBRANCH  10  16
BRANCH   7  24
HETATM   24  C10 UNL     1      18.670  -0.323  52.829  1.00  0.00     0.172 C 
HETATM   25 CL1  UNL     1      18.312  -1.922  53.536  1.00  0.00    -0.124 Cl
ENDBRANCH   7  24
BRANCH   1  26
HETATM   26  C3  UNL     1      23.787   4.603  49.720  1.00  0.00     0.077 C 
HETATM   27  C4  UNL     1      25.250   4.943  49.895  1.00  0.00     0.032 C 
BRANCH  26  28
HETATM   28  C2  UNL     1      23.615   3.194  49.173  1.00  0.00     0.020 C 
HETATM   29  C1  UNL     1      22.592   3.125  48.063  1.00  0.00     0.007 C 
ENDBRANCH  26  28
ENDBRANCH   1  26
TORSDOF 5
ENDMDL
MODEL 3
REMARK VINA RESULT:      -7.7      0.928      1.493
REMARK  5 active torsions:
REMARK  status: ('A' for Active; 'I' for Inactive)
REMARK    1  A    between atoms: C2_2  and  C3_3 
REMARK    2  A    between atoms: C3_3  and  N1_5 
REMARK    3  A    between atoms: C9_11  and  C10_12 
REMARK    4  A    between atoms: C12_16  and  N4_17 
REMARK    5  A    between atoms: N4_17  and  C13_18 
ROOT
HETATM    1  N1  UNL     1      21.259   1.032  52.756  1.00  0.00    -0.383 N 
HETATM    2  C5  UNL     1      21.045  -0.026  53.685  1.00  0.00     0.120 C 
HETATM    3  C6  UNL     1      22.404  -0.666  53.926  1.00  0.00     0.030 C 
HETATM    4  C7  UNL     1      23.377   0.435  53.626  1.00  0.00     0.054 C 
HETATM    5  C8  UNL     1      24.564  -0.131  52.904  1.00  0.00     0.128 C 
HETATM    6  N2  UNL     1      25.821   0.351  53.493  1.00  0.00    -0.391 N 
HETATM    7  C9  UNL     1      27.060   0.156  52.831  1.00  0.00     0.037 C 
HETATM    8  C11 UNL     1      27.017   1.253  52.136  1.00  0.00     0.162 C 
HETATM    9  N3  UNL     1      27.106   2.368  51.344  1.00  0.00    -0.073 NA
HETATM   10  C12 UNL     1      26.020   3.108  51.237  1.00  0.00     0.728 C 
HETATM   11  N7  UNL     1      24.856   2.763  51.893  1.00  0.00    -0.051 NA
HETATM   12  C17 UNL     1      23.865   3.387  52.319  1.00  0.00     0.273 C 
HETATM   13  O1  UNL     1      22.804   2.724  52.969  1.00  0.00    -0.319 OA
HETATM   14  C18 UNL     1      22.639   1.353  52.672  1.00  0.00     0.232 C 
HETATM   15  H17 UNL     1      26.053   0.843  54.391  1.00  0.00     0.159 HD
ENDROOT
BRANCH  10  16
HETATM   16  N4  UNL     1      26.246   4.209  50.407  1.00  0.00    -0.185 N 
HETATM   17  H21 UNL     1      27.227   4.236  50.061  1.00  0.00     0.184 HD
BRANCH  16  18
HETATM   18  C13 UNL     1      25.284   5.183  50.061  1.00  0.00     0.085 A 
HETATM   19  C14 UNL     1      24.406   4.950  49.028  1.00  0.00     0.170 A 
HETATM   20  N5  UNL     1      23.554   5.966  48.819  1.00  0.00    -0.183 NA
HETATM   21  N6  UNL     1      23.858   6.888  49.716  1.00  0.00    -0.283 N 
HETATM   22  C15 UNL     1      23.200   8.160  49.871  1.00  0.00     0.179 C 
HETATM   23  C16 UNL     1      24.898   6.435  50.475  1.00  0.00     0.143 A 
ENDBRANCH  16  18
ENDBRANCH  10  16
BRANCH   7  24
HETATM   24  C10 UNL     1      27.840  -1.042  53.135  1.00  0.00     0.172 C 
HETATM   25 CL1  UNL     1      29.543  -0.673  53.517  1.00  0.00    -0.124 Cl
ENDBRANCH   7  24
BRANCH   1  26
HETATM   26  C3  UNL     1      20.523   0.976  51.547  1.00  0.00     0.077 C 
HETATM   27  C4  UNL     1      21.345   0.575  50.342  1.00  0.00     0.032 C 
BRANCH  26  28
HETATM   28  C2  UNL     1      19.369   0.012  51.766  1.00  0.00     0.020 C 
HETATM   29  C1  UNL     1      18.187   0.309  50.873  1.00  0.00     0.007 C 
ENDBRANCH  26  28
ENDBRANCH   1  26
TORSDOF 5
ENDMDL
MODEL 4
REMARK VINA RESULT:      -7.5      2.941      4.438
REMARK  5 active torsions:
REMARK  status: ('A' for Active; 'I' for Inactive)
REMARK    1  A    between atoms: C2_2  and  C3_3 
REMARK    2  A    between atoms: C3_3  and  N1_5 
REMARK    3  A    between atoms: C9_11  and  C10_12 
REMARK    4  A    between atoms: C12_16  and  N4_17 
REMARK    5  A    between atoms: N4_17  and  C13_18 
ROOT
HETATM    1  N1  UNL     1      23.727   1.148  53.069  1.00  0.00    -0.383 N 
HETATM    2  C5  UNL     1      24.833   0.250  53.063  1.00  0.00     0.120 C 
HETATM    3  C6  UNL     1      25.853   0.834  52.096  1.00  0.00     0.030 C 
HETATM    4  C7  UNL     1      25.551   2.304  52.102  1.00  0.00     0.054 C 
HETATM    5  C8  UNL     1      25.689   2.846  50.710  1.00  0.00     0.128 C 
HETATM    6  N2  UNL     1      26.482   4.083  50.700  1.00  0.00    -0.391 N 
HETATM    7  C9  UNL     1      26.535   4.908  49.546  1.00  0.00     0.037 C 
HETATM    8  C11 UNL     1      25.497   5.629  49.848  1.00  0.00     0.162 C 
HETATM    9  N3  UNL     1      24.427   6.465  50.036  1.00  0.00    -0.073 NA
HETATM   10  C12 UNL     1      23.587   6.146  51.000  1.00  0.00     0.728 C 
HETATM   11  N7  UNL     1      23.785   5.020  51.773  1.00  0.00    -0.051 NA
HETATM   12  C17 UNL     1      23.464   4.674  52.926  1.00  0.00     0.273 C 
HETATM   13  O1  UNL     1      23.831   3.415  53.445  1.00  0.00    -0.319 OA
HETATM   14  C18 UNL     1      24.093   2.397  52.502  1.00  0.00     0.232 C 
HETATM   15  H17 UNL     1      27.101   4.546  51.410  1.00  0.00     0.159 HD
ENDROOT
BRANCH  10  16
HETATM   16  N4  UNL     1      22.548   7.077  51.085  1.00  0.00    -0.185 N 
HETATM   17  H21 UNL     1      22.757   7.825  51.779  1.00  0.00     0.184 HD
BRANCH  16  18
HETATM   18  C13 UNL     1      21.351   7.039  50.336  1.00  0.00     0.085 A 
HETATM   19  C14 UNL     1      20.660   8.199  50.079  1.00  0.00     0.170 A 
HETATM   20  N5  UNL     1      19.546   8.001  49.357  1.00  0.00    -0.183 NA
HETATM   21  N6  UNL     1      19.486   6.702  49.127  1.00  0.00    -0.283 N 
HETATM   22  C15 UNL     1      18.453   6.026  48.383  1.00  0.00     0.179 C 
HETATM   23  C16 UNL     1      20.566   6.103  49.709  1.00  0.00     0.143 A 
ENDBRANCH  16  18
ENDBRANCH  10  16
BRANCH   7  24
HETATM   24  C10 UNL     1      27.600   4.686  48.571  1.00  0.00     0.172 C 
HETATM   25 CL1  UNL     1      28.384   6.204  48.057  1.00  0.00    -0.124 Cl
ENDBRANCH   7  24
BRANCH   1  26
HETATM   26  C3  UNL     1      22.467   0.608  52.712  1.00  0.00     0.077 C 
HETATM   27  C4  UNL     1      22.106   0.794  51.256  1.00  0.00     0.032 C 
BRANCH  26  28
HETATM   28  C2  UNL     1      22.486  -0.865  53.087  1.00  0.00     0.020 C 
HETATM   29  C1  UNL     1      21.660  -1.161  54.317  1.00  0.00     0.007 C 
ENDBRANCH  26  28
ENDBRANCH   1  26
TORSDOF 5
ENDMDL
MODEL 5
REMARK VINA RESULT:      -7.5      2.079      5.731
REMARK  5 active torsions:
REMARK  status: ('A' for Active; 'I' for Inactive)
REMARK    1  A    between atoms: C2_2  and  C3_3 
REMARK    2  A    between atoms: C3_3  and  N1_5 
REMARK    3  A    between atoms: C9_11  and  C10_12 
REMARK    4  A    between atoms: C12_16  and  N4_17 
REMARK    5  A    between atoms: N4_17  and  C13_18 
ROOT
HETATM    1  N1  UNL     1      24.195   3.722  50.609  1.00  0.00    -0.383 N 
HETATM    2  C5  UNL     1      25.279   4.199  49.818  1.00  0.00     0.120 C 
HETATM    3  C6  UNL     1      26.535   3.540  50.369  1.00  0.00     0.030 C 
HETATM    4  C7  UNL     1      26.028   2.277  51.002  1.00  0.00     0.054 C 
HETATM    5  C8  UNL     1      26.772   2.028  52.281  1.00  0.00     0.128 C 
HETATM    6  N2  UNL     1      27.230   0.635  52.363  1.00  0.00    -0.391 N 
HETATM    7  C9  UNL     1      27.731   0.101  53.579  1.00  0.00     0.037 C 
HETATM    8  C11 UNL     1      26.581  -0.299  54.034  1.00  0.00     0.162 C 
HETATM    9  N3  UNL     1      25.444  -0.770  54.638  1.00  0.00    -0.073 NA
HETATM   10  C12 UNL     1      24.295  -0.411  54.101  1.00  0.00     0.728 C 
HETATM   11  N7  UNL     1      24.253   0.401  52.987  1.00  0.00    -0.051 NA
HETATM   12  C17 UNL     1      23.446   0.579  52.054  1.00  0.00     0.273 C 
HETATM   13  O1  UNL     1      23.701   1.514  51.030  1.00  0.00    -0.319 OA
HETATM   14  C18 UNL     1      24.582   2.571  51.346  1.00  0.00     0.232 C 
HETATM   15  H17 UNL     1      27.303  -0.142  51.659  1.00  0.00     0.159 HD
ENDROOT
BRANCH  10  16
HETATM   16  N4  UNL     1      23.222  -0.959  54.808  1.00  0.00    -0.185 N 
HETATM   17  H21 UNL     1      23.538  -1.460  55.663  1.00  0.00     0.184 HD
BRANCH  16  18
HETATM   18  C13 UNL     1      21.862  -0.861  54.436  1.00  0.00     0.085 A 
HETATM   19  C14 UNL     1      21.201   0.340  54.547  1.00  0.00     0.170 A 
HETATM   20  N5  UNL     1      19.918   0.274  54.155  1.00  0.00    -0.183 NA
HETATM   21  N6  UNL     1      19.715  -0.976  53.779  1.00  0.00    -0.283 N 
HETATM   22  C15 UNL     1      18.475  -1.512  53.278  1.00  0.00     0.179 C 
HETATM   23  C16 UNL     1      20.875  -1.676  53.940  1.00  0.00     0.143 A 
ENDBRANCH  16  18
ENDBRANCH  10  16
BRANCH   7  24
HETATM   24  C10 UNL     1      29.166   0.172  53.841  1.00  0.00     0.172 C 
HETATM   25 CL1  UNL     1      29.992  -1.384  53.562  1.00  0.00    -0.124 Cl
ENDBRANCH   7  24
BRANCH   1  26
HETATM   26  C3  UNL     1      23.415   4.698  51.277  1.00  0.00     0.077 C 
HETATM   27  C4  UNL     1      23.499   4.629  52.786  1.00  0.00     0.032 C 
BRANCH  26  28
HETATM   28  C2  UNL     1      23.864   6.058  50.767  1.00  0.00     0.020 C 
HETATM   29  C1  UNL     1      22.722   7.042  50.657  1.00  0.00     0.007 C 
ENDBRANCH  26  28
ENDBRANCH   1  26
TORSDOF 5
ENDMDL
MODEL 6
REMARK VINA RESULT:      -7.4      3.091      7.054
REMARK  5 active torsions:
REMARK  status: ('A' for Active; 'I' for Inactive)
REMARK    1  A    between atoms: C2_2  and  C3_3 
REMARK    2  A    between atoms: C3_3  and  N1_5 
REMARK    3  A    between atoms: C9_11  and  C10_12 
REMARK    4  A    between atoms: C12_16  and  N4_17 
REMARK    5  A    between atoms: N4_17  and  C13_18 
ROOT
HETATM    1  N1  UNL     1      24.335   5.242  50.892  1.00  0.00    -0.383 N 
HETATM    2  C5  UNL     1      23.441   6.270  50.474  1.00  0.00     0.120 C 
HETATM    3  C6  UNL     1      22.047   5.663  50.505  1.00  0.00     0.030 C 
HETATM    4  C7  UNL     1      22.157   4.563  51.519  1.00  0.00     0.054 C 
HETATM    5  C8  UNL     1      21.372   3.373  51.051  1.00  0.00     0.128 C 
HETATM    6  N2  UNL     1      20.522   2.844  52.126  1.00  0.00    -0.391 N 
HETATM    7  C9  UNL     1      19.884   1.583  52.000  1.00  0.00     0.037 C 
HETATM    8  C11 UNL     1      20.864   0.886  52.495  1.00  0.00     0.162 C 
HETATM    9  N3  UNL     1      21.811   0.028  52.992  1.00  0.00    -0.073 NA
HETATM   10  C12 UNL     1      23.015   0.526  53.193  1.00  0.00     0.728 C 
HETATM   11  N7  UNL     1      23.296   1.847  52.909  1.00  0.00    -0.051 NA
HETATM   12  C17 UNL     1      24.120   2.683  53.327  1.00  0.00     0.273 C 
HETATM   13  O1  UNL     1      24.155   3.998  52.819  1.00  0.00    -0.319 OA
HETATM   14  C18 UNL     1      23.625   4.187  51.524  1.00  0.00     0.232 C 
HETATM   15  H17 UNL     1      20.223   3.222  53.060  1.00  0.00     0.159 HD
ENDROOT
BRANCH  10  16
HETATM   16  N4  UNL     1      23.878  -0.448  53.702  1.00  0.00    -0.185 N 
HETATM   17  H21 UNL     1      23.359  -1.285  54.040  1.00  0.00     0.184 HD
BRANCH  16  18
HETATM   18  C13 UNL     1      25.285  -0.342  53.764  1.00  0.00     0.085 A 
HETATM   19  C14 UNL     1      26.046  -0.587  52.645  1.00  0.00     0.170 A 
HETATM   20  N5  UNL     1      27.364  -0.445  52.861  1.00  0.00    -0.183 NA
HETATM   21  N6  UNL     1      27.490  -0.103  54.131  1.00  0.00    -0.283 N 
HETATM   22  C15 UNL     1      28.734   0.157  54.810  1.00  0.00     0.179 C 
HETATM   23  C16 UNL     1      26.249  -0.035  54.693  1.00  0.00     0.143 A 
ENDBRANCH  16  18
ENDBRANCH  10  16
BRANCH   7  24
HETATM   24  C10 UNL     1      18.534   1.528  51.445  1.00  0.00     0.172 C 
HETATM   25 CL1  UNL     1      17.629   3.044  51.696  1.00  0.00    -0.124 Cl
ENDBRANCH   7  24
BRANCH   1  26
HETATM   26  C3  UNL     1      25.368   4.890  49.989  1.00  0.00     0.077 C 
HETATM   27  C4  UNL     1      25.229   3.503  49.402  1.00  0.00     0.032 C 
BRANCH  26  28
HETATM   28  C2  UNL     1      25.390   5.946  48.896  1.00  0.00     0.020 C 
HETATM   29  C1  UNL     1      26.793   6.347  48.504  1.00  0.00     0.007 C 
ENDBRANCH  26  28
ENDBRANCH   1  26
TORSDOF 5
ENDMDL
MODEL 7
REMARK VINA RESULT:      -7.1      2.916      5.211
REMARK  5 active torsions:
REMARK  status: ('A' for Active; 'I' for Inactive)
REMARK    1  A    between atoms: C2_2  and  C3_3 
REMARK    2  A    between atoms: C3_3  and  N1_5 
REMARK    3  A    between atoms: C9_11  and  C10_12 
REMARK    4  A    between atoms: C12_16  and  N4_17 
REMARK    5  A    between atoms: N4_17  and  C13_18 
ROOT
HETATM    1  N1  UNL     1      26.256   0.257  53.125  1.00  0.00    -0.383 N 
HETATM    2  C5  UNL     1      25.386  -0.825  53.443  1.00  0.00     0.120 C 
HETATM    3  C6  UNL     1      23.968  -0.300  53.275  1.00  0.00     0.030 C 
HETATM    4  C7  UNL     1      24.116   0.818  52.285  1.00  0.00     0.054 C 
HETATM    5  C8  UNL     1      23.219   1.954  52.679  1.00  0.00     0.128 C 
HETATM    6  N2  UNL     1      22.452   2.447  51.526  1.00  0.00    -0.391 N 
HETATM    7  C9  UNL     1      21.732   3.667  51.596  1.00  0.00     0.037 C 
HETATM    8  C11 UNL     1      22.714   4.426  51.209  1.00  0.00     0.162 C 
HETATM    9  N3  UNL     1      23.654   5.343  50.816  1.00  0.00    -0.073 NA
HETATM   10  C12 UNL     1      24.899   4.919  50.736  1.00  0.00     0.728 C 
HETATM   11  N7  UNL     1      25.228   3.613  51.037  1.00  0.00    -0.051 NA
HETATM   12  C17 UNL     1      26.138   2.832  50.700  1.00  0.00     0.273 C 
HETATM   13  O1  UNL     1      26.198   1.514  51.199  1.00  0.00    -0.319 OA
HETATM   14  C18 UNL     1      25.552   1.278  52.432  1.00  0.00     0.232 C 
HETATM   15  H17 UNL     1      22.272   2.064  50.565  1.00  0.00     0.159 HD
ENDROOT
BRANCH  10  16
HETATM   16  N4  UNL     1      25.751   5.948  50.324  1.00  0.00    -0.185 N 
HETATM   17  H21 UNL     1      26.464   6.172  51.048  1.00  0.00     0.184 HD
BRANCH  16  18
HETATM   18  C13 UNL     1      25.680   6.621  49.084  1.00  0.00     0.085 A 
HETATM   19  C14 UNL     1      26.833   7.026  48.452  1.00  0.00     0.170 A 
HETATM   20  N5  UNL     1      26.603   7.650  47.285  1.00  0.00    -0.183 NA
HETATM   21  N6  UNL     1      25.291   7.666  47.132  1.00  0.00    -0.283 N 
HETATM   22  C15 UNL     1      24.583   8.236  46.014  1.00  0.00     0.179 C 
HETATM   23  C16 UNL     1      24.717   7.050  48.205  1.00  0.00     0.143 A 
ENDBRANCH  16  18
ENDBRANCH  10  16
BRANCH   7  24
HETATM   24  C10 UNL     1      20.332   3.636  52.011  1.00  0.00     0.172 C 
HETATM   25 CL1  UNL     1      19.690   1.977  52.135  1.00  0.00    -0.124 Cl
ENDBRANCH   7  24
BRANCH   1  26
HETATM   26  C3  UNL     1      27.169   0.657  54.132  1.00  0.00     0.077 C 
HETATM   27  C4  UNL     1      28.486  -0.085  54.100  1.00  0.00     0.032 C 
BRANCH  26  28
HETATM   28  C2  UNL     1      27.383   2.155  53.977  1.00  0.00     0.020 C 
HETATM   29  C1  UNL     1      28.812   2.504  53.632  1.00  0.00     0.007 C 
ENDBRANCH  26  28
ENDBRANCH   1  26
TORSDOF 5
ENDMDL
MODEL 8
REMARK VINA RESULT:      -7.0      2.419      5.354
REMARK  5 active torsions:
REMARK  status: ('A' for Active; 'I' for Inactive)
REMARK    1  A    between atoms: C2_2  and  C3_3 
REMARK    2  A    between atoms: C3_3  and  N1_5 
REMARK    3  A    between atoms: C9_11  and  C10_12 
REMARK    4  A    between atoms: C12_16  and  N4_17 
REMARK    5  A    between atoms: N4_17  and  C13_18 
ROOT
HETATM    1  N1  UNL     1      25.732   0.716  53.837  1.00  0.00    -0.383 N 
HETATM    2  C5  UNL     1      27.123   0.751  54.142  1.00  0.00     0.120 C 
HETATM    3  C6  UNL     1      27.777   1.604  53.066  1.00  0.00     0.030 C 
HETATM    4  C7  UNL     1      26.669   2.501  52.597  1.00  0.00     0.054 C 
HETATM    5  C8  UNL     1      26.758   2.666  51.108  1.00  0.00     0.128 C 
HETATM    6  N2  UNL     1      26.639   4.080  50.725  1.00  0.00    -0.391 N 
HETATM    7  C9  UNL     1      26.443   4.456  49.371  1.00  0.00     0.037 C 
HETATM    8  C11 UNL     1      25.145   4.403  49.404  1.00  0.00     0.162 C 
HETATM    9  N3  UNL     1      23.779   4.387  49.290  1.00  0.00    -0.073 NA
HETATM   10  C12 UNL     1      23.107   3.843  50.285  1.00  0.00     0.728 C 
HETATM   11  N7  UNL     1      23.760   3.315  51.380  1.00  0.00    -0.051 NA
HETATM   12  C17 UNL     1      23.465   3.123  52.575  1.00  0.00     0.273 C 
HETATM   13  O1  UNL     1      24.384   2.545  53.476  1.00  0.00    -0.319 OA
HETATM   14  C18 UNL     1      25.397   1.740  52.912  1.00  0.00     0.232 C 
HETATM   15  H17 UNL     1      26.689   4.979  51.267  1.00  0.00     0.159 HD
ENDROOT
BRANCH  10  16
HETATM   16  N4  UNL     1      21.731   3.894  50.046  1.00  0.00    -0.185 N 
HETATM   17  H21 UNL     1      21.441   4.817  49.663  1.00  0.00     0.184 HD
BRANCH  16  18
HETATM   18  C13 UNL     1      20.820   2.841  50.282  1.00  0.00     0.085 A 
HETATM   19  C14 UNL     1      20.438   2.014  49.251  1.00  0.00     0.170 A 
HETATM   20  N5  UNL     1      19.570   1.063  49.631  1.00  0.00    -0.183 NA
HETATM   21  N6  UNL     1      19.367   1.250  50.923  1.00  0.00    -0.283 N 
HETATM   22  C15 UNL     1      18.503   0.457  51.761  1.00  0.00     0.179 C 
HETATM   23  C16 UNL     1      20.112   2.317  51.335  1.00  0.00     0.143 A 
ENDBRANCH  16  18
ENDBRANCH  10  16
BRANCH   7  24
HETATM   24  C10 UNL     1      27.612   4.740  48.543  1.00  0.00     0.172 C 
HETATM   25 CL1  UNL     1      27.781   6.476  48.169  1.00  0.00    -0.124 Cl
ENDBRANCH   7  24
BRANCH   1  26
HETATM   26  C3  UNL     1      25.155  -0.563  53.639  1.00  0.00     0.077 C 
HETATM   27  C4  UNL     1      26.077  -1.560  52.975  1.00  0.00     0.032 C 
BRANCH  26  28
HETATM   28  C2  UNL     1      24.696  -1.064  54.999  1.00  0.00     0.020 C 
HETATM   29  C1  UNL     1      23.194  -1.205  55.088  1.00  0.00     0.007 C 
ENDBRANCH  26  28
ENDBRANCH   1  26
TORSDOF 5
ENDMDL
MODEL 9
REMARK VINA RESULT:      -6.9      4.250      6.655
REMARK  5 active torsions:
REMARK  status: ('A' for Active; 'I' for Inactive)
REMARK    1  A    between atoms: C2_2  and  C3_3 
REMARK    2  A    between atoms: C3_3  and  N1_5 
REMARK    3  A    between atoms: C9_11  and  C10_12 
REMARK    4  A    between atoms: C12_16  and  N4_17 
REMARK    5  A    between atoms: N4_17  and  C13_18 
ROOT
HETATM    1  N1  UNL     1      23.844   2.191  50.882  1.00  0.00    -0.383 N 
HETATM    2  C5  UNL     1      22.596   1.611  50.518  1.00  0.00     0.120 C 
HETATM    3  C6  UNL     1      21.643   2.769  50.259  1.00  0.00     0.030 C 
HETATM    4  C7  UNL     1      22.551   3.901  49.879  1.00  0.00     0.054 C 
HETATM    5  C8  UNL     1      22.042   5.174  50.488  1.00  0.00     0.128 C 
HETATM    6  N2  UNL     1      22.013   6.259  49.498  1.00  0.00    -0.391 N 
HETATM    7  C9  UNL     1      21.810   7.606  49.895  1.00  0.00     0.037 C 
HETATM    8  C11 UNL     1      23.065   7.880  50.091  1.00  0.00     0.162 C 
HETATM    9  N3  UNL     1      24.343   8.309  50.338  1.00  0.00    -0.073 NA
HETATM   10  C12 UNL     1      25.282   7.384  50.379  1.00  0.00     0.728 C 
HETATM   11  N7  UNL     1      24.978   6.052  50.184  1.00  0.00    -0.051 NA
HETATM   12  C17 UNL     1      25.603   5.055  49.774  1.00  0.00     0.273 C 
HETATM   13  O1  UNL     1      24.991   3.788  49.687  1.00  0.00    -0.319 OA
HETATM   14  C18 UNL     1      23.879   3.566  50.529  1.00  0.00     0.232 C 
HETATM   15  H17 UNL     1      22.097   6.281  48.451  1.00  0.00     0.159 HD
ENDROOT
BRANCH  10  16
HETATM   16  N4  UNL     1      26.532   7.953  50.634  1.00  0.00    -0.185 N 
HETATM   17  H21 UNL     1      26.829   7.806  51.621  1.00  0.00     0.184 HD
BRANCH  16  18
HETATM   18  C13 UNL     1      27.322   8.648  49.692  1.00  0.00     0.085 A 
HETATM   19  C14 UNL     1      27.964   7.961  48.688  1.00  0.00     0.170 A 
HETATM   20  N5  UNL     1      28.674   8.758  47.873  1.00  0.00    -0.183 NA
HETATM   21  N6  UNL     1      28.510   9.986  48.330  1.00  0.00    -0.283 N 
HETATM   22  C15 UNL     1      29.089  11.178  47.764  1.00  0.00     0.179 C 
HETATM   23  C16 UNL     1      27.698   9.942  49.426  1.00  0.00     0.143 A 
ENDBRANCH  16  18
ENDBRANCH  10  16
BRANCH   7  24
HETATM   24  C10 UNL     1      20.448   8.133  49.927  1.00  0.00     0.172 C 
HETATM   25 CL1  UNL     1      20.369   9.856  49.473  1.00  0.00    -0.124 Cl
ENDBRANCH   7  24
BRANCH   1  26
HETATM   26  C3  UNL     1      24.373   1.824  52.145  1.00  0.00     0.077 C 
HETATM   27  C4  UNL     1      24.424   2.956  53.146  1.00  0.00     0.032 C 
BRANCH  26  28
HETATM   28  C2  UNL     1      23.532   0.670  52.667  1.00  0.00     0.020 C 
HETATM   29  C1  UNL     1      24.355  -0.358  53.409  1.00  0.00     0.007 C 
ENDBRANCH  26  28
ENDBRANCH   1  26
TORSDOF 5
ENDMDL
