MODEL 1
REMARK VINA RESULT:      -7.1      0.000      0.000
REMARK  5 active torsions:
REMARK  status: ('A' for Active; 'I' for Inactive)
REMARK    1  A    between atoms: C4_5  and  C5_6 
REMARK    2  A    between atoms: C4_5  and  C8_11 
REMARK    3  A    between atoms: C5_6  and  C6_7 
REMARK    4  A    between atoms: C6_7  and  C7_8 
REMARK    5  A    between atoms: C7_8  and  O2_10 
ROOT
HETATM    1  C1  UNL     1      21.388   0.861  49.622  1.00  0.00     0.048 C 
HETATM    2  C2  UNL     1      22.340   2.008  49.506  1.00  0.00    -0.036 A 
HETATM    3  C3  UNL     1      22.779   2.502  48.348  1.00  0.00     0.089 A 
HETATM    4  N1  UNL     1      23.537   3.445  49.086  1.00  0.00    -0.381 N 
HETATM    5  C4  UNL     1      23.130   2.970  50.363  1.00  0.00     0.084 A 
HETATM    6  H5  UNL     1      24.184   4.236  49.114  1.00  0.00     0.160 HD
ENDROOT
BRANCH   5   7
HETATM    7  C5  UNL     1      22.250   3.850  51.215  1.00  0.00     0.051 C 
BRANCH   7   8
HETATM    8  C6  UNL     1      23.180   4.660  52.104  1.00  0.00     0.113 C 
BRANCH   8   9
HETATM    9  C7  UNL     1      23.486   5.979  51.499  1.00  0.00     0.139 C 
HETATM   10  O1  UNL     1      22.934   6.336  50.414  1.00  0.00    -0.650 OA
BRANCH   9  11
HETATM   11  O2  UNL     1      24.396   6.777  52.176  1.00  0.00    -0.776 OA
HETATM   12  H10 UNL     1      24.574   7.730  51.833  1.00  0.00     0.167 HD
ENDBRANCH   9  11
ENDBRANCH   8   9
ENDBRANCH   7   8
ENDBRANCH   5   7
BRANCH   5  13
HETATM   13  C8  UNL     1      24.178   2.308  51.172  1.00  0.00     0.007 A 
HETATM   14  C9  UNL     1      25.465   2.649  51.021  1.00  0.00     0.087 A 
HETATM   15  C10 UNL     1      26.354   1.882  51.909  1.00  0.00     0.248 A 
HETATM   16  O3  UNL     1      27.603   1.958  52.016  1.00  0.00    -0.268 OA
HETATM   17  N2  UNL     1      25.504   1.018  52.644  1.00  0.00    -0.310 N 
HETATM   18  C11 UNL     1      25.802   0.023  53.655  1.00  0.00     0.161 A 
HETATM   19  C15 UNL     1      24.172   1.275  52.195  1.00  0.00     0.048 A 
HETATM   20  C12 UNL     1      24.569  -0.644  54.157  1.00  0.00     0.012 A 
HETATM   21  C13 UNL     1      23.356  -0.378  53.731  1.00  0.00     0.011 A 
HETATM   22 BR1  UNL     1      21.906  -1.343  54.499  1.00  0.00    -0.051 Br
HETATM   23  C14 UNL     1      23.150   0.630  52.701  1.00  0.00     0.049 A 
ENDBRANCH   5  13
TORSDOF 5
ENDMDL
MODEL 2
REMARK VINA RESULT:      -7.0      2.182      5.232
REMARK  5 active torsions:
REMARK  status: ('A' for Active; 'I' for Inactive)
REMARK    1  A    between atoms: C4_5  and  C5_6 
REMARK    2  A    between atoms: C4_5  and  C8_11 
REMARK    3  A    between atoms: C5_6  and  C6_7 
REMARK    4  A    between atoms: C6_7  and  C7_8 
REMARK    5  A    between atoms: C7_8  and  O2_10 
ROOT
HETATM    1  C1  UNL     1      26.697  -1.713  52.697  1.00  0.00     0.048 C 
HETATM    2  C2  UNL     1      26.478  -0.410  53.399  1.00  0.00    -0.036 A 
HETATM    3  C3  UNL     1      26.308  -0.290  54.715  1.00  0.00     0.089 A 
HETATM    4  N1  UNL     1      26.188   1.109  54.529  1.00  0.00    -0.381 N 
HETATM    5  C4  UNL     1      26.347   1.068  53.116  1.00  0.00     0.084 A 
HETATM    6  H5  UNL     1      26.049   2.047  54.913  1.00  0.00     0.160 HD
ENDROOT
BRANCH   5   7
HETATM    7  C5  UNL     1      27.594   1.660  52.511  1.00  0.00     0.051 C 
BRANCH   7   8
HETATM    8  C6  UNL     1      28.239   2.510  53.594  1.00  0.00     0.113 C 
BRANCH   8   9
HETATM    9  C7  UNL     1      29.423   1.830  54.175  1.00  0.00     0.139 C 
HETATM   10  O1  UNL     1      29.727   0.650  53.824  1.00  0.00    -0.650 OA
BRANCH   9  11
HETATM   11  O2  UNL     1      30.155   2.548  55.109  1.00  0.00    -0.776 OA
HETATM   12  H10 UNL     1      31.171   2.637  54.983  1.00  0.00     0.167 HD
ENDBRANCH   9  11
ENDBRANCH   8   9
ENDBRANCH   7   8
ENDBRANCH   5   7
BRANCH   5  13
HETATM   13  C8  UNL     1      25.146   1.407  52.319  1.00  0.00     0.007 A 
HETATM   14  C9  UNL     1      25.228   2.293  51.317  1.00  0.00     0.087 A 
HETATM   15  C10 UNL     1      23.934   2.498  50.646  1.00  0.00     0.248 A 
HETATM   16  O3  UNL     1      23.669   3.253  49.678  1.00  0.00    -0.268 OA
HETATM   17  N2  UNL     1      23.018   1.652  51.320  1.00  0.00    -0.310 N 
HETATM   18  C11 UNL     1      21.599   1.432  51.118  1.00  0.00     0.161 A 
HETATM   19  C15 UNL     1      23.756   0.983  52.345  1.00  0.00     0.048 A 
HETATM   20  C12 UNL     1      21.052   0.431  52.075  1.00  0.00     0.012 A 
HETATM   21  C13 UNL     1      21.759  -0.174  53.001  1.00  0.00     0.011 A 
HETATM   22 BR1  UNL     1      20.872  -1.424  54.131  1.00  0.00    -0.051 Br
HETATM   23  C14 UNL     1      23.178   0.117  53.140  1.00  0.00     0.049 A 
ENDBRANCH   5  13
TORSDOF 5
ENDMDL
MODEL 3
REMARK VINA RESULT:      -6.7      3.914      6.300
REMARK  5 active torsions:
REMARK  status: ('A' for Active; 'I' for Inactive)
REMARK    1  A    between atoms: C4_5  and  C5_6 
REMARK    2  A    between atoms: C4_5  and  C8_11 
REMARK    3  A    between atoms: C5_6  and  C6_7 
REMARK    4  A    between atoms: C6_7  and  C7_8 
REMARK    5  A    between atoms: C7_8  and  O2_10 
ROOT
HETATM    1  C1  UNL     1      26.595   2.568  54.071  1.00  0.00     0.048 C 
HETATM    2  C2  UNL     1      26.281   1.507  53.066  1.00  0.00    -0.036 A 
HETATM    3  C3  UNL     1      26.495   1.631  51.757  1.00  0.00     0.089 A 
HETATM    4  N1  UNL     1      25.977   0.323  51.591  1.00  0.00    -0.381 N 
HETATM    5  C4  UNL     1      25.703   0.114  52.971  1.00  0.00     0.084 A 
HETATM    6  H5  UNL     1      25.731  -0.465  50.986  1.00  0.00     0.160 HD
ENDROOT
BRANCH   5   7
HETATM    7  C5  UNL     1      26.516  -0.908  53.724  1.00  0.00     0.051 C 
BRANCH   7   8
HETATM    8  C6  UNL     1      27.101  -1.848  52.682  1.00  0.00     0.113 C 
BRANCH   8   9
HETATM    9  C7  UNL     1      28.481  -2.256  53.042  1.00  0.00     0.139 C 
HETATM   10  O1  UNL     1      29.420  -1.404  53.068  1.00  0.00    -0.650 OA
BRANCH   9  11
HETATM   11  O2  UNL     1      28.676  -3.597  53.337  1.00  0.00    -0.776 OA
HETATM   12  H10 UNL     1      27.911  -4.261  53.161  1.00  0.00     0.167 HD
ENDBRANCH   9  11
ENDBRANCH   8   9
ENDBRANCH   7   8
ENDBRANCH   5   7
BRANCH   5  13
HETATM   13  C8  UNL     1      24.272   0.048  53.344  1.00  0.00     0.007 A 
HETATM   14  C9  UNL     1      23.835  -0.904  54.181  1.00  0.00     0.087 A 
HETATM   15  C10 UNL     1      22.387  -0.807  54.430  1.00  0.00     0.248 A 
HETATM   16  O3  UNL     1      21.671  -1.536  55.159  1.00  0.00    -0.268 OA
HETATM   17  N2  UNL     1      21.945   0.304  53.668  1.00  0.00    -0.310 N 
HETATM   18  C11 UNL     1      20.624   0.879  53.503  1.00  0.00     0.161 A 
HETATM   19  C15 UNL     1      23.094   0.829  53.002  1.00  0.00     0.048 A 
HETATM   20  C12 UNL     1      20.643   2.061  52.598  1.00  0.00     0.012 A 
HETATM   21  C13 UNL     1      21.720   2.526  52.008  1.00  0.00     0.011 A 
HETATM   22 BR1  UNL     1      21.537   4.051  50.884  1.00  0.00    -0.051 Br
HETATM   23  C14 UNL     1      23.005   1.877  52.222  1.00  0.00     0.049 A 
ENDBRANCH   5  13
TORSDOF 5
ENDMDL
MODEL 4
REMARK VINA RESULT:      -6.7      3.492      5.464
REMARK  5 active torsions:
REMARK  status: ('A' for Active; 'I' for Inactive)
REMARK    1  A    between atoms: C4_5  and  C5_6 
REMARK    2  A    between atoms: C4_5  and  C8_11 
REMARK    3  A    between atoms: C5_6  and  C6_7 
REMARK    4  A    between atoms: C6_7  and  C7_8 
REMARK    5  A    between atoms: C7_8  and  O2_10 
ROOT
HETATM    1  C1  UNL     1      23.809   3.996  53.324  1.00  0.00     0.048 C 
HETATM    2  C2  UNL     1      24.042   2.845  52.397  1.00  0.00    -0.036 A 
HETATM    3  C3  UNL     1      24.019   2.940  51.068  1.00  0.00     0.089 A 
HETATM    4  N1  UNL     1      24.305   1.553  51.007  1.00  0.00    -0.381 N 
HETATM    5  C4  UNL     1      24.333   1.363  52.416  1.00  0.00     0.084 A 
HETATM    6  H5  UNL     1      24.482   0.707  50.460  1.00  0.00     0.160 HD
ENDROOT
BRANCH   5   7
HETATM    7  C5  UNL     1      25.648   1.034  53.076  1.00  0.00     0.051 C 
BRANCH   7   8
HETATM    8  C6  UNL     1      26.262  -0.103  52.275  1.00  0.00     0.113 C 
BRANCH   8   9
HETATM    9  C7  UNL     1      26.949  -1.073  53.161  1.00  0.00     0.139 C 
HETATM   10  O1  UNL     1      27.121  -2.275  52.792  1.00  0.00    -0.650 OA
BRANCH   9  11
HETATM   11  O2  UNL     1      27.377  -0.597  54.391  1.00  0.00    -0.776 OA
HETATM   12  H10 UNL     1      27.368   0.417  54.563  1.00  0.00     0.167 HD
ENDBRANCH   9  11
ENDBRANCH   8   9
ENDBRANCH   7   8
ENDBRANCH   5   7
BRANCH   5  13
HETATM   13  C8  UNL     1      23.228   0.557  52.982  1.00  0.00     0.007 A 
HETATM   14  C9  UNL     1      23.437  -0.216  54.057  1.00  0.00     0.087 A 
HETATM   15  C10 UNL     1      22.223  -0.939  54.470  1.00  0.00     0.248 A 
HETATM   16  O3  UNL     1      22.078  -1.736  55.428  1.00  0.00    -0.268 OA
HETATM   17  N2  UNL     1      21.217  -0.548  53.550  1.00  0.00    -0.310 N 
HETATM   18  C11 UNL     1      19.824  -0.936  53.441  1.00  0.00     0.161 A 
HETATM   19  C15 UNL     1      21.828   0.366  52.638  1.00  0.00     0.048 A 
HETATM   20  C12 UNL     1      19.146  -0.252  52.306  1.00  0.00     0.012 A 
HETATM   21  C13 UNL     1      19.733   0.593  51.490  1.00  0.00     0.011 A 
HETATM   22 BR1  UNL     1      18.691   1.363  50.096  1.00  0.00    -0.051 Br
HETATM   23  C14 UNL     1      21.142   0.916  51.667  1.00  0.00     0.049 A 
ENDBRANCH   5  13
TORSDOF 5
ENDMDL
MODEL 5
REMARK VINA RESULT:      -6.7      2.304      2.819
REMARK  5 active torsions:
REMARK  status: ('A' for Active; 'I' for Inactive)
REMARK    1  A    between atoms: C4_5  and  C5_6 
REMARK    2  A    between atoms: C4_5  and  C8_11 
REMARK    3  A    between atoms: C5_6  and  C6_7 
REMARK    4  A    between atoms: C6_7  and  C7_8 
REMARK    5  A    between atoms: C7_8  and  O2_10 
ROOT
HETATM    1  C1  UNL     1      20.799   1.519  49.353  1.00  0.00     0.048 C 
HETATM    2  C2  UNL     1      22.106   2.144  49.725  1.00  0.00    -0.036 A 
HETATM    3  C3  UNL     1      23.067   2.443  48.851  1.00  0.00     0.089 A 
HETATM    4  N1  UNL     1      23.839   2.935  49.933  1.00  0.00    -0.381 N 
HETATM    5  C4  UNL     1      22.873   2.634  50.932  1.00  0.00     0.084 A 
HETATM    6  H5  UNL     1      24.696   3.365  50.288  1.00  0.00     0.160 HD
ENDROOT
BRANCH   5   7
HETATM    7  C5  UNL     1      22.183   3.773  51.638  1.00  0.00     0.051 C 
BRANCH   7   8
HETATM    8  C6  UNL     1      23.267   4.551  52.365  1.00  0.00     0.113 C 
BRANCH   8   9
HETATM    9  C7  UNL     1      23.610   5.799  51.641  1.00  0.00     0.139 C 
HETATM   10  O1  UNL     1      23.237   5.972  50.441  1.00  0.00    -0.650 OA
BRANCH   9  11
HETATM   11  O2  UNL     1      24.351   6.740  52.340  1.00  0.00    -0.776 OA
HETATM   12  H10 UNL     1      25.344   6.552  52.527  1.00  0.00     0.167 HD
ENDBRANCH   9  11
ENDBRANCH   8   9
ENDBRANCH   7   8
ENDBRANCH   5   7
BRANCH   5  13
HETATM   13  C8  UNL     1      23.232   1.551  51.875  1.00  0.00     0.007 A 
HETATM   14  C9  UNL     1      22.334   0.609  52.197  1.00  0.00     0.087 A 
HETATM   15  C10 UNL     1      22.876  -0.377  53.147  1.00  0.00     0.248 A 
HETATM   16  O3  UNL     1      22.303  -1.377  53.644  1.00  0.00    -0.268 OA
HETATM   17  N2  UNL     1      24.211   0.031  53.397  1.00  0.00    -0.310 N 
HETATM   18  C11 UNL     1      25.234  -0.537  54.253  1.00  0.00     0.161 A 
HETATM   19  C15 UNL     1      24.432   1.210  52.622  1.00  0.00     0.048 A 
HETATM   20  C12 UNL     1      26.503   0.239  54.189  1.00  0.00     0.012 A 
HETATM   21  C13 UNL     1      26.679   1.315  53.457  1.00  0.00     0.011 A 
HETATM   22 BR1  UNL     1      28.380   2.168  53.513  1.00  0.00    -0.051 Br
HETATM   23  C14 UNL     1      25.590   1.823  52.636  1.00  0.00     0.049 A 
ENDBRANCH   5  13
TORSDOF 5
ENDMDL
MODEL 6
REMARK VINA RESULT:      -6.5      2.257      3.244
REMARK  5 active torsions:
REMARK  status: ('A' for Active; 'I' for Inactive)
REMARK    1  A    between atoms: C4_5  and  C5_6 
REMARK    2  A    between atoms: C4_5  and  C8_11 
REMARK    3  A    between atoms: C5_6  and  C6_7 
REMARK    4  A    between atoms: C6_7  and  C7_8 
REMARK    5  A    between atoms: C7_8  and  O2_10 
ROOT
HETATM    1  C1  UNL     1      21.581   3.901  52.337  1.00  0.00     0.048 C 
HETATM    2  C2  UNL     1      22.445   2.999  51.515  1.00  0.00    -0.036 A 
HETATM    3  C3  UNL     1      22.166   2.634  50.264  1.00  0.00     0.089 A 
HETATM    4  N1  UNL     1      23.365   1.878  50.262  1.00  0.00    -0.381 N 
HETATM    5  C4  UNL     1      23.729   2.207  51.597  1.00  0.00     0.084 A 
HETATM    6  H5  UNL     1      24.024   1.260  49.783  1.00  0.00     0.160 HD
ENDROOT
BRANCH   5   7
HETATM    7  C5  UNL     1      24.938   3.078  51.823  1.00  0.00     0.051 C 
BRANCH   7   8
HETATM    8  C6  UNL     1      25.947   2.707  50.749  1.00  0.00     0.113 C 
BRANCH   8   9
HETATM    9  C7  UNL     1      26.172   3.834  49.811  1.00  0.00     0.139 C 
HETATM   10  O1  UNL     1      25.199   4.362  49.191  1.00  0.00    -0.650 OA
BRANCH   9  11
HETATM   11  O2  UNL     1      27.481   4.261  49.656  1.00  0.00    -0.776 OA
HETATM   12  H10 UNL     1      28.233   3.560  49.625  1.00  0.00     0.167 HD
ENDBRANCH   9  11
ENDBRANCH   8   9
ENDBRANCH   7   8
ENDBRANCH   5   7
BRANCH   5  13
HETATM   13  C8  UNL     1      23.671   1.098  52.576  1.00  0.00     0.007 A 
HETATM   14  C9  UNL     1      24.782   0.697  53.210  1.00  0.00     0.087 A 
HETATM   15  C10 UNL     1      24.523  -0.414  54.140  1.00  0.00     0.248 A 
HETATM   16  O3  UNL     1      25.339  -1.016  54.881  1.00  0.00    -0.268 OA
HETATM   17  N2  UNL     1      23.135  -0.681  54.037  1.00  0.00    -0.310 N 
HETATM   18  C11 UNL     1      22.303  -1.667  54.698  1.00  0.00     0.161 A 
HETATM   19  C15 UNL     1      22.610   0.242  53.081  1.00  0.00     0.048 A 
HETATM   20  C12 UNL     1      20.880  -1.567  54.275  1.00  0.00     0.012 A 
HETATM   21  C13 UNL     1      20.426  -0.699  53.400  1.00  0.00     0.011 A 
HETATM   22 BR1  UNL     1      18.567  -0.731  52.989  1.00  0.00    -0.051 Br
HETATM   23  C14 UNL     1      21.336   0.249  52.774  1.00  0.00     0.049 A 
ENDBRANCH   5  13
TORSDOF 5
ENDMDL
MODEL 7
REMARK VINA RESULT:      -6.5      3.502      5.239
REMARK  5 active torsions:
REMARK  status: ('A' for Active; 'I' for Inactive)
REMARK    1  A    between atoms: C4_5  and  C5_6 
REMARK    2  A    between atoms: C4_5  and  C8_11 
REMARK    3  A    between atoms: C5_6  and  C6_7 
REMARK    4  A    between atoms: C6_7  and  C7_8 
REMARK    5  A    between atoms: C7_8  and  O2_10 
ROOT
HETATM    1  C1  UNL     1      21.177   0.614  49.600  1.00  0.00     0.048 C 
HETATM    2  C2  UNL     1      21.444   1.161  50.966  1.00  0.00    -0.036 A 
HETATM    3  C3  UNL     1      20.696   2.091  51.558  1.00  0.00     0.089 A 
HETATM    4  N1  UNL     1      21.562   2.016  52.677  1.00  0.00    -0.381 N 
HETATM    5  C4  UNL     1      22.421   1.033  52.113  1.00  0.00     0.084 A 
HETATM    6  H5  UNL     1      21.826   2.321  53.617  1.00  0.00     0.160 HD
ENDROOT
BRANCH   5   7
HETATM    7  C5  UNL     1      22.434  -0.348  52.716  1.00  0.00     0.051 C 
BRANCH   7   8
HETATM    8  C6  UNL     1      22.640  -0.166  54.211  1.00  0.00     0.113 C 
BRANCH   8   9
HETATM    9  C7  UNL     1      22.185  -1.358  54.966  1.00  0.00     0.139 C 
HETATM   10  O1  UNL     1      21.036  -1.854  54.758  1.00  0.00    -0.650 OA
BRANCH   9  11
HETATM   11  O2  UNL     1      23.071  -1.882  55.895  1.00  0.00    -0.776 OA
HETATM   12  H10 UNL     1      22.768  -2.669  56.483  1.00  0.00     0.167 HD
ENDBRANCH   9  11
ENDBRANCH   8   9
ENDBRANCH   7   8
ENDBRANCH   5   7
BRANCH   5  13
HETATM   13  C8  UNL     1      23.788   1.486  51.770  1.00  0.00     0.007 A 
HETATM   14  C9  UNL     1      24.855   0.864  52.289  1.00  0.00     0.087 A 
HETATM   15  C10 UNL     1      26.123   1.459  51.833  1.00  0.00     0.248 A 
HETATM   16  O3  UNL     1      27.295   1.116  52.128  1.00  0.00    -0.268 OA
HETATM   17  N2  UNL     1      25.756   2.521  50.970  1.00  0.00    -0.310 N 
HETATM   18  C11 UNL     1      26.565   3.472  50.233  1.00  0.00     0.161 A 
HETATM   19  C15 UNL     1      24.328   2.542  50.929  1.00  0.00     0.048 A 
HETATM   20  C12 UNL     1      25.729   4.416  49.441  1.00  0.00     0.012 A 
HETATM   21  C13 UNL     1      24.416   4.403  49.417  1.00  0.00     0.011 A 
HETATM   22 BR1  UNL     1      23.528   5.697  48.340  1.00  0.00    -0.051 Br
HETATM   23  C14 UNL     1      23.683   3.418  50.199  1.00  0.00     0.049 A 
ENDBRANCH   5  13
TORSDOF 5
ENDMDL
MODEL 8
REMARK VINA RESULT:      -6.4      2.322      4.164
REMARK  5 active torsions:
REMARK  status: ('A' for Active; 'I' for Inactive)
REMARK    1  A    between atoms: C4_5  and  C5_6 
REMARK    2  A    between atoms: C4_5  and  C8_11 
REMARK    3  A    between atoms: C5_6  and  C6_7 
REMARK    4  A    between atoms: C6_7  and  C7_8 
REMARK    5  A    between atoms: C7_8  and  O2_10 
ROOT
HETATM    1  C1  UNL     1      26.628   0.012  51.849  1.00  0.00     0.048 C 
HETATM    2  C2  UNL     1      26.094   1.397  52.027  1.00  0.00    -0.036 A 
HETATM    3  C3  UNL     1      26.142   2.074  53.174  1.00  0.00     0.089 A 
HETATM    4  N1  UNL     1      25.498   3.151  52.516  1.00  0.00    -0.381 N 
HETATM    5  C4  UNL     1      25.393   2.494  51.259  1.00  0.00     0.084 A 
HETATM    6  H5  UNL     1      25.108   4.097  52.533  1.00  0.00     0.160 HD
ENDROOT
BRANCH   5   7
HETATM    7  C5  UNL     1      26.211   3.010  50.102  1.00  0.00     0.051 C 
BRANCH   7   8
HETATM    8  C6  UNL     1      25.886   4.489  49.969  1.00  0.00     0.113 C 
BRANCH   8   9
HETATM    9  C7  UNL     1      26.772   5.146  48.977  1.00  0.00     0.139 C 
HETATM   10  O1  UNL     1      26.495   6.300  48.528  1.00  0.00    -0.650 OA
BRANCH   9  11
HETATM   11  O2  UNL     1      27.893   4.435  48.579  1.00  0.00    -0.776 OA
HETATM   12  H10 UNL     1      27.887   3.967  47.663  1.00  0.00     0.167 HD
ENDBRANCH   9  11
ENDBRANCH   8   9
ENDBRANCH   7   8
ENDBRANCH   5   7
BRANCH   5  13
HETATM   13  C8  UNL     1      24.025   2.126  50.832  1.00  0.00     0.007 A 
HETATM   14  C9  UNL     1      23.564   2.513  49.634  1.00  0.00     0.087 A 
HETATM   15  C10 UNL     1      22.186   2.053  49.391  1.00  0.00     0.248 A 
HETATM   16  O3  UNL     1      21.469   2.242  48.379  1.00  0.00    -0.268 OA
HETATM   17  N2  UNL     1      21.816   1.333  50.555  1.00  0.00    -0.310 N 
HETATM   18  C11 UNL     1      20.580   0.659  50.904  1.00  0.00     0.161 A 
HETATM   19  C15 UNL     1      22.937   1.376  51.438  1.00  0.00     0.048 A 
HETATM   20  C12 UNL     1      20.656   0.023  52.248  1.00  0.00     0.012 A 
HETATM   21  C13 UNL     1      21.707   0.072  53.033  1.00  0.00     0.011 A 
HETATM   22 BR1  UNL     1      21.606  -0.806  54.720  1.00  0.00    -0.051 Br
HETATM   23  C14 UNL     1      22.903   0.783  52.606  1.00  0.00     0.049 A 
ENDBRANCH   5  13
TORSDOF 5
ENDMDL
MODEL 9
REMARK VINA RESULT:      -6.3      2.010      3.278
REMARK  5 active torsions:
REMARK  status: ('A' for Active; 'I' for Inactive)
REMARK    1  A    between atoms: C4_5  and  C5_6 
REMARK    2  A    between atoms: C4_5  and  C8_11 
REMARK    3  A    between atoms: C5_6  and  C6_7 
REMARK    4  A    between atoms: C6_7  and  C7_8 
REMARK    5  A    between atoms: C7_8  and  O2_10 
ROOT
HETATM    1  C1  UNL     1      23.744   6.266  50.974  1.00  0.00     0.048 C 
HETATM    2  C2  UNL     1      22.874   5.061  51.142  1.00  0.00    -0.036 A 
HETATM    3  C3  UNL     1      21.747   5.046  51.853  1.00  0.00     0.089 A 
HETATM    4  N1  UNL     1      21.598   3.680  51.508  1.00  0.00    -0.381 N 
HETATM    5  C4  UNL     1      22.795   3.606  50.743  1.00  0.00     0.084 A 
HETATM    6  H5  UNL     1      21.071   2.805  51.558  1.00  0.00     0.160 HD
ENDROOT
BRANCH   5   7
HETATM    7  C5  UNL     1      22.689   3.415  49.251  1.00  0.00     0.051 C 
BRANCH   7   8
HETATM    8  C6  UNL     1      22.417   1.937  49.023  1.00  0.00     0.113 C 
BRANCH   8   9
HETATM    9  C7  UNL     1      20.963   1.646  49.060  1.00  0.00     0.139 C 
HETATM   10  O1  UNL     1      20.449   1.049  50.054  1.00  0.00    -0.650 OA
BRANCH   9  11
HETATM   11  O2  UNL     1      20.219   2.054  47.963  1.00  0.00    -0.776 OA
HETATM   12  H10 UNL     1      20.119   3.061  47.776  1.00  0.00     0.167 HD
ENDBRANCH   9  11
ENDBRANCH   8   9
ENDBRANCH   7   8
ENDBRANCH   5   7
BRANCH   5  13
HETATM   13  C8  UNL     1      23.881   2.781  51.318  1.00  0.00     0.007 A 
HETATM   14  C9  UNL     1      25.162   3.069  51.049  1.00  0.00     0.087 A 
HETATM   15  C10 UNL     1      26.094   2.139  51.708  1.00  0.00     0.248 A 
HETATM   16  O3  UNL     1      27.348   2.130  51.664  1.00  0.00    -0.268 OA
HETATM   17  N2  UNL     1      25.277   1.229  52.426  1.00  0.00    -0.310 N 
HETATM   18  C11 UNL     1      25.621   0.089  53.253  1.00  0.00     0.161 A 
HETATM   19  C15 UNL     1      23.923   1.619  52.189  1.00  0.00     0.048 A 
HETATM   20  C12 UNL     1      24.413  -0.573  53.817  1.00  0.00     0.012 A 
HETATM   21  C13 UNL     1      23.179  -0.184  53.588  1.00  0.00     0.011 A 
HETATM   22 BR1  UNL     1      21.766  -1.165  54.402  1.00  0.00    -0.051 Br
HETATM   23  C14 UNL     1      22.925   0.967  52.733  1.00  0.00     0.049 A 
ENDBRANCH   5  13
TORSDOF 5
ENDMDL
