MODEL 1
REMARK VINA RESULT:      -8.7      0.000      0.000
REMARK  6 active torsions:
REMARK  status: ('A' for Active; 'I' for Inactive)
REMARK    1  A    between atoms: O1_2  and  C2_3 
REMARK    2  A    between atoms: N2_11  and  C9_12 
REMARK    3  A    between atoms: C16_20  and  N3_21 
REMARK       I    between atoms: N3_21  and  C17_22 
REMARK    4  A    between atoms: C17_22  and  C18_24 
REMARK    5  A    between atoms: C19_25  and  C20_26 
REMARK    6  A    between atoms: C20_26  and  N4_27 
ROOT
HETATM    1  C2  UNL     1      23.350   3.266  50.831  1.00  0.00     0.095 A 
HETATM    2  C3  UNL     1      22.460   2.531  51.426  1.00  0.00     0.049 A 
HETATM    3  C4  UNL     1      22.739   1.787  52.644  1.00  0.00    -0.017 A 
HETATM    4  C5  UNL     1      22.031   0.994  53.394  1.00  0.00     0.003 C 
HETATM    5  C6  UNL     1      22.414  -0.268  53.531  1.00  0.00     0.052 C 
HETATM    6  C7  UNL     1      21.523  -1.258  54.065  1.00  0.00     0.097 C 
HETATM    7  N1  UNL     1      20.796  -2.043  54.504  1.00  0.00    -0.192 NA
HETATM    8  C8  UNL     1      23.818  -0.604  53.101  1.00  0.00     0.175 C 
HETATM    9  N2  UNL     1      24.637   0.568  53.453  1.00  0.00    -0.363 N 
HETATM   10  C14 UNL     1      24.122   1.895  53.227  1.00  0.00     0.144 A 
HETATM   11  C15 UNL     1      24.978   2.763  52.415  1.00  0.00     0.035 A 
HETATM   12  C16 UNL     1      24.709   3.422  51.319  1.00  0.00     0.067 A 
ENDROOT
BRANCH   9  13
HETATM   13  C9  UNL     1      25.910   0.274  54.008  1.00  0.00     0.044 C 
HETATM   14  C10 UNL     1      26.727   0.626  54.987  1.00  0.00     0.004 C 
HETATM   15  C11 UNL     1      27.995   0.543  54.662  1.00  0.00     0.033 C 
HETATM   16  C12 UNL     1      27.990  -0.624  53.755  1.00  0.00     0.014 C 
HETATM   17 BR1  UNL     1      29.453  -1.724  53.212  1.00  0.00    -0.051 Br
HETATM   18  C13 UNL     1      26.718  -0.782  53.361  1.00  0.00     0.049 C 
ENDBRANCH   9  13
BRANCH   1  19
HETATM   19  O1  UNL     1      22.857   3.878  49.687  1.00  0.00    -0.354 OA
HETATM   20  C1  UNL     1      22.801   3.316  48.414  1.00  0.00     0.210 C 
ENDBRANCH   1  19
BRANCH  12  21
HETATM   21  N3  UNL     1      25.583   4.246  50.574  1.00  0.00    -0.314 N 
HETATM   22  C17 UNL     1      26.550   3.906  49.601  1.00  0.00     0.301 C 
HETATM   23  O2  UNL     1      26.694   2.694  49.316  1.00  0.00    -0.258 OA
HETATM   24  H11 UNL     1      25.564   5.283  50.717  1.00  0.00     0.170 HD
BRANCH  22  25
HETATM   25  C18 UNL     1      27.383   4.845  48.911  1.00  0.00    -0.004 C 
HETATM   26  C19 UNL     1      28.081   5.648  48.346  1.00  0.00    -0.066 C 
BRANCH  26  27
HETATM   27  C20 UNL     1      28.922   6.631  47.671  1.00  0.00     0.365 C 
BRANCH  27  28
HETATM   28  N4  UNL     1      29.967   7.171  48.500  1.00  0.00     0.090 N 
HETATM   29  C21 UNL     1      31.278   7.051  47.943  1.00  0.00     0.310 C 
HETATM   30  C22 UNL     1      29.644   8.518  48.884  1.00  0.00     0.310 C 
ENDBRANCH  27  28
ENDBRANCH  26  27
ENDBRANCH  22  25
ENDBRANCH  12  21
TORSDOF 6
ENDMDL
MODEL 2
REMARK VINA RESULT:      -7.8      2.831      4.673
REMARK  6 active torsions:
REMARK  status: ('A' for Active; 'I' for Inactive)
REMARK    1  A    between atoms: O1_2  and  C2_3 
REMARK    2  A    between atoms: N2_11  and  C9_12 
REMARK    3  A    between atoms: C16_20  and  N3_21 
REMARK       I    between atoms: N3_21  and  C17_22 
REMARK    4  A    between atoms: C17_22  and  C18_24 
REMARK    5  A    between atoms: C19_25  and  C20_26 
REMARK    6  A    between atoms: C20_26  and  N4_27 
ROOT
HETATM    1  C2  UNL     1      26.935   2.133  52.163  1.00  0.00     0.095 A 
HETATM    2  C3  UNL     1      26.478   1.139  52.860  1.00  0.00     0.049 A 
HETATM    3  C4  UNL     1      25.172   0.542  52.619  1.00  0.00    -0.017 A 
HETATM    4  C5  UNL     1      24.511  -0.427  53.181  1.00  0.00     0.003 C 
HETATM    5  C6  UNL     1      23.351  -0.157  53.762  1.00  0.00     0.052 C 
HETATM    6  C7  UNL     1      22.739  -1.092  54.663  1.00  0.00     0.097 C 
HETATM    7  N1  UNL     1      22.255  -1.858  55.381  1.00  0.00    -0.192 NA
HETATM    8  C8  UNL     1      22.716   1.168  53.431  1.00  0.00     0.175 C 
HETATM    9  N2  UNL     1      23.026   1.419  52.014  1.00  0.00    -0.363 N 
HETATM   10  C14 UNL     1      24.340   1.112  51.504  1.00  0.00     0.144 A 
HETATM   11  C15 UNL     1      25.023   2.224  50.840  1.00  0.00     0.035 A 
HETATM   12  C16 UNL     1      26.198   2.749  51.074  1.00  0.00     0.067 A 
ENDROOT
BRANCH   9  13
HETATM   13  C9  UNL     1      21.962   1.960  51.246  1.00  0.00     0.044 C 
HETATM   14  C10 UNL     1      21.555   3.080  50.672  1.00  0.00     0.004 C 
HETATM   15  C11 UNL     1      20.252   3.227  50.682  1.00  0.00     0.033 C 
HETATM   16  C12 UNL     1      19.798   1.827  50.543  1.00  0.00     0.014 C 
HETATM   17 BR1  UNL     1      18.091   1.172  49.992  1.00  0.00    -0.051 Br
HETATM   18  C13 UNL     1      20.843   1.063  50.887  1.00  0.00     0.049 C 
ENDBRANCH   9  13
BRANCH   1  19
HETATM   19  O1  UNL     1      28.199   2.535  52.574  1.00  0.00    -0.354 OA
HETATM   20  C1  UNL     1      28.771   2.296  53.822  1.00  0.00     0.210 C 
ENDBRANCH   1  19
BRANCH  12  21
HETATM   21  N3  UNL     1      26.806   3.831  50.398  1.00  0.00    -0.314 N 
HETATM   22  C17 UNL     1      26.293   4.684  49.396  1.00  0.00     0.301 C 
HETATM   23  O2  UNL     1      25.116   4.496  49.010  1.00  0.00    -0.258 OA
HETATM   24  H11 UNL     1      27.793   4.095  50.626  1.00  0.00     0.170 HD
BRANCH  22  25
HETATM   25  C18 UNL     1      27.019   5.756  48.782  1.00  0.00    -0.004 C 
HETATM   26  C19 UNL     1      27.634   6.665  48.284  1.00  0.00    -0.066 C 
BRANCH  26  27
HETATM   27  C20 UNL     1      28.379   7.773  47.695  1.00  0.00     0.365 C 
BRANCH  27  28
HETATM   28  N4  UNL     1      29.504   8.203  48.483  1.00  0.00     0.090 N 
HETATM   29  C21 UNL     1      30.736   8.269  47.759  1.00  0.00     0.310 C 
HETATM   30  C22 UNL     1      29.190   9.429  49.163  1.00  0.00     0.310 C 
ENDBRANCH  27  28
ENDBRANCH  26  27
ENDBRANCH  22  25
ENDBRANCH  12  21
TORSDOF 6
ENDMDL
MODEL 3
REMARK VINA RESULT:      -7.7      4.287      8.778
REMARK  6 active torsions:
REMARK  status: ('A' for Active; 'I' for Inactive)
REMARK    1  A    between atoms: O1_2  and  C2_3 
REMARK    2  A    between atoms: N2_11  and  C9_12 
REMARK    3  A    between atoms: C16_20  and  N3_21 
REMARK       I    between atoms: N3_21  and  C17_22 
REMARK    4  A    between atoms: C17_22  and  C18_24 
REMARK    5  A    between atoms: C19_25  and  C20_26 
REMARK    6  A    between atoms: C20_26  and  N4_27 
ROOT
HETATM    1  C2  UNL     1      22.937   0.030  52.892  1.00  0.00     0.095 A 
HETATM    2  C3  UNL     1      24.035   0.239  53.551  1.00  0.00     0.049 A 
HETATM    3  C4  UNL     1      24.808   1.465  53.426  1.00  0.00    -0.017 A 
HETATM    4  C5  UNL     1      25.918   1.886  53.960  1.00  0.00     0.003 C 
HETATM    5  C6  UNL     1      26.951   2.143  53.169  1.00  0.00     0.052 C 
HETATM    6  C7  UNL     1      28.274   2.293  53.706  1.00  0.00     0.097 C 
HETATM    7  N1  UNL     1      29.332   2.419  54.155  1.00  0.00    -0.192 NA
HETATM    8  C8  UNL     1      26.666   2.268  51.696  1.00  0.00     0.175 C 
HETATM    9  N2  UNL     1      25.348   2.914  51.595  1.00  0.00    -0.363 N 
HETATM   10  C14 UNL     1      24.289   2.526  52.494  1.00  0.00     0.144 A 
HETATM   11  C15 UNL     1      23.046   2.104  51.844  1.00  0.00     0.035 A 
HETATM   12  C16 UNL     1      22.367   0.994  51.967  1.00  0.00     0.067 A 
ENDROOT
BRANCH   9  13
HETATM   13  C9  UNL     1      25.232   3.904  50.584  1.00  0.00     0.044 C 
HETATM   14  C10 UNL     1      25.552   4.151  49.324  1.00  0.00     0.004 C 
HETATM   15  C11 UNL     1      25.810   5.415  49.090  1.00  0.00     0.033 C 
HETATM   16  C12 UNL     1      24.871   6.082  50.017  1.00  0.00     0.014 C 
HETATM   17 BR1  UNL     1      24.240   7.885  49.988  1.00  0.00    -0.051 Br
HETATM   18  C13 UNL     1      24.524   5.157  50.922  1.00  0.00     0.049 C 
ENDBRANCH   9  13
BRANCH   1  19
HETATM   19  O1  UNL     1      22.376  -1.209  53.171  1.00  0.00    -0.354 OA
HETATM   20  C1  UNL     1      21.692  -1.557  54.334  1.00  0.00     0.210 C 
ENDBRANCH   1  19
BRANCH  12  21
HETATM   21  N3  UNL     1      21.169   0.641  51.306  1.00  0.00    -0.314 N 
HETATM   22  C17 UNL     1      19.826   0.747  51.735  1.00  0.00     0.301 C 
HETATM   23  O2  UNL     1      19.608   1.225  52.873  1.00  0.00    -0.258 OA
HETATM   24  H11 UNL     1      21.209   0.228  50.345  1.00  0.00     0.170 HD
BRANCH  22  25
HETATM   25  C18 UNL     1      18.687   0.349  50.963  1.00  0.00    -0.004 C 
HETATM   26  C19 UNL     1      17.740   0.014  50.298  1.00  0.00    -0.066 C 
BRANCH  26  27
HETATM   27  C20 UNL     1      16.601  -0.389  49.479  1.00  0.00     0.365 C 
BRANCH  27  28
HETATM   28  N4  UNL     1      15.348  -0.396  50.186  1.00  0.00     0.090 N 
HETATM   29  C21 UNL     1      15.309  -1.288  51.302  1.00  0.00     0.310 C 
HETATM   30  C22 UNL     1      14.968   0.947  50.530  1.00  0.00     0.310 C 
ENDBRANCH  27  28
ENDBRANCH  26  27
ENDBRANCH  22  25
ENDBRANCH  12  21
TORSDOF 6
ENDMDL
MODEL 4
REMARK VINA RESULT:      -7.4      3.200      5.267
REMARK  6 active torsions:
REMARK  status: ('A' for Active; 'I' for Inactive)
REMARK    1  A    between atoms: O1_2  and  C2_3 
REMARK    2  A    between atoms: N2_11  and  C9_12 
REMARK    3  A    between atoms: C16_20  and  N3_21 
REMARK       I    between atoms: N3_21  and  C17_22 
REMARK    4  A    between atoms: C17_22  and  C18_24 
REMARK    5  A    between atoms: C19_25  and  C20_26 
REMARK    6  A    between atoms: C20_26  and  N4_27 
ROOT
HETATM    1  C2  UNL     1      26.375   2.499  51.437  1.00  0.00     0.095 A 
HETATM    2  C3  UNL     1      25.568   1.708  52.075  1.00  0.00     0.049 A 
HETATM    3  C4  UNL     1      24.166   1.555  51.717  1.00  0.00    -0.017 A 
HETATM    4  C5  UNL     1      23.187   0.851  52.204  1.00  0.00     0.003 C 
HETATM    5  C6  UNL     1      22.128   1.482  52.692  1.00  0.00     0.052 C 
HETATM    6  C7  UNL     1      21.177   0.798  53.523  1.00  0.00     0.097 C 
HETATM    7  N1  UNL     1      20.416   0.232  54.184  1.00  0.00    -0.192 NA
HETATM    8  C8  UNL     1      21.977   2.937  52.333  1.00  0.00     0.175 C 
HETATM    9  N2  UNL     1      22.469   3.063  50.952  1.00  0.00    -0.363 N 
HETATM   10  C14 UNL     1      23.655   2.350  50.547  1.00  0.00     0.144 A 
HETATM   11  C15 UNL     1      24.709   3.181  49.962  1.00  0.00     0.035 A 
HETATM   12  C16 UNL     1      25.965   3.308  50.302  1.00  0.00     0.067 A 
ENDROOT
BRANCH   9  13
HETATM   13  C9  UNL     1      21.700   3.907  50.108  1.00  0.00     0.044 C 
HETATM   14  C10 UNL     1      21.135   3.952  48.913  1.00  0.00     0.004 C 
HETATM   15  C11 UNL     1      21.140   5.149  48.379  1.00  0.00     0.033 C 
HETATM   16  C12 UNL     1      20.984   6.005  49.575  1.00  0.00     0.014 C 
HETATM   17 BR1  UNL     1      20.419   7.826  49.678  1.00  0.00    -0.051 Br
HETATM   18  C13 UNL     1      21.327   5.242  50.622  1.00  0.00     0.049 C 
ENDBRANCH   9  13
BRANCH   1  19
HETATM   19  O1  UNL     1      27.661   2.482  51.958  1.00  0.00    -0.354 OA
HETATM   20  C1  UNL     1      28.018   2.107  53.252  1.00  0.00     0.210 C 
ENDBRANCH   1  19
BRANCH  12  21
HETATM   21  N3  UNL     1      26.940   4.134  49.698  1.00  0.00    -0.314 N 
HETATM   22  C17 UNL     1      26.792   5.328  48.958  1.00  0.00     0.301 C 
HETATM   23  O2  UNL     1      25.632   5.769  48.780  1.00  0.00    -0.258 OA
HETATM   24  H11 UNL     1      27.953   3.878  49.771  1.00  0.00     0.170 HD
BRANCH  22  25
HETATM   25  C18 UNL     1      27.872   6.079  48.390  1.00  0.00    -0.004 C 
HETATM   26  C19 UNL     1      28.767   6.727  47.910  1.00  0.00    -0.066 C 
BRANCH  26  27
HETATM   27  C20 UNL     1      29.841   7.522  47.324  1.00  0.00     0.365 C 
BRANCH  27  28
HETATM   28  N4  UNL     1      30.602   8.275  48.287  1.00  0.00     0.090 N 
HETATM   29  C21 UNL     1      31.449   7.479  49.118  1.00  0.00     0.310 C 
HETATM   30  C22 UNL     1      31.306   9.343  47.631  1.00  0.00     0.310 C 
ENDBRANCH  27  28
ENDBRANCH  26  27
ENDBRANCH  22  25
ENDBRANCH  12  21
TORSDOF 6
ENDMDL
MODEL 5
REMARK VINA RESULT:      -7.2      3.647      5.957
REMARK  6 active torsions:
REMARK  status: ('A' for Active; 'I' for Inactive)
REMARK    1  A    between atoms: O1_2  and  C2_3 
REMARK    2  A    between atoms: N2_11  and  C9_12 
REMARK    3  A    between atoms: C16_20  and  N3_21 
REMARK       I    between atoms: N3_21  and  C17_22 
REMARK    4  A    between atoms: C17_22  and  C18_24 
REMARK    5  A    between atoms: C19_25  and  C20_26 
REMARK    6  A    between atoms: C20_26  and  N4_27 
ROOT
HETATM    1  C2  UNL     1      25.234   3.612  50.829  1.00  0.00     0.095 A 
HETATM    2  C3  UNL     1      26.203   2.764  50.990  1.00  0.00     0.049 A 
HETATM    3  C4  UNL     1      25.990   1.404  51.462  1.00  0.00    -0.017 A 
HETATM    4  C5  UNL     1      26.785   0.404  51.708  1.00  0.00     0.003 C 
HETATM    5  C6  UNL     1      26.853  -0.069  52.944  1.00  0.00     0.052 C 
HETATM    6  C7  UNL     1      27.925  -0.936  53.347  1.00  0.00     0.097 C 
HETATM    7  N1  UNL     1      28.790  -1.638  53.654  1.00  0.00    -0.192 NA
HETATM    8  C8  UNL     1      25.759   0.345  53.893  1.00  0.00     0.175 C 
HETATM    9  N2  UNL     1      24.532   0.414  53.085  1.00  0.00    -0.363 N 
HETATM   10  C14 UNL     1      24.577   0.983  51.761  1.00  0.00     0.144 A 
HETATM   11  C15 UNL     1      23.631   2.074  51.521  1.00  0.00     0.035 A 
HETATM   12  C16 UNL     1      23.843   3.294  51.099  1.00  0.00     0.067 A 
ENDROOT
BRANCH   9  13
HETATM   13  C9  UNL     1      23.366  -0.108  53.705  1.00  0.00     0.044 C 
HETATM   14  C10 UNL     1      22.973  -0.895  54.693  1.00  0.00     0.004 C 
HETATM   15  C11 UNL     1      21.879  -1.564  54.423  1.00  0.00     0.033 C 
HETATM   16  C12 UNL     1      21.142  -0.596  53.583  1.00  0.00     0.014 C 
HETATM   17 BR1  UNL     1      19.280  -0.551  53.160  1.00  0.00    -0.051 Br
HETATM   18  C13 UNL     1      22.053   0.287  53.150  1.00  0.00     0.049 C 
ENDBRANCH   9  13
BRANCH   1  19
HETATM   19  O1  UNL     1      25.676   4.846  50.373  1.00  0.00    -0.354 OA
HETATM   20  C1  UNL     1      26.301   5.095  49.152  1.00  0.00     0.210 C 
ENDBRANCH   1  19
BRANCH  12  21
HETATM   21  N3  UNL     1      22.884   4.310  50.889  1.00  0.00    -0.314 N 
HETATM   22  C17 UNL     1      22.294   4.774  49.691  1.00  0.00     0.301 C 
HETATM   23  O2  UNL     1      22.642   4.231  48.617  1.00  0.00    -0.258 OA
HETATM   24  H11 UNL     1      22.508   4.845  51.707  1.00  0.00     0.170 HD
BRANCH  22  25
HETATM   25  C18 UNL     1      21.323   5.824  49.610  1.00  0.00    -0.004 C 
HETATM   26  C19 UNL     1      20.519   6.719  49.551  1.00  0.00    -0.066 C 
BRANCH  26  27
HETATM   27  C20 UNL     1      19.553   7.811  49.491  1.00  0.00     0.365 C 
BRANCH  27  28
HETATM   28  N4  UNL     1      20.122   9.071  49.088  1.00  0.00     0.090 N 
HETATM   29  C21 UNL     1      20.438   9.153  47.696  1.00  0.00     0.310 C 
HETATM   30  C22 UNL     1      19.289  10.153  49.536  1.00  0.00     0.310 C 
ENDBRANCH  27  28
ENDBRANCH  26  27
ENDBRANCH  22  25
ENDBRANCH  12  21
TORSDOF 6
ENDMDL
MODEL 6
REMARK VINA RESULT:      -6.9      3.626      5.085
REMARK  6 active torsions:
REMARK  status: ('A' for Active; 'I' for Inactive)
REMARK    1  A    between atoms: O1_2  and  C2_3 
REMARK    2  A    between atoms: N2_11  and  C9_12 
REMARK    3  A    between atoms: C16_20  and  N3_21 
REMARK       I    between atoms: N3_21  and  C17_22 
REMARK    4  A    between atoms: C17_22  and  C18_24 
REMARK    5  A    between atoms: C19_25  and  C20_26 
REMARK    6  A    between atoms: C20_26  and  N4_27 
ROOT
HETATM    1  C2  UNL     1      20.145   1.546  50.280  1.00  0.00     0.095 A 
HETATM    2  C3  UNL     1      20.152   0.883  51.396  1.00  0.00     0.049 A 
HETATM    3  C4  UNL     1      21.194   1.038  52.399  1.00  0.00    -0.017 A 
HETATM    4  C5  UNL     1      21.416   0.488  53.557  1.00  0.00     0.003 C 
HETATM    5  C6  UNL     1      22.523  -0.222  53.725  1.00  0.00     0.052 C 
HETATM    6  C7  UNL     1      22.670  -1.107  54.846  1.00  0.00     0.097 C 
HETATM    7  N1  UNL     1      22.776  -1.810  55.758  1.00  0.00    -0.192 NA
HETATM    8  C8  UNL     1      23.605  -0.053  52.691  1.00  0.00     0.175 C 
HETATM    9  N2  UNL     1      23.566   1.365  52.298  1.00  0.00    -0.363 N 
HETATM   10  C14 UNL     1      22.296   2.022  52.113  1.00  0.00     0.144 A 
HETATM   11  C15 UNL     1      22.114   2.665  50.810  1.00  0.00     0.035 A 
HETATM   12  C16 UNL     1      21.170   2.509  49.919  1.00  0.00     0.067 A 
ENDROOT
BRANCH   9  13
HETATM   13  C9  UNL     1      24.833   1.984  52.132  1.00  0.00     0.044 C 
HETATM   14  C10 UNL     1      25.546   2.684  51.266  1.00  0.00     0.004 C 
HETATM   15  C11 UNL     1      26.830   2.425  51.318  1.00  0.00     0.033 C 
HETATM   16  C12 UNL     1      27.018   2.157  52.760  1.00  0.00     0.014 C 
HETATM   17 BR1  UNL     1      28.632   2.172  53.780  1.00  0.00    -0.051 Br
HETATM   18  C13 UNL     1      25.799   1.890  53.248  1.00  0.00     0.049 C 
ENDBRANCH   9  13
BRANCH   1  19
HETATM   19  O1  UNL     1      19.054   1.232  49.480  1.00  0.00    -0.354 OA
HETATM   20  C1  UNL     1      17.716   1.263  49.867  1.00  0.00     0.210 C 
ENDBRANCH   1  19
BRANCH  12  21
HETATM   21  N3  UNL     1      21.049   3.160  48.671  1.00  0.00    -0.314 N 
HETATM   22  C17 UNL     1      21.729   2.930  47.453  1.00  0.00     0.301 C 
HETATM   23  O2  UNL     1      22.584   2.014  47.421  1.00  0.00    -0.258 OA
HETATM   24  H11 UNL     1      20.368   3.947  48.561  1.00  0.00     0.170 HD
BRANCH  22  25
HETATM   25  C18 UNL     1      21.515   3.667  46.244  1.00  0.00    -0.004 C 
HETATM   26  C19 UNL     1      21.343   4.272  45.216  1.00  0.00    -0.066 C 
BRANCH  26  27
HETATM   27  C20 UNL     1      21.143   4.994  43.964  1.00  0.00     0.365 C 
BRANCH  27  28
HETATM   28  N4  UNL     1      21.226   6.425  44.096  1.00  0.00     0.090 N 
HETATM   29  C21 UNL     1      20.232   6.994  44.953  1.00  0.00     0.310 C 
HETATM   30  C22 UNL     1      22.563   6.810  44.459  1.00  0.00     0.310 C 
ENDBRANCH  27  28
ENDBRANCH  26  27
ENDBRANCH  22  25
ENDBRANCH  12  21
TORSDOF 6
ENDMDL
MODEL 7
REMARK VINA RESULT:      -6.8      3.701      6.948
REMARK  6 active torsions:
REMARK  status: ('A' for Active; 'I' for Inactive)
REMARK    1  A    between atoms: O1_2  and  C2_3 
REMARK    2  A    between atoms: N2_11  and  C9_12 
REMARK    3  A    between atoms: C16_20  and  N3_21 
REMARK       I    between atoms: N3_21  and  C17_22 
REMARK    4  A    between atoms: C17_22  and  C18_24 
REMARK    5  A    between atoms: C19_25  and  C20_26 
REMARK    6  A    between atoms: C20_26  and  N4_27 
ROOT
HETATM    1  C2  UNL     1      24.747   4.036  49.605  1.00  0.00     0.095 A 
HETATM    2  C3  UNL     1      25.888   3.874  50.203  1.00  0.00     0.049 A 
HETATM    3  C4  UNL     1      26.165   2.745  51.079  1.00  0.00    -0.017 A 
HETATM    4  C5  UNL     1      27.201   2.387  51.780  1.00  0.00     0.003 C 
HETATM    5  C6  UNL     1      27.083   2.306  53.098  1.00  0.00     0.052 C 
HETATM    6  C7  UNL     1      28.243   2.236  53.941  1.00  0.00     0.097 C 
HETATM    7  N1  UNL     1      29.186   2.172  54.607  1.00  0.00    -0.192 NA
HETATM    8  C8  UNL     1      25.685   2.292  53.658  1.00  0.00     0.175 C 
HETATM    9  N2  UNL     1      24.874   1.533  52.692  1.00  0.00    -0.363 N 
HETATM   10  C14 UNL     1      25.072   1.731  51.278  1.00  0.00     0.144 A 
HETATM   11  C15 UNL     1      23.868   2.089  50.526  1.00  0.00     0.035 A 
HETATM   12  C16 UNL     1      23.636   3.112  49.746  1.00  0.00     0.067 A 
ENDROOT
BRANCH   9  13
HETATM   13  C9  UNL     1      23.933   0.635  53.262  1.00  0.00     0.044 C 
HETATM   14  C10 UNL     1      23.848  -0.520  53.901  1.00  0.00     0.004 C 
HETATM   15  C11 UNL     1      22.769  -1.202  53.603  1.00  0.00     0.033 C 
HETATM   16  C12 UNL     1      21.785  -0.118  53.393  1.00  0.00     0.014 C 
HETATM   17 BR1  UNL     1      19.878  -0.215  53.399  1.00  0.00    -0.051 Br
HETATM   18  C13 UNL     1      22.501   0.996  53.186  1.00  0.00     0.049 C 
ENDBRANCH   9  13
BRANCH   1  19
HETATM   19  O1  UNL     1      24.713   5.183  48.824  1.00  0.00    -0.354 OA
HETATM   20  C1  UNL     1      25.708   6.155  48.750  1.00  0.00     0.210 C 
ENDBRANCH   1  19
BRANCH  12  21
HETATM   21  N3  UNL     1      22.444   3.407  49.046  1.00  0.00    -0.314 N 
HETATM   22  C17 UNL     1      21.919   2.843  47.861  1.00  0.00     0.301 C 
HETATM   23  O2  UNL     1      22.574   1.932  47.303  1.00  0.00    -0.258 OA
HETATM   24  H11 UNL     1      21.803   4.152  49.406  1.00  0.00     0.170 HD
BRANCH  22  25
HETATM   25  C18 UNL     1      20.687   3.234  47.244  1.00  0.00    -0.004 C 
HETATM   26  C19 UNL     1      19.645   3.544  46.724  1.00  0.00    -0.066 C 
BRANCH  26  27
HETATM   27  C20 UNL     1      18.381   3.904  46.089  1.00  0.00     0.365 C 
BRANCH  27  28
HETATM   28  N4  UNL     1      17.315   4.165  47.021  1.00  0.00     0.090 N 
HETATM   29  C21 UNL     1      16.256   4.965  46.490  1.00  0.00     0.310 C 
HETATM   30  C22 UNL     1      16.850   2.932  47.595  1.00  0.00     0.310 C 
ENDBRANCH  27  28
ENDBRANCH  26  27
ENDBRANCH  22  25
ENDBRANCH  12  21
TORSDOF 6
ENDMDL
MODEL 8
REMARK VINA RESULT:      -6.8      3.345      9.980
REMARK  6 active torsions:
REMARK  status: ('A' for Active; 'I' for Inactive)
REMARK    1  A    between atoms: O1_2  and  C2_3 
REMARK    2  A    between atoms: N2_11  and  C9_12 
REMARK    3  A    between atoms: C16_20  and  N3_21 
REMARK       I    between atoms: N3_21  and  C17_22 
REMARK    4  A    between atoms: C17_22  and  C18_24 
REMARK    5  A    between atoms: C19_25  and  C20_26 
REMARK    6  A    between atoms: C20_26  and  N4_27 
ROOT
HETATM    1  C2  UNL     1      27.695   7.906  49.093  1.00  0.00     0.095 A 
HETATM    2  C3  UNL     1      28.443   8.850  48.609  1.00  0.00     0.049 A 
HETATM    3  C4  UNL     1      29.511   8.598  47.654  1.00  0.00    -0.017 A 
HETATM    4  C5  UNL     1      30.378   9.361  47.054  1.00  0.00     0.003 C 
HETATM    5  C6  UNL     1      31.669   9.161  47.280  1.00  0.00     0.052 C 
HETATM    6  C7  UNL     1      32.645  10.150  46.918  1.00  0.00     0.097 C 
HETATM    7  N1  UNL     1      33.419  10.952  46.613  1.00  0.00    -0.192 NA
HETATM    8  C8  UNL     1      32.053   7.858  47.930  1.00  0.00     0.175 C 
HETATM    9  N2  UNL     1      31.128   6.851  47.386  1.00  0.00    -0.363 N 
HETATM   10  C14 UNL     1      29.734   7.176  47.215  1.00  0.00     0.144 A 
HETATM   11  C15 UNL     1      28.798   6.261  47.871  1.00  0.00     0.035 A 
HETATM   12  C16 UNL     1      27.845   6.507  48.732  1.00  0.00     0.067 A 
ENDROOT
BRANCH   9  13
HETATM   13  C9  UNL     1      31.715   5.599  47.063  1.00  0.00     0.044 C 
HETATM   14  C10 UNL     1      31.618   4.304  47.318  1.00  0.00     0.004 C 
HETATM   15  C11 UNL     1      32.773   3.684  47.309  1.00  0.00     0.033 C 
HETATM   16  C12 UNL     1      33.499   4.429  46.258  1.00  0.00     0.014 C 
HETATM   17 BR1  UNL     1      35.047   3.904  45.271  1.00  0.00    -0.051 Br
HETATM   18  C13 UNL     1      32.849   5.592  46.115  1.00  0.00     0.049 C 
ENDBRANCH   9  13
BRANCH   1  19
HETATM   19  O1  UNL     1      26.746   8.382  49.987  1.00  0.00    -0.354 OA
HETATM   20  C1  UNL     1      25.632   9.156  49.667  1.00  0.00     0.210 C 
ENDBRANCH   1  19
BRANCH  12  21
HETATM   21  N3  UNL     1      26.970   5.575  49.336  1.00  0.00    -0.314 N 
HETATM   22  C17 UNL     1      25.602   5.318  49.093  1.00  0.00     0.301 C 
HETATM   23  O2  UNL     1      25.025   5.995  48.210  1.00  0.00    -0.258 OA
HETATM   24  H11 UNL     1      27.327   4.945  50.093  1.00  0.00     0.170 HD
BRANCH  22  25
HETATM   25  C18 UNL     1      24.818   4.337  49.781  1.00  0.00    -0.004 C 
HETATM   26  C19 UNL     1      24.149   3.507  50.343  1.00  0.00    -0.066 C 
BRANCH  26  27
HETATM   27  C20 UNL     1      23.329   2.502  51.011  1.00  0.00     0.365 C 
BRANCH  27  28
HETATM   28  N4  UNL     1      23.912   1.983  52.221  1.00  0.00     0.090 N 
HETATM   29  C21 UNL     1      25.013   1.097  52.008  1.00  0.00     0.310 C 
HETATM   30  C22 UNL     1      24.228   3.062  53.117  1.00  0.00     0.310 C 
ENDBRANCH  27  28
ENDBRANCH  26  27
ENDBRANCH  22  25
ENDBRANCH  12  21
TORSDOF 6
ENDMDL
MODEL 9
REMARK VINA RESULT:      -6.7      3.022      4.170
REMARK  6 active torsions:
REMARK  status: ('A' for Active; 'I' for Inactive)
REMARK    1  A    between atoms: O1_2  and  C2_3 
REMARK    2  A    between atoms: N2_11  and  C9_12 
REMARK    3  A    between atoms: C16_20  and  N3_21 
REMARK       I    between atoms: N3_21  and  C17_22 
REMARK    4  A    between atoms: C17_22  and  C18_24 
REMARK    5  A    between atoms: C19_25  and  C20_26 
REMARK    6  A    between atoms: C20_26  and  N4_27 
ROOT
HETATM    1  C2  UNL     1      22.747   5.170  48.639  1.00  0.00     0.095 A 
HETATM    2  C3  UNL     1      21.482   5.175  48.929  1.00  0.00     0.049 A 
HETATM    3  C4  UNL     1      20.951   4.595  50.153  1.00  0.00    -0.017 A 
HETATM    4  C5  UNL     1      19.752   4.472  50.642  1.00  0.00     0.003 C 
HETATM    5  C6  UNL     1      19.266   3.256  50.847  1.00  0.00     0.052 C 
HETATM    6  C7  UNL     1      17.864   3.047  51.071  1.00  0.00     0.097 C 
HETATM    7  N1  UNL     1      16.733   2.895  51.257  1.00  0.00    -0.192 NA
HETATM    8  C8  UNL     1      20.253   2.118  50.832  1.00  0.00     0.175 C 
HETATM    9  N2  UNL     1      21.484   2.646  51.441  1.00  0.00    -0.363 N 
HETATM   10  C14 UNL     1      21.930   3.978  51.115  1.00  0.00     0.144 A 
HETATM   11  C15 UNL     1      23.302   4.068  50.612  1.00  0.00     0.035 A 
HETATM   12  C16 UNL     1      23.760   4.591  49.504  1.00  0.00     0.067 A 
ENDROOT
BRANCH   9  13
HETATM   13  C9  UNL     1      22.148   1.763  52.332  1.00  0.00     0.044 C 
HETATM   14  C10 UNL     1      23.352   1.434  52.770  1.00  0.00     0.004 C 
HETATM   15  C11 UNL     1      23.473   0.159  53.053  1.00  0.00     0.033 C 
HETATM   16  C12 UNL     1      22.120  -0.159  53.558  1.00  0.00     0.014 C 
HETATM   17 BR1  UNL     1      21.559  -1.641  54.623  1.00  0.00    -0.051 Br
HETATM   18  C13 UNL     1      21.321   0.821  53.116  1.00  0.00     0.049 C 
ENDBRANCH   9  13
BRANCH   1  19
HETATM   19  O1  UNL     1      23.017   5.776  47.420  1.00  0.00    -0.354 OA
HETATM   20  C1  UNL     1      23.262   7.133  47.214  1.00  0.00     0.210 C 
ENDBRANCH   1  19
BRANCH  12  21
HETATM   21  N3  UNL     1      25.103   4.645  49.069  1.00  0.00    -0.314 N 
HETATM   22  C17 UNL     1      26.104   5.611  49.317  1.00  0.00     0.301 C 
HETATM   23  O2  UNL     1      25.804   6.597  50.030  1.00  0.00    -0.258 OA
HETATM   24  H11 UNL     1      25.483   3.879  48.464  1.00  0.00     0.170 HD
BRANCH  22  25
HETATM   25  C18 UNL     1      27.443   5.552  48.812  1.00  0.00    -0.004 C 
HETATM   26  C19 UNL     1      28.567   5.520  48.379  1.00  0.00    -0.066 C 
BRANCH  26  27
HETATM   27  C20 UNL     1      29.925   5.494  47.847  1.00  0.00     0.365 C 
BRANCH  27  28
HETATM   28  N4  UNL     1      30.887   6.184  48.666  1.00  0.00     0.090 N 
HETATM   29  C21 UNL     1      32.248   5.859  48.374  1.00  0.00     0.310 C 
HETATM   30  C22 UNL     1      30.632   7.598  48.639  1.00  0.00     0.310 C 
ENDBRANCH  27  28
ENDBRANCH  26  27
ENDBRANCH  22  25
ENDBRANCH  12  21
TORSDOF 6
ENDMDL
