MODEL 1
REMARK VINA RESULT:      -8.2      0.000      0.000
REMARK  5 active torsions:
REMARK  status: ('A' for Active; 'I' for Inactive)
REMARK    1  A    between atoms: C11_15  and  N3_16 
REMARK    2  A    between atoms: N3_16  and  C12_17 
REMARK    3  A    between atoms: C12_17  and  C13_18 
REMARK    4  A    between atoms: C13_18  and  O2_19 
REMARK    5  A    between atoms: O2_19  and  C14_20 
ROOT
HETATM    1  O1  UNL     1      23.820   4.686  53.429  1.00  0.00    -0.295 OA
HETATM    2  C1  UNL     1      23.259   4.116  52.481  1.00  0.00     0.163 C 
HETATM    3  C2  UNL     1      21.841   4.013  51.958  1.00  0.00     0.230 C 
HETATM    4  N1  UNL     1      22.082   4.379  50.545  1.00  0.00    -0.268 NA
HETATM    5  C3  UNL     1      23.272   3.908  50.187  1.00  0.00     0.112 C 
HETATM    6  N2  UNL     1      23.116   4.450  48.849  1.00  0.00    -0.374 N 
HETATM    7  C4  UNL     1      23.177   5.794  48.302  1.00  0.00     0.149 C 
HETATM    8  C5  UNL     1      24.489   6.414  48.254  1.00  0.00     0.008 C 
HETATM    9  C6  UNL     1      25.799   6.760  48.306  1.00  0.00    -0.008 C 
HETATM   10 BR1  UNL     1      26.564   8.470  47.788  1.00  0.00    -0.056 Br
HETATM   11  C7  UNL     1      26.394   5.524  48.788  1.00  0.00     0.040 C 
HETATM   12  C8  UNL     1      27.165   4.536  49.215  1.00  0.00     0.004 C 
HETATM   13  C9  UNL     1      26.376   3.308  49.484  1.00  0.00     0.035 C 
HETATM   14  C10 UNL     1      26.394   2.928  50.900  1.00  0.00    -0.001 C 
HETATM   15  C11 UNL     1      25.197   2.958  51.522  1.00  0.00     0.020 C 
HETATM   16  C20 UNL     1      23.788   3.227  51.373  1.00  0.00     0.175 C 
HETATM   17  H3  UNL     1      22.929   3.699  48.098  1.00  0.00     0.161 HD
ENDROOT
BRANCH  15  18
HETATM   18  N3  UNL     1      25.499   2.544  52.888  1.00  0.00    -0.390 N 
HETATM   19  H12 UNL     1      24.826   3.025  53.543  1.00  0.00     0.159 HD
BRANCH  18  20
HETATM   20  C12 UNL     1      26.438   1.661  53.580  1.00  0.00     0.146 C 
BRANCH  20  21
HETATM   21  C13 UNL     1      25.864   0.341  53.988  1.00  0.00     0.195 C 
BRANCH  21  22
HETATM   22  O2  UNL     1      24.713   0.069  53.275  1.00  0.00    -0.350 OA
BRANCH  22  23
HETATM   23  C14 UNL     1      23.466  -0.299  53.607  1.00  0.00     0.068 A 
HETATM   24  C15 UNL     1      22.869  -1.013  54.607  1.00  0.00     0.037 A 
HETATM   25  C16 UNL     1      21.527  -1.253  54.714  1.00  0.00     0.003 A 
HETATM   26  C17 UNL     1      20.698  -0.745  53.750  1.00  0.00     0.000 A 
HETATM   27  C18 UNL     1      21.199  -0.013  52.701  1.00  0.00     0.003 A 
HETATM   28  C19 UNL     1      22.576   0.198  52.648  1.00  0.00     0.037 A 
ENDBRANCH  22  23
ENDBRANCH  21  22
ENDBRANCH  20  21
ENDBRANCH  18  20
ENDBRANCH  15  18
TORSDOF 5
ENDMDL
MODEL 2
REMARK VINA RESULT:      -7.9      1.694      3.451
REMARK  5 active torsions:
REMARK  status: ('A' for Active; 'I' for Inactive)
REMARK    1  A    between atoms: C11_15  and  N3_16 
REMARK    2  A    between atoms: N3_16  and  C12_17 
REMARK    3  A    between atoms: C12_17  and  C13_18 
REMARK    4  A    between atoms: C13_18  and  O2_19 
REMARK    5  A    between atoms: O2_19  and  C14_20 
ROOT
HETATM    1  O1  UNL     1      23.796   4.720  53.397  1.00  0.00    -0.295 OA
HETATM    2  C1  UNL     1      23.140   4.459  52.378  1.00  0.00     0.163 C 
HETATM    3  C2  UNL     1      21.772   4.822  51.841  1.00  0.00     0.230 C 
HETATM    4  N1  UNL     1      22.162   5.290  50.493  1.00  0.00    -0.268 NA
HETATM    5  C3  UNL     1      23.192   4.559  50.077  1.00  0.00     0.112 C 
HETATM    6  N2  UNL     1      23.246   5.295  48.827  1.00  0.00    -0.374 N 
HETATM    7  C4  UNL     1      23.696   6.629  48.471  1.00  0.00     0.149 C 
HETATM    8  C5  UNL     1      25.128   6.862  48.513  1.00  0.00     0.008 C 
HETATM    9  C6  UNL     1      26.479   6.822  48.616  1.00  0.00    -0.008 C 
HETATM   10 BR1  UNL     1      27.704   8.305  48.343  1.00  0.00    -0.056 Br
HETATM   11  C7  UNL     1      26.692   5.417  48.926  1.00  0.00     0.040 C 
HETATM   12  C8  UNL     1      27.145   4.206  49.214  1.00  0.00     0.004 C 
HETATM   13  C9  UNL     1      26.038   3.221  49.309  1.00  0.00     0.035 C 
HETATM   14  C10 UNL     1      25.893   2.667  50.658  1.00  0.00    -0.001 C 
HETATM   15  C11 UNL     1      24.725   2.946  51.274  1.00  0.00     0.020 C 
HETATM   16  C20 UNL     1      23.451   3.611  51.160  1.00  0.00     0.175 C 
HETATM   17  H3  UNL     1      22.891   4.731  47.978  1.00  0.00     0.161 HD
ENDROOT
BRANCH  15  18
HETATM   18  N3  UNL     1      24.846   2.288  52.571  1.00  0.00    -0.390 N 
HETATM   19  H12 UNL     1      25.688   2.681  53.071  1.00  0.00     0.159 HD
BRANCH  18  20
HETATM   20  C12 UNL     1      24.135   1.278  53.355  1.00  0.00     0.146 C 
BRANCH  20  21
HETATM   21  C13 UNL     1      24.832  -0.043  53.445  1.00  0.00     0.195 C 
BRANCH  21  22
HETATM   22  O2  UNL     1      26.012  -0.021  52.728  1.00  0.00    -0.350 OA
BRANCH  22  23
HETATM   23  C14 UNL     1      27.273  -0.402  52.982  1.00  0.00     0.068 A 
HETATM   24  C15 UNL     1      27.990  -1.565  52.956  1.00  0.00     0.037 A 
HETATM   25  C16 UNL     1      29.314  -1.685  53.276  1.00  0.00     0.003 A 
HETATM   26  C17 UNL     1      29.995  -0.559  53.656  1.00  0.00     0.000 A 
HETATM   27  C18 UNL     1      29.365   0.660  53.715  1.00  0.00     0.003 A 
HETATM   28  C19 UNL     1      28.015   0.718  53.377  1.00  0.00     0.037 A 
ENDBRANCH  22  23
ENDBRANCH  21  22
ENDBRANCH  20  21
ENDBRANCH  18  20
ENDBRANCH  15  18
TORSDOF 5
ENDMDL
MODEL 3
REMARK VINA RESULT:      -7.8      3.168      6.969
REMARK  5 active torsions:
REMARK  status: ('A' for Active; 'I' for Inactive)
REMARK    1  A    between atoms: C11_15  and  N3_16 
REMARK    2  A    between atoms: N3_16  and  C12_17 
REMARK    3  A    between atoms: C12_17  and  C13_18 
REMARK    4  A    between atoms: C13_18  and  O2_19 
REMARK    5  A    between atoms: O2_19  and  C14_20 
ROOT
HETATM    1  O1  UNL     1      20.578   1.279  49.653  1.00  0.00    -0.295 OA
HETATM    2  C1  UNL     1      20.250   1.275  50.849  1.00  0.00     0.163 C 
HETATM    3  C2  UNL     1      19.279   0.494  51.709  1.00  0.00     0.230 C 
HETATM    4  N1  UNL     1      20.199   0.085  52.793  1.00  0.00    -0.268 NA
HETATM    5  C3  UNL     1      21.080   1.062  52.987  1.00  0.00     0.112 C 
HETATM    6  N2  UNL     1      21.732   0.304  54.039  1.00  0.00    -0.374 N 
HETATM    7  C4  UNL     1      22.605  -0.857  54.040  1.00  0.00     0.149 C 
HETATM    8  C5  UNL     1      23.952  -0.654  53.538  1.00  0.00     0.008 C 
HETATM    9  C6  UNL     1      25.133  -0.211  53.043  1.00  0.00    -0.008 C 
HETATM   10 BR1  UNL     1      26.723  -1.280  52.713  1.00  0.00    -0.056 Br
HETATM   11  C7  UNL     1      24.859   1.210  52.898  1.00  0.00     0.040 C 
HETATM   12  C8  UNL     1      24.859   2.514  52.672  1.00  0.00     0.004 C 
HETATM   13  C9  UNL     1      23.567   3.134  53.061  1.00  0.00     0.035 C 
HETATM   14  C10 UNL     1      22.846   3.697  51.915  1.00  0.00    -0.001 C 
HETATM   15  C11 UNL     1      21.657   3.122  51.642  1.00  0.00     0.020 C 
HETATM   16  C20 UNL     1      20.712   2.105  52.031  1.00  0.00     0.175 C 
HETATM   17  H3  UNL     1      21.543   0.688  55.029  1.00  0.00     0.161 HD
ENDROOT
BRANCH  15  18
HETATM   18  N3  UNL     1      21.168   3.860  50.482  1.00  0.00    -0.390 N 
HETATM   19  H12 UNL     1      20.505   3.240  49.942  1.00  0.00     0.159 HD
BRANCH  18  20
HETATM   20  C12 UNL     1      21.323   5.187  49.886  1.00  0.00     0.146 C 
BRANCH  20  21
HETATM   21  C13 UNL     1      22.151   5.216  48.640  1.00  0.00     0.195 C 
BRANCH  21  22
HETATM   22  O2  UNL     1      23.408   5.723  48.903  1.00  0.00    -0.350 OA
BRANCH  22  23
HETATM   23  C14 UNL     1      24.637   5.190  48.992  1.00  0.00     0.068 A 
HETATM   24  C15 UNL     1      25.182   3.993  49.360  1.00  0.00     0.037 A 
HETATM   25  C16 UNL     1      26.517   3.699  49.363  1.00  0.00     0.003 A 
HETATM   26  C17 UNL     1      27.396   4.672  48.968  1.00  0.00     0.000 A 
HETATM   27  C18 UNL     1      26.950   5.911  48.579  1.00  0.00     0.003 A 
HETATM   28  C19 UNL     1      25.577   6.149  48.597  1.00  0.00     0.037 A 
ENDBRANCH  22  23
ENDBRANCH  21  22
ENDBRANCH  20  21
ENDBRANCH  18  20
ENDBRANCH  15  18
TORSDOF 5
ENDMDL
MODEL 4
REMARK VINA RESULT:      -7.6      7.556     10.382
REMARK  5 active torsions:
REMARK  status: ('A' for Active; 'I' for Inactive)
REMARK    1  A    between atoms: C11_15  and  N3_16 
REMARK    2  A    between atoms: N3_16  and  C12_17 
REMARK    3  A    between atoms: C12_17  and  C13_18 
REMARK    4  A    between atoms: C13_18  and  O2_19 
REMARK    5  A    between atoms: O2_19  and  C14_20 
ROOT
HETATM    1  O1  UNL     1      30.584  10.057  45.678  1.00  0.00    -0.295 OA
HETATM    2  C1  UNL     1      30.804  10.143  46.895  1.00  0.00     0.163 C 
HETATM    3  C2  UNL     1      30.851  11.261  47.916  1.00  0.00     0.230 C 
HETATM    4  N1  UNL     1      29.949  10.686  48.938  1.00  0.00    -0.268 NA
HETATM    5  C3  UNL     1      30.117   9.368  48.953  1.00  0.00     0.112 C 
HETATM    6  N2  UNL     1      29.125   9.224  50.002  1.00  0.00    -0.374 N 
HETATM    7  C4  UNL     1      27.676   9.316  50.027  1.00  0.00     0.149 C 
HETATM    8  C5  UNL     1      26.948   8.240  49.378  1.00  0.00     0.008 C 
HETATM    9  C6  UNL     1      26.510   7.133  48.731  1.00  0.00    -0.008 C 
HETATM   10 BR1  UNL     1      24.662   6.671  48.348  1.00  0.00    -0.056 Br
HETATM   11  C7  UNL     1      27.766   6.442  48.481  1.00  0.00     0.040 C 
HETATM   12  C8  UNL     1      28.753   5.631  48.134  1.00  0.00     0.004 C 
HETATM   13  C9  UNL     1      30.068   6.151  48.588  1.00  0.00     0.035 C 
HETATM   14  C10 UNL     1      30.956   6.485  47.470  1.00  0.00    -0.001 C 
HETATM   15  C11 UNL     1      31.294   7.787  47.370  1.00  0.00     0.020 C 
HETATM   16  C20 UNL     1      31.141   9.101  47.943  1.00  0.00     0.175 C 
HETATM   17  H3  UNL     1      29.547   8.984  50.965  1.00  0.00     0.161 HD
ENDROOT
BRANCH  15  18
HETATM   18  N3  UNL     1      32.163   7.836  46.199  1.00  0.00    -0.390 N 
HETATM   19  H12 UNL     1      31.596   8.160  45.371  1.00  0.00     0.159 HD
BRANCH  18  20
HETATM   20  C12 UNL     1      33.566   7.583  45.868  1.00  0.00     0.146 C 
BRANCH  20  21
HETATM   21  C13 UNL     1      33.778   6.836  44.589  1.00  0.00     0.195 C 
BRANCH  21  22
HETATM   22  O2  UNL     1      33.528   5.490  44.765  1.00  0.00    -0.350 OA
BRANCH  22  23
HETATM   23  C14 UNL     1      33.724   4.620  45.769  1.00  0.00     0.068 A 
HETATM   24  C15 UNL     1      34.713   4.340  46.669  1.00  0.00     0.037 A 
HETATM   25  C16 UNL     1      34.660   3.362  47.623  1.00  0.00     0.003 A 
HETATM   26  C17 UNL     1      33.532   2.590  47.699  1.00  0.00     0.000 A 
HETATM   27  C18 UNL     1      32.479   2.791  46.840  1.00  0.00     0.003 A 
HETATM   28  C19 UNL     1      32.593   3.804  45.889  1.00  0.00     0.037 A 
ENDBRANCH  22  23
ENDBRANCH  21  22
ENDBRANCH  20  21
ENDBRANCH  18  20
ENDBRANCH  15  18
TORSDOF 5
ENDMDL
MODEL 5
REMARK VINA RESULT:      -7.6      3.376      5.501
REMARK  5 active torsions:
REMARK  status: ('A' for Active; 'I' for Inactive)
REMARK    1  A    between atoms: C11_15  and  N3_16 
REMARK    2  A    between atoms: N3_16  and  C12_17 
REMARK    3  A    between atoms: C12_17  and  C13_18 
REMARK    4  A    between atoms: C13_18  and  O2_19 
REMARK    5  A    between atoms: O2_19  and  C14_20 
ROOT
HETATM    1  O1  UNL     1      23.150   4.279  52.321  1.00  0.00    -0.295 OA
HETATM    2  C1  UNL     1      23.301   3.055  52.186  1.00  0.00     0.163 C 
HETATM    3  C2  UNL     1      23.445   1.868  53.114  1.00  0.00     0.230 C 
HETATM    4  N1  UNL     1      22.404   0.989  52.537  1.00  0.00    -0.268 NA
HETATM    5  C3  UNL     1      22.375   1.180  51.222  1.00  0.00     0.112 C 
HETATM    6  N2  UNL     1      21.306   0.209  51.076  1.00  0.00    -0.374 N 
HETATM    7  C4  UNL     1      19.887   0.230  51.387  1.00  0.00     0.149 C 
HETATM    8  C5  UNL     1      19.053   1.072  50.549  1.00  0.00     0.008 C 
HETATM    9  C6  UNL     1      18.501   1.907  49.635  1.00  0.00    -0.008 C 
HETATM   10 BR1  UNL     1      16.634   2.434  49.530  1.00  0.00    -0.056 Br
HETATM   11  C7  UNL     1      19.655   2.212  48.804  1.00  0.00     0.040 C 
HETATM   12  C8  UNL     1      20.533   2.644  47.912  1.00  0.00     0.004 C 
HETATM   13  C9  UNL     1      21.877   2.058  48.145  1.00  0.00     0.035 C 
HETATM   14  C10 UNL     1      22.876   3.070  48.504  1.00  0.00    -0.001 C 
HETATM   15  C11 UNL     1      23.407   2.946  49.738  1.00  0.00     0.020 C 
HETATM   16  C20 UNL     1      23.412   2.176  50.957  1.00  0.00     0.175 C 
HETATM   17  H3  UNL     1      21.625  -0.720  50.629  1.00  0.00     0.161 HD
ENDROOT
BRANCH  15  18
HETATM   18  N3  UNL     1      24.349   4.057  49.829  1.00  0.00    -0.390 N 
HETATM   19  H12 UNL     1      23.805   4.961  49.838  1.00  0.00     0.159 HD
BRANCH  18  20
HETATM   20  C12 UNL     1      25.795   4.259  49.925  1.00  0.00     0.146 C 
BRANCH  20  21
HETATM   21  C13 UNL     1      26.597   2.997  49.975  1.00  0.00     0.195 C 
BRANCH  21  22
HETATM   22  O2  UNL     1      27.172   2.835  51.220  1.00  0.00    -0.350 OA
BRANCH  22  23
HETATM   23  C14 UNL     1      27.038   1.937  52.208  1.00  0.00     0.068 A 
HETATM   24  C15 UNL     1      27.181   1.918  53.566  1.00  0.00     0.037 A 
HETATM   25  C16 UNL     1      26.978   0.829  54.368  1.00  0.00     0.003 A 
HETATM   26  C17 UNL     1      26.597  -0.348  53.779  1.00  0.00     0.000 A 
HETATM   27  C18 UNL     1      26.425  -0.434  52.419  1.00  0.00     0.003 A 
HETATM   28  C19 UNL     1      26.648   0.711  51.656  1.00  0.00     0.037 A 
ENDBRANCH  22  23
ENDBRANCH  21  22
ENDBRANCH  20  21
ENDBRANCH  18  20
ENDBRANCH  15  18
TORSDOF 5
ENDMDL
MODEL 6
REMARK VINA RESULT:      -7.6      3.392      5.725
REMARK  5 active torsions:
REMARK  status: ('A' for Active; 'I' for Inactive)
REMARK    1  A    between atoms: C11_15  and  N3_16 
REMARK    2  A    between atoms: N3_16  and  C12_17 
REMARK    3  A    between atoms: C12_17  and  C13_18 
REMARK    4  A    between atoms: C13_18  and  O2_19 
REMARK    5  A    between atoms: O2_19  and  C14_20 
ROOT
HETATM    1  O1  UNL     1      23.792   3.621  48.988  1.00  0.00    -0.295 OA
HETATM    2  C1  UNL     1      23.432   4.160  50.045  1.00  0.00     0.163 C 
HETATM    3  C2  UNL     1      22.934   5.530  50.453  1.00  0.00     0.230 C 
HETATM    4  N1  UNL     1      21.711   5.130  51.183  1.00  0.00    -0.268 NA
HETATM    5  C3  UNL     1      21.947   3.974  51.796  1.00  0.00     0.112 C 
HETATM    6  N2  UNL     1      20.601   3.953  52.339  1.00  0.00    -0.374 N 
HETATM    7  C4  UNL     1      19.295   3.694  51.760  1.00  0.00     0.149 C 
HETATM    8  C5  UNL     1      19.017   2.321  51.379  1.00  0.00     0.008 C 
HETATM    9  C6  UNL     1      18.999   0.990  51.124  1.00  0.00    -0.008 C 
HETATM   10 BR1  UNL     1      17.560  -0.006  50.279  1.00  0.00    -0.056 Br
HETATM   11  C7  UNL     1      20.277   0.582  51.684  1.00  0.00     0.040 C 
HETATM   12  C8  UNL     1      21.369  -0.033  52.110  1.00  0.00     0.004 C 
HETATM   13  C9  UNL     1      22.297   0.910  52.784  1.00  0.00     0.035 C 
HETATM   14  C10 UNL     1      23.568   1.056  52.067  1.00  0.00    -0.001 C 
HETATM   15  C11 UNL     1      23.821   2.291  51.586  1.00  0.00     0.020 C 
HETATM   16  C20 UNL     1      23.333   3.642  51.466  1.00  0.00     0.175 C 
HETATM   17  H3  UNL     1      20.559   4.160  53.396  1.00  0.00     0.161 HD
ENDROOT
BRANCH  15  18
HETATM   18  N3  UNL     1      25.119   2.155  50.934  1.00  0.00    -0.390 N 
HETATM   19  H12 UNL     1      24.967   1.823  49.944  1.00  0.00     0.159 HD
BRANCH  18  20
HETATM   20  C12 UNL     1      26.531   2.360  51.258  1.00  0.00     0.146 C 
BRANCH  20  21
HETATM   21  C13 UNL     1      26.849   2.305  52.719  1.00  0.00     0.195 C 
BRANCH  21  22
HETATM   22  O2  UNL     1      26.763   1.009  53.187  1.00  0.00    -0.350 OA
BRANCH  22  23
HETATM   23  C14 UNL     1      27.600  -0.039  53.213  1.00  0.00     0.068 A 
HETATM   24  C15 UNL     1      28.904  -0.268  53.553  1.00  0.00     0.037 A 
HETATM   25  C16 UNL     1      29.539  -1.476  53.481  1.00  0.00     0.003 A 
HETATM   26  C17 UNL     1      28.828  -2.558  53.034  1.00  0.00     0.000 A 
HETATM   27  C18 UNL     1      27.510  -2.434  52.668  1.00  0.00     0.003 A 
HETATM   28  C19 UNL     1      26.918  -1.176  52.763  1.00  0.00     0.037 A 
ENDBRANCH  22  23
ENDBRANCH  21  22
ENDBRANCH  20  21
ENDBRANCH  18  20
ENDBRANCH  15  18
TORSDOF 5
ENDMDL
MODEL 7
REMARK VINA RESULT:      -7.3      2.403      3.820
REMARK  5 active torsions:
REMARK  status: ('A' for Active; 'I' for Inactive)
REMARK    1  A    between atoms: C11_15  and  N3_16 
REMARK    2  A    between atoms: N3_16  and  C12_17 
REMARK    3  A    between atoms: C12_17  and  C13_18 
REMARK    4  A    between atoms: C13_18  and  O2_19 
REMARK    5  A    between atoms: O2_19  and  C14_20 
ROOT
HETATM    1  O1  UNL     1      19.963   3.119  52.688  1.00  0.00    -0.295 OA
HETATM    2  C1  UNL     1      19.546   3.389  51.551  1.00  0.00     0.163 C 
HETATM    3  C2  UNL     1      18.418   4.219  50.974  1.00  0.00     0.230 C 
HETATM    4  N1  UNL     1      19.190   5.029  50.007  1.00  0.00    -0.268 NA
HETATM    5  C3  UNL     1      20.173   4.277  49.520  1.00  0.00     0.112 C 
HETATM    6  N2  UNL     1      20.638   5.372  48.689  1.00  0.00    -0.374 N 
HETATM    7  C4  UNL     1      21.350   6.607  48.968  1.00  0.00     0.149 C 
HETATM    8  C5  UNL     1      22.747   6.478  49.343  1.00  0.00     0.008 C 
HETATM    9  C6  UNL     1      24.010   6.097  49.652  1.00  0.00    -0.008 C 
HETATM   10 BR1  UNL     1      25.468   7.262  50.197  1.00  0.00    -0.056 Br
HETATM   11  C7  UNL     1      23.935   4.664  49.417  1.00  0.00     0.040 C 
HETATM   12  C8  UNL     1      24.122   3.361  49.280  1.00  0.00     0.004 C 
HETATM   13  C9  UNL     1      22.896   2.684  48.789  1.00  0.00     0.035 C 
HETATM   14  C10 UNL     1      22.345   1.740  49.766  1.00  0.00    -0.001 C 
HETATM   15  C11 UNL     1      21.115   2.042  50.232  1.00  0.00     0.020 C 
HETATM   16  C20 UNL     1      20.019   2.977  50.171  1.00  0.00     0.175 C 
HETATM   17  H3  UNL     1      20.424   5.239  47.640  1.00  0.00     0.161 HD
ENDROOT
BRANCH  15  18
HETATM   18  N3  UNL     1      20.817   0.962  51.166  1.00  0.00    -0.390 N 
HETATM   19  H12 UNL     1      19.782   0.970  51.372  1.00  0.00     0.159 HD
BRANCH  18  20
HETATM   20  C12 UNL     1      21.531  -0.109  51.863  1.00  0.00     0.146 C 
BRANCH  20  21
HETATM   21  C13 UNL     1      21.636   0.075  53.344  1.00  0.00     0.195 C 
BRANCH  21  22
HETATM   22  O2  UNL     1      22.871   0.589  53.684  1.00  0.00    -0.350 OA
BRANCH  22  23
HETATM   23  C14 UNL     1      24.077   0.606  53.095  1.00  0.00     0.068 A 
HETATM   24  C15 UNL     1      24.788   1.459  52.301  1.00  0.00     0.037 A 
HETATM   25  C16 UNL     1      26.045   1.227  51.816  1.00  0.00     0.003 A 
HETATM   26  C17 UNL     1      26.659   0.047  52.144  1.00  0.00     0.000 A 
HETATM   27  C18 UNL     1      26.029  -0.880  52.938  1.00  0.00     0.003 A 
HETATM   28  C19 UNL     1      24.748  -0.584  53.401  1.00  0.00     0.037 A 
ENDBRANCH  22  23
ENDBRANCH  21  22
ENDBRANCH  20  21
ENDBRANCH  18  20
ENDBRANCH  15  18
TORSDOF 5
ENDMDL
MODEL 8
REMARK VINA RESULT:      -7.1      2.123      3.856
REMARK  5 active torsions:
REMARK  status: ('A' for Active; 'I' for Inactive)
REMARK    1  A    between atoms: C11_15  and  N3_16 
REMARK    2  A    between atoms: N3_16  and  C12_17 
REMARK    3  A    between atoms: C12_17  and  C13_18 
REMARK    4  A    between atoms: C13_18  and  O2_19 
REMARK    5  A    between atoms: O2_19  and  C14_20 
ROOT
HETATM    1  O1  UNL     1      22.703   2.480  49.568  1.00  0.00    -0.295 OA
HETATM    2  C1  UNL     1      23.537   2.997  50.327  1.00  0.00     0.163 C 
HETATM    3  C2  UNL     1      24.926   2.647  50.817  1.00  0.00     0.230 C 
HETATM    4  N1  UNL     1      25.614   3.920  50.507  1.00  0.00    -0.268 NA
HETATM    5  C3  UNL     1      24.755   4.917  50.693  1.00  0.00     0.112 C 
HETATM    6  N2  UNL     1      25.759   5.892  50.307  1.00  0.00    -0.374 N 
HETATM    7  C4  UNL     1      26.346   6.270  49.033  1.00  0.00     0.149 C 
HETATM    8  C5  UNL     1      25.487   6.991  48.112  1.00  0.00     0.008 C 
HETATM    9  C6  UNL     1      24.505   7.651  47.450  1.00  0.00    -0.008 C 
HETATM   10 BR1  UNL     1      24.608   8.368  45.646  1.00  0.00    -0.056 Br
HETATM   11  C7  UNL     1      23.460   7.683  48.460  1.00  0.00     0.040 C 
HETATM   12  C8  UNL     1      22.367   7.839  49.192  1.00  0.00     0.004 C 
HETATM   13  C9  UNL     1      22.540   7.276  50.554  1.00  0.00     0.035 C 
HETATM   14  C10 UNL     1      21.642   6.146  50.813  1.00  0.00    -0.001 C 
HETATM   15  C11 UNL     1      22.251   4.963  51.035  1.00  0.00     0.020 C 
HETATM   16  C20 UNL     1      23.516   4.279  51.136  1.00  0.00     0.175 C 
HETATM   17  H3  UNL     1      26.141   6.469  51.134  1.00  0.00     0.161 HD
ENDROOT
BRANCH  15  18
HETATM   18  N3  UNL     1      21.147   4.036  51.259  1.00  0.00    -0.390 N 
HETATM   19  H12 UNL     1      20.778   3.718  50.323  1.00  0.00     0.159 HD
BRANCH  18  20
HETATM   20  C12 UNL     1      20.442   3.428  52.388  1.00  0.00     0.146 C 
BRANCH  20  21
HETATM   21  C13 UNL     1      19.756   2.137  52.070  1.00  0.00     0.195 C 
BRANCH  21  22
HETATM   22  O2  UNL     1      20.125   1.156  52.968  1.00  0.00    -0.350 OA
BRANCH  22  23
HETATM   23  C14 UNL     1      21.282   0.548  53.273  1.00  0.00     0.068 A 
HETATM   24  C15 UNL     1      22.541   0.476  52.748  1.00  0.00     0.037 A 
HETATM   25  C16 UNL     1      23.577  -0.245  53.273  1.00  0.00     0.003 A 
HETATM   26  C17 UNL     1      23.354  -0.960  54.420  1.00  0.00     0.000 A 
HETATM   27  C18 UNL     1      22.123  -0.954  55.028  1.00  0.00     0.003 A 
HETATM   28  C19 UNL     1      21.107  -0.199  54.444  1.00  0.00     0.037 A 
ENDBRANCH  22  23
ENDBRANCH  21  22
ENDBRANCH  20  21
ENDBRANCH  18  20
ENDBRANCH  15  18
TORSDOF 5
ENDMDL
MODEL 9
REMARK VINA RESULT:      -6.9      3.492      7.348
REMARK  5 active torsions:
REMARK  status: ('A' for Active; 'I' for Inactive)
REMARK    1  A    between atoms: C11_15  and  N3_16 
REMARK    2  A    between atoms: N3_16  and  C12_17 
REMARK    3  A    between atoms: C12_17  and  C13_18 
REMARK    4  A    between atoms: C13_18  and  O2_19 
REMARK    5  A    between atoms: O2_19  and  C14_20 
ROOT
HETATM    1  O1  UNL     1      21.219   3.586  49.216  1.00  0.00    -0.295 OA
HETATM    2  C1  UNL     1      21.573   4.355  50.122  1.00  0.00     0.163 C 
HETATM    3  C2  UNL     1      20.981   4.845  51.427  1.00  0.00     0.230 C 
HETATM    4  N1  UNL     1      22.120   4.556  52.326  1.00  0.00    -0.268 NA
HETATM    5  C3  UNL     1      23.248   4.752  51.652  1.00  0.00     0.112 C 
HETATM    6  N2  UNL     1      24.039   4.383  52.811  1.00  0.00    -0.374 N 
HETATM    7  C4  UNL     1      24.327   3.117  53.463  1.00  0.00     0.149 C 
HETATM    8  C5  UNL     1      25.198   2.204  52.746  1.00  0.00     0.008 C 
HETATM    9  C6  UNL     1      26.026   1.547  51.898  1.00  0.00    -0.008 C 
HETATM   10 BR1  UNL     1      26.738  -0.246  52.133  1.00  0.00    -0.056 Br
HETATM   11  C7  UNL     1      26.225   2.554  50.868  1.00  0.00     0.040 C 
HETATM   12  C8  UNL     1      26.559   3.284  49.815  1.00  0.00     0.004 C 
HETATM   13  C9  UNL     1      25.956   4.639  49.879  1.00  0.00     0.035 C 
HETATM   14  C10 UNL     1      24.996   4.879  48.798  1.00  0.00    -0.001 C 
HETATM   15  C11 UNL     1      23.722   5.086  49.192  1.00  0.00     0.020 C 
HETATM   16  C20 UNL     1      22.828   5.182  50.319  1.00  0.00     0.175 C 
HETATM   17  H3  UNL     1      24.531   5.219  53.283  1.00  0.00     0.161 HD
ENDROOT
BRANCH  15  18
HETATM   18  N3  UNL     1      22.997   5.294  47.943  1.00  0.00    -0.390 N 
HETATM   19  H12 UNL     1      22.825   4.354  47.492  1.00  0.00     0.159 HD
BRANCH  18  20
HETATM   20  C12 UNL     1      22.444   6.407  47.171  1.00  0.00     0.146 C 
BRANCH  20  21
HETATM   21  C13 UNL     1      23.464   7.370  46.650  1.00  0.00     0.195 C 
BRANCH  21  22
HETATM   22  O2  UNL     1      23.893   8.215  47.654  1.00  0.00    -0.350 OA
BRANCH  22  23
HETATM   23  C14 UNL     1      25.044   8.365  48.328  1.00  0.00     0.068 A 
HETATM   24  C15 UNL     1      25.425   8.776  49.574  1.00  0.00     0.037 A 
HETATM   25  C16 UNL     1      26.714   8.841  50.025  1.00  0.00     0.003 A 
HETATM   26  C17 UNL     1      27.720   8.466  49.174  1.00  0.00     0.000 A 
HETATM   27  C18 UNL     1      27.442   8.037  47.899  1.00  0.00     0.003 A 
HETATM   28  C19 UNL     1      26.108   7.993  47.497  1.00  0.00     0.037 A 
ENDBRANCH  22  23
ENDBRANCH  21  22
ENDBRANCH  20  21
ENDBRANCH  18  20
ENDBRANCH  15  18
TORSDOF 5
ENDMDL
