MODEL 1
REMARK VINA RESULT:      -8.0      0.000      0.000
REMARK  2 active torsions:
REMARK  status: ('A' for Active; 'I' for Inactive)
REMARK    1  A    between atoms: C4_4  and  C5_5 
REMARK    2  A    between atoms: C5_5  and  C6_6 
ROOT
HETATM    1  C6  UNL     1      25.234   1.288  52.996  1.00  0.00     0.053 A 
HETATM    2  N1  UNL     1      26.021   2.151  52.334  1.00  0.00    -0.245 NA
HETATM    3  C7  UNL     1      25.704   2.848  51.242  1.00  0.00     0.234 A 
HETATM    4  N2  UNL     1      24.461   2.642  50.783  1.00  0.00    -0.234 NA
HETATM    5  C8  UNL     1      23.661   1.802  51.408  1.00  0.00     0.112 A 
HETATM    6  S1  UNL     1      21.997   1.349  51.055  1.00  0.00    -0.072 SA
HETATM    7  C9  UNL     1      21.785   0.221  52.413  1.00  0.00     0.020 A 
HETATM    8  C10 UNL     1      23.041   0.245  53.097  1.00  0.00    -0.026 A 
HETATM    9  C11 UNL     1      23.960   1.074  52.531  1.00  0.00     0.032 A 
HETATM   10  C12 UNL     1      22.804  -0.682  54.208  1.00  0.00     0.070 C 
HETATM   11  C13 UNL     1      21.543  -0.142  54.925  1.00  0.00     0.274 C 
HETATM   12  N3  UNL     1      20.357  -0.563  54.207  1.00  0.00     0.088 N 
HETATM   13  C14 UNL     1      20.588  -0.572  52.775  1.00  0.00     0.316 C 
HETATM   14  H11 UNL     1      19.564   0.112  54.416  1.00  0.00     0.316 HD
ENDROOT
BRANCH   1  15
HETATM   15  C5  UNL     1      25.939   0.646  54.133  1.00  0.00     0.099 C 
BRANCH  15  16
HETATM   16  C4  UNL     1      26.882  -0.407  53.689  1.00  0.00    -0.052 A 
HETATM   17  C3  UNL     1      26.833  -1.588  53.011  1.00  0.00     0.007 A 
HETATM   18  C2  UNL     1      27.885  -2.407  52.708  1.00  0.00     0.001 A 
HETATM   19  C1  UNL     1      29.159  -2.018  53.125  1.00  0.00     0.000 A 
HETATM   20  C16 UNL     1      29.362  -0.833  53.829  1.00  0.00     0.001 A 
HETATM   21  C15 UNL     1      28.200  -0.113  54.060  1.00  0.00     0.007 A 
ENDBRANCH  15  16
ENDBRANCH   1  15
TORSDOF 2
ENDMDL
MODEL 2
REMARK VINA RESULT:      -7.9      0.907      1.402
REMARK  2 active torsions:
REMARK  status: ('A' for Active; 'I' for Inactive)
REMARK    1  A    between atoms: C4_4  and  C5_5 
REMARK    2  A    between atoms: C5_5  and  C6_6 
ROOT
HETATM    1  C6  UNL     1      25.257   0.728  52.270  1.00  0.00     0.053 A 
HETATM    2  N1  UNL     1      26.146   1.565  51.714  1.00  0.00    -0.245 NA
HETATM    3  C7  UNL     1      25.899   2.773  51.206  1.00  0.00     0.234 A 
HETATM    4  N2  UNL     1      24.617   3.161  51.272  1.00  0.00    -0.234 NA
HETATM    5  C8  UNL     1      23.717   2.364  51.812  1.00  0.00     0.112 A 
HETATM    6  S1  UNL     1      21.990   2.606  52.050  1.00  0.00    -0.072 SA
HETATM    7  C9  UNL     1      21.659   1.047  52.841  1.00  0.00     0.020 A 
HETATM    8  C10 UNL     1      22.930   0.393  52.886  1.00  0.00    -0.026 A 
HETATM    9  C11 UNL     1      23.943   1.120  52.343  1.00  0.00     0.032 A 
HETATM   10  C12 UNL     1      22.602  -0.869  53.558  1.00  0.00     0.070 C 
HETATM   11  C13 UNL     1      21.916  -0.457  54.883  1.00  0.00     0.274 C 
HETATM   12  N3  UNL     1      20.527  -0.130  54.632  1.00  0.00     0.088 N 
HETATM   13  C14 UNL     1      20.368   0.526  53.347  1.00  0.00     0.316 C 
HETATM   14  H11 UNL     1      20.180   0.528  55.390  1.00  0.00     0.316 HD
ENDROOT
BRANCH   1  15
HETATM   15  C5  UNL     1      25.876  -0.559  52.674  1.00  0.00     0.099 C 
BRANCH  15  16
HETATM   16  C4  UNL     1      27.291  -0.400  53.083  1.00  0.00    -0.052 A 
HETATM   17  C3  UNL     1      28.104   0.591  53.549  1.00  0.00     0.007 A 
HETATM   18  C2  UNL     1      29.427   0.483  53.875  1.00  0.00     0.001 A 
HETATM   19  C1  UNL     1      30.039  -0.762  53.724  1.00  0.00     0.000 A 
HETATM   20  C16 UNL     1      29.333  -1.867  53.256  1.00  0.00     0.001 A 
HETATM   21  C15 UNL     1      28.003  -1.600  52.969  1.00  0.00     0.007 A 
ENDBRANCH  15  16
ENDBRANCH   1  15
TORSDOF 2
ENDMDL
MODEL 3
REMARK VINA RESULT:      -7.6      1.371      3.779
REMARK  2 active torsions:
REMARK  status: ('A' for Active; 'I' for Inactive)
REMARK    1  A    between atoms: C4_4  and  C5_5 
REMARK    2  A    between atoms: C5_5  and  C6_6 
ROOT
HETATM    1  C6  UNL     1      24.041  -0.020  53.670  1.00  0.00     0.053 A 
HETATM    2  N1  UNL     1      23.098  -0.961  53.834  1.00  0.00    -0.245 NA
HETATM    3  C7  UNL     1      21.974  -1.100  53.130  1.00  0.00     0.234 A 
HETATM    4  N2  UNL     1      21.797  -0.185  52.165  1.00  0.00    -0.234 NA
HETATM    5  C8  UNL     1      22.702   0.753  51.976  1.00  0.00     0.112 A 
HETATM    6  S1  UNL     1      22.750   2.057  50.794  1.00  0.00    -0.072 SA
HETATM    7  C9  UNL     1      24.308   2.750  51.298  1.00  0.00     0.020 A 
HETATM    8  C10 UNL     1      24.733   1.923  52.384  1.00  0.00    -0.026 A 
HETATM    9  C11 UNL     1      23.866   0.918  52.682  1.00  0.00     0.032 A 
HETATM   10  C12 UNL     1      26.020   2.526  52.744  1.00  0.00     0.070 C 
HETATM   11  C13 UNL     1      26.844   2.537  51.434  1.00  0.00     0.274 C 
HETATM   12  N3  UNL     1      26.447   3.665  50.617  1.00  0.00     0.088 N 
HETATM   13  C14 UNL     1      25.022   3.919  50.733  1.00  0.00     0.316 C 
HETATM   14  H11 UNL     1      26.669   3.455  49.600  1.00  0.00     0.316 HD
ENDROOT
BRANCH   1  15
HETATM   15  C5  UNL     1      25.128  -0.134  54.674  1.00  0.00     0.099 C 
BRANCH  15  16
HETATM   16  C4  UNL     1      26.405  -0.586  54.072  1.00  0.00    -0.052 A 
HETATM   17  C3  UNL     1      26.814  -1.429  53.083  1.00  0.00     0.007 A 
HETATM   18  C2  UNL     1      28.102  -1.681  52.697  1.00  0.00     0.001 A 
HETATM   19  C1  UNL     1      29.128  -1.018  53.372  1.00  0.00     0.000 A 
HETATM   20  C16 UNL     1      28.860  -0.126  54.407  1.00  0.00     0.001 A 
HETATM   21  C15 UNL     1      27.509   0.023  54.681  1.00  0.00     0.007 A 
ENDBRANCH  15  16
ENDBRANCH   1  15
TORSDOF 2
ENDMDL
MODEL 4
REMARK VINA RESULT:      -7.5      2.033      3.401
REMARK  2 active torsions:
REMARK  status: ('A' for Active; 'I' for Inactive)
REMARK    1  A    between atoms: C4_4  and  C5_5 
REMARK    2  A    between atoms: C5_5  and  C6_6 
ROOT
HETATM    1  C6  UNL     1      24.141  -0.174  53.453  1.00  0.00     0.053 A 
HETATM    2  N1  UNL     1      24.594  -0.875  54.505  1.00  0.00    -0.245 NA
HETATM    3  C7  UNL     1      23.863  -1.425  55.475  1.00  0.00     0.234 A 
HETATM    4  N2  UNL     1      22.540  -1.239  55.358  1.00  0.00    -0.234 NA
HETATM    5  C8  UNL     1      22.060  -0.556  54.338  1.00  0.00     0.112 A 
HETATM    6  S1  UNL     1      20.395  -0.171  53.917  1.00  0.00    -0.072 SA
HETATM    7  C9  UNL     1      20.750   0.729  52.425  1.00  0.00     0.020 A 
HETATM    8  C10 UNL     1      22.175   0.691  52.315  1.00  0.00    -0.026 A 
HETATM    9  C11 UNL     1      22.788   0.018  53.327  1.00  0.00     0.032 A 
HETATM   10  C12 UNL     1      22.407   1.428  51.069  1.00  0.00     0.070 C 
HETATM   11  C13 UNL     1      21.548   0.704  50.004  1.00  0.00     0.274 C 
HETATM   12  N3  UNL     1      20.171   1.144  50.108  1.00  0.00     0.088 N 
HETATM   13  C14 UNL     1      19.800   1.378  51.492  1.00  0.00     0.316 C 
HETATM   14  H11 UNL     1      19.533   0.392  49.711  1.00  0.00     0.316 HD
ENDROOT
BRANCH   1  15
HETATM   15  C5  UNL     1      25.245   0.342  52.606  1.00  0.00     0.099 C 
BRANCH  15  16
HETATM   16  C4  UNL     1      26.567   0.209  53.262  1.00  0.00    -0.052 A 
HETATM   17  C3  UNL     1      27.283   0.845  54.232  1.00  0.00     0.007 A 
HETATM   18  C2  UNL     1      28.531   0.514  54.684  1.00  0.00     0.001 A 
HETATM   19  C1  UNL     1      29.164  -0.589  54.108  1.00  0.00     0.000 A 
HETATM   20  C16 UNL     1      28.553  -1.336  53.104  1.00  0.00     0.001 A 
HETATM   21  C15 UNL     1      27.292  -0.876  52.754  1.00  0.00     0.007 A 
ENDBRANCH  15  16
ENDBRANCH   1  15
TORSDOF 2
ENDMDL
MODEL 5
REMARK VINA RESULT:      -7.4      1.970      4.187
REMARK  2 active torsions:
REMARK  status: ('A' for Active; 'I' for Inactive)
REMARK    1  A    between atoms: C4_4  and  C5_5 
REMARK    2  A    between atoms: C5_5  and  C6_6 
ROOT
HETATM    1  C6  UNL     1      24.869   0.490  52.358  1.00  0.00     0.053 A 
HETATM    2  N1  UNL     1      24.414  -0.481  53.166  1.00  0.00    -0.245 NA
HETATM    3  C7  UNL     1      23.245  -0.506  53.808  1.00  0.00     0.234 A 
HETATM    4  N2  UNL     1      22.467   0.568  53.604  1.00  0.00    -0.234 NA
HETATM    5  C8  UNL     1      22.882   1.539  52.817  1.00  0.00     0.112 A 
HETATM    6  S1  UNL     1      22.085   3.038  52.354  1.00  0.00    -0.072 SA
HETATM    7  C9  UNL     1      23.374   3.653  51.294  1.00  0.00     0.020 A 
HETATM    8  C10 UNL     1      24.389   2.647  51.346  1.00  0.00    -0.026 A 
HETATM    9  C11 UNL     1      24.077   1.590  52.144  1.00  0.00     0.032 A 
HETATM   10  C12 UNL     1      25.411   3.194  50.448  1.00  0.00     0.070 C 
HETATM   11  C13 UNL     1      24.677   3.458  49.111  1.00  0.00     0.274 C 
HETATM   12  N3  UNL     1      23.953   4.711  49.192  1.00  0.00     0.088 N 
HETATM   13  C14 UNL     1      23.409   4.916  50.521  1.00  0.00     0.316 C 
HETATM   14  H11 UNL     1      23.149   4.696  48.498  1.00  0.00     0.316 HD
ENDROOT
BRANCH   1  15
HETATM   15  C5  UNL     1      26.241   0.210  51.864  1.00  0.00     0.099 C 
BRANCH  15  16
HETATM   16  C4  UNL     1      27.282   0.846  52.704  1.00  0.00    -0.052 A 
HETATM   17  C3  UNL     1      27.763   2.099  52.944  1.00  0.00     0.007 A 
HETATM   18  C2  UNL     1      28.767   2.443  53.806  1.00  0.00     0.001 A 
HETATM   19  C1  UNL     1      29.386   1.424  54.531  1.00  0.00     0.000 A 
HETATM   20  C16 UNL     1      29.000   0.093  54.389  1.00  0.00     0.001 A 
HETATM   21  C15 UNL     1      27.970  -0.096  53.479  1.00  0.00     0.007 A 
ENDBRANCH  15  16
ENDBRANCH   1  15
TORSDOF 2
ENDMDL
MODEL 6
REMARK VINA RESULT:      -7.3      2.454      6.357
REMARK  2 active torsions:
REMARK  status: ('A' for Active; 'I' for Inactive)
REMARK    1  A    between atoms: C4_4  and  C5_5 
REMARK    2  A    between atoms: C5_5  and  C6_6 
ROOT
HETATM    1  C6  UNL     1      22.381   0.019  52.795  1.00  0.00     0.053 A 
HETATM    2  N1  UNL     1      21.157  -0.452  53.081  1.00  0.00    -0.245 NA
HETATM    3  C7  UNL     1      20.808  -1.184  54.140  1.00  0.00     0.234 A 
HETATM    4  N2  UNL     1      21.810  -1.461  54.988  1.00  0.00    -0.234 NA
HETATM    5  C8  UNL     1      23.024  -1.014  54.739  1.00  0.00     0.112 A 
HETATM    6  S1  UNL     1      24.510  -1.199  55.664  1.00  0.00    -0.072 SA
HETATM    7  C9  UNL     1      25.562  -0.268  54.574  1.00  0.00     0.020 A 
HETATM    8  C10 UNL     1      24.697   0.156  53.518  1.00  0.00    -0.026 A 
HETATM    9  C11 UNL     1      23.409  -0.259  53.660  1.00  0.00     0.032 A 
HETATM   10  C12 UNL     1      25.608   0.927  52.665  1.00  0.00     0.070 C 
HETATM   11  C13 UNL     1      26.236   1.990  53.600  1.00  0.00     0.274 C 
HETATM   12  N3  UNL     1      27.315   1.393  54.360  1.00  0.00     0.088 N 
HETATM   13  C14 UNL     1      27.009   0.018  54.712  1.00  0.00     0.316 C 
HETATM   14  H11 UNL     1      27.458   1.945  55.256  1.00  0.00     0.316 HD
ENDROOT
BRANCH   1  15
HETATM   15  C5  UNL     1      22.413   0.744  51.500  1.00  0.00     0.099 C 
BRANCH  15  16
HETATM   16  C4  UNL     1      22.210   2.202  51.666  1.00  0.00    -0.052 A 
HETATM   17  C3  UNL     1      22.831   3.246  52.285  1.00  0.00     0.007 A 
HETATM   18  C2  UNL     1      22.437   4.555  52.284  1.00  0.00     0.001 A 
HETATM   19  C1  UNL     1      21.277   4.889  51.583  1.00  0.00     0.000 A 
HETATM   20  C16 UNL     1      20.537   3.925  50.902  1.00  0.00     0.001 A 
HETATM   21  C15 UNL     1      21.064   2.646  50.997  1.00  0.00     0.007 A 
ENDBRANCH  15  16
ENDBRANCH   1  15
TORSDOF 2
ENDMDL
MODEL 7
REMARK VINA RESULT:      -7.2      1.326      1.624
REMARK  2 active torsions:
REMARK  status: ('A' for Active; 'I' for Inactive)
REMARK    1  A    between atoms: C4_4  and  C5_5 
REMARK    2  A    between atoms: C5_5  and  C6_6 
ROOT
HETATM    1  C6  UNL     1      24.762   2.422  51.890  1.00  0.00     0.053 A 
HETATM    2  N1  UNL     1      25.613   3.204  51.208  1.00  0.00    -0.245 NA
HETATM    3  C7  UNL     1      25.453   3.671  49.969  1.00  0.00     0.234 A 
HETATM    4  N2  UNL     1      24.313   3.299  49.369  1.00  0.00    -0.234 NA
HETATM    5  C8  UNL     1      23.454   2.532  50.010  1.00  0.00     0.112 A 
HETATM    6  S1  UNL     1      21.891   1.908  49.494  1.00  0.00    -0.072 SA
HETATM    7  C9  UNL     1      21.503   1.030  50.991  1.00  0.00     0.020 A 
HETATM    8  C10 UNL     1      22.626   1.263  51.844  1.00  0.00    -0.026 A 
HETATM    9  C11 UNL     1      23.592   2.040  51.283  1.00  0.00     0.032 A 
HETATM   10  C12 UNL     1      22.246   0.536  53.059  1.00  0.00     0.070 C 
HETATM   11  C13 UNL     1      20.863   1.107  53.458  1.00  0.00     0.274 C 
HETATM   12  N3  UNL     1      19.829   0.482  52.657  1.00  0.00     0.088 N 
HETATM   13  C14 UNL     1      20.294   0.233  51.305  1.00  0.00     0.316 C 
HETATM   14  H11 UNL     1      18.987   1.127  52.609  1.00  0.00     0.316 HD
ENDROOT
BRANCH   1  15
HETATM   15  C5  UNL     1      25.294   2.045  53.223  1.00  0.00     0.099 C 
BRANCH  15  16
HETATM   16  C4  UNL     1      26.196   0.870  53.159  1.00  0.00    -0.052 A 
HETATM   17  C3  UNL     1      26.180  -0.389  52.638  1.00  0.00     0.007 A 
HETATM   18  C2  UNL     1      27.179  -1.320  52.708  1.00  0.00     0.001 A 
HETATM   19  C1  UNL     1      28.353  -0.972  53.378  1.00  0.00     0.000 A 
HETATM   20  C16 UNL     1      28.512   0.283  53.961  1.00  0.00     0.001 A 
HETATM   21  C15 UNL     1      27.412   1.114  53.806  1.00  0.00     0.007 A 
ENDBRANCH  15  16
ENDBRANCH   1  15
TORSDOF 2
ENDMDL
MODEL 8
REMARK VINA RESULT:      -7.2      2.318      5.107
REMARK  2 active torsions:
REMARK  status: ('A' for Active; 'I' for Inactive)
REMARK    1  A    between atoms: C4_4  and  C5_5 
REMARK    2  A    between atoms: C5_5  and  C6_6 
ROOT
HETATM    1  C6  UNL     1      24.436   2.166  51.931  1.00  0.00     0.053 A 
HETATM    2  N1  UNL     1      25.579   2.582  51.363  1.00  0.00    -0.245 NA
HETATM    3  C7  UNL     1      26.795   2.063  51.538  1.00  0.00     0.234 A 
HETATM    4  N2  UNL     1      26.846   1.017  52.375  1.00  0.00    -0.234 NA
HETATM    5  C8  UNL     1      25.744   0.581  52.950  1.00  0.00     0.112 A 
HETATM    6  S1  UNL     1      25.503  -0.761  54.063  1.00  0.00    -0.072 SA
HETATM    7  C9  UNL     1      23.745  -0.572  54.254  1.00  0.00     0.020 A 
HETATM    8  C10 UNL     1      23.414   0.547  53.429  1.00  0.00    -0.026 A 
HETATM    9  C11 UNL     1      24.482   1.094  52.788  1.00  0.00     0.032 A 
HETATM   10  C12 UNL     1      21.962   0.645  53.611  1.00  0.00     0.070 C 
HETATM   11  C13 UNL     1      21.412  -0.754  53.243  1.00  0.00     0.274 C 
HETATM   12  N3  UNL     1      21.579  -1.655  54.366  1.00  0.00     0.088 N 
HETATM   13  C14 UNL     1      22.815  -1.381  55.076  1.00  0.00     0.316 C 
HETATM   14  H11 UNL     1      21.610  -2.655  54.010  1.00  0.00     0.316 HD
ENDROOT
BRANCH   1  15
HETATM   15  C5  UNL     1      23.281   3.019  51.556  1.00  0.00     0.099 C 
BRANCH  15  16
HETATM   16  C4  UNL     1      22.832   2.779  50.164  1.00  0.00    -0.052 A 
HETATM   17  C3  UNL     1      22.972   3.365  48.942  1.00  0.00     0.007 A 
HETATM   18  C2  UNL     1      22.445   2.931  47.757  1.00  0.00     0.001 A 
HETATM   19  C1  UNL     1      21.678   1.765  47.770  1.00  0.00     0.000 A 
HETATM   20  C16 UNL     1      21.449   1.059  48.948  1.00  0.00     0.001 A 
HETATM   21  C15 UNL     1      22.048   1.624  50.064  1.00  0.00     0.007 A 
ENDBRANCH  15  16
ENDBRANCH   1  15
TORSDOF 2
ENDMDL
MODEL 9
REMARK VINA RESULT:      -7.0      2.666      5.315
REMARK  2 active torsions:
REMARK  status: ('A' for Active; 'I' for Inactive)
REMARK    1  A    between atoms: C4_4  and  C5_5 
REMARK    2  A    between atoms: C5_5  and  C6_6 
ROOT
HETATM    1  C6  UNL     1      23.020   1.419  52.556  1.00  0.00     0.053 A 
HETATM    2  N1  UNL     1      24.337   1.288  52.783  1.00  0.00    -0.245 NA
HETATM    3  C7  UNL     1      24.939   0.306  53.454  1.00  0.00     0.234 A 
HETATM    4  N2  UNL     1      24.115  -0.633  53.940  1.00  0.00    -0.234 NA
HETATM    5  C8  UNL     1      22.816  -0.536  53.736  1.00  0.00     0.112 A 
HETATM    6  S1  UNL     1      21.511  -1.608  54.230  1.00  0.00    -0.072 SA
HETATM    7  C9  UNL     1      20.180  -0.681  53.502  1.00  0.00     0.020 A 
HETATM    8  C10 UNL     1      20.819   0.444  52.894  1.00  0.00    -0.026 A 
HETATM    9  C11 UNL     1      22.171   0.460  53.050  1.00  0.00     0.032 A 
HETATM   10  C12 UNL     1      19.685   1.158  52.299  1.00  0.00     0.070 C 
HETATM   11  C13 UNL     1      18.975   0.116  51.401  1.00  0.00     0.274 C 
HETATM   12  N3  UNL     1      18.126  -0.731  52.215  1.00  0.00     0.088 N 
HETATM   13  C14 UNL     1      18.731  -0.987  53.510  1.00  0.00     0.316 C 
HETATM   14  H11 UNL     1      17.983  -1.660  51.721  1.00  0.00     0.316 HD
ENDROOT
BRANCH   1  15
HETATM   15  C5  UNL     1      22.699   2.671  51.825  1.00  0.00     0.099 C 
BRANCH  15  16
HETATM   16  C4  UNL     1      22.488   2.438  50.377  1.00  0.00    -0.052 A 
HETATM   17  C3  UNL     1      22.037   1.438  49.568  1.00  0.00     0.007 A 
HETATM   18  C2  UNL     1      21.925   1.469  48.206  1.00  0.00     0.001 A 
HETATM   19  C1  UNL     1      22.305   2.638  47.544  1.00  0.00     0.000 A 
HETATM   20  C16 UNL     1      22.787   3.744  48.241  1.00  0.00     0.001 A 
HETATM   21  C15 UNL     1      22.842   3.558  49.615  1.00  0.00     0.007 A 
ENDBRANCH  15  16
ENDBRANCH   1  15
TORSDOF 2
ENDMDL
