MODEL 1
REMARK VINA RESULT:      -7.2      0.000      0.000
REMARK  7 active torsions:
REMARK  status: ('A' for Active; 'I' for Inactive)
REMARK       I    between atoms: C1_2  and  N1_3 
REMARK    1  A    between atoms: C1_2  and  C8_11 
REMARK    2  A    between atoms: N1_3  and  C2_4 
REMARK    3  A    between atoms: C11_14  and  N2_15 
REMARK    4  A    between atoms: N2_15  and  C12_16 
REMARK    5  A    between atoms: N2_15  and  C14_19 
REMARK    6  A    between atoms: C12_16  and  C13_17 
REMARK    7  A    between atoms: C14_19  and  C15_20 
ROOT
HETATM    1  C8  UNL     1      23.720   0.023  52.993  1.00  0.00     0.032 A 
HETATM    2  C9  UNL     1      23.437   1.031  52.084  1.00  0.00     0.019 A 
HETATM    3  C10 UNL     1      22.133   1.298  51.784  1.00  0.00     0.030 A 
HETATM    4  C11 UNL     1      21.025   0.666  52.289  1.00  0.00     0.030 A 
HETATM    5  C16 UNL     1      21.371  -0.320  53.182  1.00  0.00     0.030 A 
HETATM    6  C17 UNL     1      22.652  -0.661  53.548  1.00  0.00     0.019 A 
ENDROOT
BRANCH   1   7
HETATM    7  C1  UNL     1      25.110  -0.264  53.313  1.00  0.00     0.256 C 
HETATM    8  O1  UNL     1      25.426  -0.581  54.472  1.00  0.00    -0.267 OA
HETATM    9  N1  UNL     1      26.172  -0.211  52.378  1.00  0.00    -0.322 N 
HETATM   10  H1  UNL     1      25.996   0.039  51.402  1.00  0.00     0.169 HD
BRANCH   9  11
HETATM   11  C2  UNL     1      27.467  -0.520  52.864  1.00  0.00     0.053 C 
HETATM   12  C3  UNL     1      27.696  -1.844  52.824  1.00  0.00     0.032 C 
HETATM   13  C4  UNL     1      29.031  -2.180  53.323  1.00  0.00     0.015 C 
HETATM   14  C5  UNL     1      29.984  -1.270  53.463  1.00  0.00    -0.012 C 
HETATM   15  C6  UNL     1      29.697  -0.021  53.594  1.00  0.00     0.007 C 
HETATM   16  C7  UNL     1      28.482   0.404  53.357  1.00  0.00     0.049 C 
HETATM   17 BR1  UNL     1      27.932   2.183  53.612  1.00  0.00    -0.048 Br
ENDBRANCH   9  11
ENDBRANCH   1   7
BRANCH   4  18
HETATM   18  N2  UNL     1      19.658   0.982  51.951  1.00  0.00    -0.379 N 
BRANCH  18  19
HETATM   19  C12 UNL     1      18.805  -0.120  51.579  1.00  0.00     0.138 C 
BRANCH  19  20
HETATM   20  C13 UNL     1      17.684  -0.439  52.495  1.00  0.00     0.134 C 
HETATM   21 CL1  UNL     1      18.094  -1.902  53.419  1.00  0.00    -0.129 Cl
ENDBRANCH  19  20
ENDBRANCH  18  19
BRANCH  18  22
HETATM   22  C14 UNL     1      19.277   2.370  51.990  1.00  0.00     0.138 C 
BRANCH  22  23
HETATM   23  C15 UNL     1      18.381   2.860  50.899  1.00  0.00     0.134 C 
HETATM   24 CL2  UNL     1      16.757   3.108  51.669  1.00  0.00    -0.129 Cl
ENDBRANCH  22  23
ENDBRANCH  18  22
ENDBRANCH   4  18
TORSDOF 7
ENDMDL
MODEL 2
REMARK VINA RESULT:      -7.2      1.535      3.074
REMARK  7 active torsions:
REMARK  status: ('A' for Active; 'I' for Inactive)
REMARK       I    between atoms: C1_2  and  N1_3 
REMARK    1  A    between atoms: C1_2  and  C8_11 
REMARK    2  A    between atoms: N1_3  and  C2_4 
REMARK    3  A    between atoms: C11_14  and  N2_15 
REMARK    4  A    between atoms: N2_15  and  C12_16 
REMARK    5  A    between atoms: N2_15  and  C14_19 
REMARK    6  A    between atoms: C12_16  and  C13_17 
REMARK    7  A    between atoms: C14_19  and  C15_20 
ROOT
HETATM    1  C8  UNL     1      23.109   0.066  53.113  1.00  0.00     0.032 A 
HETATM    2  C9  UNL     1      22.286  -0.524  54.059  1.00  0.00     0.019 A 
HETATM    3  C10 UNL     1      20.951  -0.628  53.796  1.00  0.00     0.030 A 
HETATM    4  C11 UNL     1      20.298  -0.202  52.666  1.00  0.00     0.030 A 
HETATM    5  C16 UNL     1      21.167   0.373  51.770  1.00  0.00     0.030 A 
HETATM    6  C17 UNL     1      22.524   0.521  51.944  1.00  0.00     0.019 A 
ENDROOT
BRANCH   1   7
HETATM    7  C1  UNL     1      24.532   0.180  53.394  1.00  0.00     0.256 C 
HETATM    8  O1  UNL     1      24.971  -0.145  54.510  1.00  0.00    -0.267 OA
HETATM    9  N1  UNL     1      25.494   0.647  52.467  1.00  0.00    -0.322 N 
HETATM   10  H1  UNL     1      25.216   0.933  51.525  1.00  0.00     0.169 HD
BRANCH   9  11
HETATM   11  C2  UNL     1      26.839   0.695  52.911  1.00  0.00     0.053 C 
HETATM   12  C3  UNL     1      27.223   1.960  53.155  1.00  0.00     0.032 C 
HETATM   13  C4  UNL     1      28.612   2.027  53.615  1.00  0.00     0.015 C 
HETATM   14  C5  UNL     1      29.265   0.961  54.051  1.00  0.00    -0.012 C 
HETATM   15  C6  UNL     1      28.907  -0.227  53.705  1.00  0.00     0.007 C 
HETATM   16  C7  UNL     1      27.757  -0.421  53.111  1.00  0.00     0.049 C 
HETATM   17 BR1  UNL     1      27.181  -2.093  52.475  1.00  0.00    -0.048 Br
ENDBRANCH   9  11
ENDBRANCH   1   7
BRANCH   4  18
HETATM   18  N2  UNL     1      18.883  -0.336  52.421  1.00  0.00    -0.379 N 
BRANCH  18  19
HETATM   19  C12 UNL     1      18.361   0.305  51.239  1.00  0.00     0.138 C 
BRANCH  19  20
HETATM   20  C13 UNL     1      17.498   1.493  51.446  1.00  0.00     0.134 C 
HETATM   21 CL1  UNL     1      18.531   2.923  51.673  1.00  0.00    -0.129 Cl
ENDBRANCH  19  20
ENDBRANCH  18  19
BRANCH  18  22
HETATM   22  C14 UNL     1      18.116  -1.074  53.391  1.00  0.00     0.138 C 
BRANCH  22  23
HETATM   23  C15 UNL     1      17.033  -1.961  52.869  1.00  0.00     0.134 C 
HETATM   24 CL2  UNL     1      17.374  -3.608  53.550  1.00  0.00    -0.129 Cl
ENDBRANCH  22  23
ENDBRANCH  18  22
ENDBRANCH   4  18
TORSDOF 7
ENDMDL
MODEL 3
REMARK VINA RESULT:      -7.0      1.226      1.922
REMARK  7 active torsions:
REMARK  status: ('A' for Active; 'I' for Inactive)
REMARK       I    between atoms: C1_2  and  N1_3 
REMARK    1  A    between atoms: C1_2  and  C8_11 
REMARK    2  A    between atoms: N1_3  and  C2_4 
REMARK    3  A    between atoms: C11_14  and  N2_15 
REMARK    4  A    between atoms: N2_15  and  C12_16 
REMARK    5  A    between atoms: N2_15  and  C14_19 
REMARK    6  A    between atoms: C12_16  and  C13_17 
REMARK    7  A    between atoms: C14_19  and  C15_20 
ROOT
HETATM    1  C8  UNL     1      23.839  -0.053  53.127  1.00  0.00     0.032 A 
HETATM    2  C9  UNL     1      23.501   1.166  52.560  1.00  0.00     0.019 A 
HETATM    3  C10 UNL     1      22.190   1.419  52.282  1.00  0.00     0.030 A 
HETATM    4  C11 UNL     1      21.124   0.584  52.501  1.00  0.00     0.030 A 
HETATM    5  C16 UNL     1      21.524  -0.605  53.063  1.00  0.00     0.030 A 
HETATM    6  C17 UNL     1      22.817  -0.951  53.380  1.00  0.00     0.019 A 
ENDROOT
BRANCH   1   7
HETATM    7  C1  UNL     1      25.237  -0.326  53.422  1.00  0.00     0.256 C 
HETATM    8  O1  UNL     1      25.576  -0.648  54.574  1.00  0.00    -0.267 OA
HETATM    9  N1  UNL     1      26.284  -0.253  52.472  1.00  0.00    -0.322 N 
HETATM   10  H1  UNL     1      26.090   0.004  51.501  1.00  0.00     0.169 HD
BRANCH   9  11
HETATM   11  C2  UNL     1      27.590  -0.549  52.935  1.00  0.00     0.053 C 
HETATM   12  C3  UNL     1      27.826  -1.872  52.901  1.00  0.00     0.032 C 
HETATM   13  C4  UNL     1      29.173  -2.196  53.377  1.00  0.00     0.015 C 
HETATM   14  C5  UNL     1      30.123  -1.280  53.490  1.00  0.00    -0.012 C 
HETATM   15  C6  UNL     1      29.831  -0.031  53.616  1.00  0.00     0.007 C 
HETATM   16  C7  UNL     1      28.609   0.385  53.399  1.00  0.00     0.049 C 
HETATM   17 BR1  UNL     1      28.054   2.162  53.650  1.00  0.00    -0.048 Br
ENDBRANCH   9  11
ENDBRANCH   1   7
BRANCH   4  18
HETATM   18  N2  UNL     1      19.747   0.891  52.198  1.00  0.00    -0.379 N 
BRANCH  18  19
HETATM   19  C12 UNL     1      19.431   2.269  51.918  1.00  0.00     0.138 C 
BRANCH  19  20
HETATM   20  C13 UNL     1      19.054   2.601  50.523  1.00  0.00     0.134 C 
HETATM   21 CL1  UNL     1      20.016   1.599  49.412  1.00  0.00    -0.129 Cl
ENDBRANCH  19  20
ENDBRANCH  18  19
BRANCH  18  22
HETATM   22  C14 UNL     1      18.809  -0.202  52.230  1.00  0.00     0.138 C 
BRANCH  22  23
HETATM   23  C15 UNL     1      17.375   0.126  51.969  1.00  0.00     0.134 C 
HETATM   24 CL2  UNL     1      17.069  -0.341  50.242  1.00  0.00    -0.129 Cl
ENDBRANCH  22  23
ENDBRANCH  18  22
ENDBRANCH   4  18
TORSDOF 7
ENDMDL
MODEL 4
REMARK VINA RESULT:      -6.8      1.796      1.964
REMARK  7 active torsions:
REMARK  status: ('A' for Active; 'I' for Inactive)
REMARK       I    between atoms: C1_2  and  N1_3 
REMARK    1  A    between atoms: C1_2  and  C8_11 
REMARK    2  A    between atoms: N1_3  and  C2_4 
REMARK    3  A    between atoms: C11_14  and  N2_15 
REMARK    4  A    between atoms: N2_15  and  C12_16 
REMARK    5  A    between atoms: N2_15  and  C14_19 
REMARK    6  A    between atoms: C12_16  and  C13_17 
REMARK    7  A    between atoms: C14_19  and  C15_20 
ROOT
HETATM    1  C8  UNL     1      23.910   1.001  52.778  1.00  0.00     0.032 A 
HETATM    2  C9  UNL     1      23.930   2.079  51.908  1.00  0.00     0.019 A 
HETATM    3  C10 UNL     1      22.750   2.681  51.581  1.00  0.00     0.030 A 
HETATM    4  C11 UNL     1      21.498   2.337  52.024  1.00  0.00     0.030 A 
HETATM    5  C16 UNL     1      21.546   1.263  52.882  1.00  0.00     0.030 A 
HETATM    6  C17 UNL     1      22.683   0.593  53.270  1.00  0.00     0.019 A 
ENDROOT
BRANCH   1   7
HETATM    7  C1  UNL     1      25.167   0.356  53.126  1.00  0.00     0.256 C 
HETATM    8  O1  UNL     1      25.346  -0.071  54.279  1.00  0.00    -0.267 OA
HETATM    9  N1  UNL     1      26.244   0.168  52.226  1.00  0.00    -0.322 N 
HETATM   10  H1  UNL     1      26.177   0.489  51.257  1.00  0.00     0.169 HD
BRANCH   9  11
HETATM   11  C2  UNL     1      27.397  -0.479  52.736  1.00  0.00     0.053 C 
HETATM   12  C3  UNL     1      27.296  -1.814  52.615  1.00  0.00     0.032 C 
HETATM   13  C4  UNL     1      28.482  -2.498  53.138  1.00  0.00     0.015 C 
HETATM   14  C5  UNL     1      29.620  -1.862  53.371  1.00  0.00    -0.012 C 
HETATM   15  C6  UNL     1      29.642  -0.590  53.575  1.00  0.00     0.007 C 
HETATM   16  C7  UNL     1      28.582   0.136  53.324  1.00  0.00     0.049 C 
HETATM   17 BR1  UNL     1      28.473   1.978  53.678  1.00  0.00    -0.048 Br
ENDBRANCH   9  11
ENDBRANCH   1   7
BRANCH   4  18
HETATM   18  N2  UNL     1      20.271   3.003  51.661  1.00  0.00    -0.379 N 
BRANCH  18  19
HETATM   19  C12 UNL     1      19.050   2.251  51.808  1.00  0.00     0.138 C 
BRANCH  19  20
HETATM   20  C13 UNL     1      18.669   1.363  50.685  1.00  0.00     0.134 C 
HETATM   21 CL1  UNL     1      18.338  -0.264  51.323  1.00  0.00    -0.129 Cl
ENDBRANCH  19  20
ENDBRANCH  18  19
BRANCH  18  22
HETATM   22  C14 UNL     1      20.380   4.349  51.159  1.00  0.00     0.138 C 
BRANCH  22  23
HETATM   23  C15 UNL     1      20.139   4.551  49.698  1.00  0.00     0.134 C 
HETATM   24 CL2  UNL     1      21.749   4.998  48.990  1.00  0.00    -0.129 Cl
ENDBRANCH  22  23
ENDBRANCH  18  22
ENDBRANCH   4  18
TORSDOF 7
ENDMDL
MODEL 5
REMARK VINA RESULT:      -6.7      2.875      3.932
REMARK  7 active torsions:
REMARK  status: ('A' for Active; 'I' for Inactive)
REMARK       I    between atoms: C1_2  and  N1_3 
REMARK    1  A    between atoms: C1_2  and  C8_11 
REMARK    2  A    between atoms: N1_3  and  C2_4 
REMARK    3  A    between atoms: C11_14  and  N2_15 
REMARK    4  A    between atoms: N2_15  and  C12_16 
REMARK    5  A    between atoms: N2_15  and  C14_19 
REMARK    6  A    between atoms: C12_16  and  C13_17 
REMARK    7  A    between atoms: C14_19  and  C15_20 
ROOT
HETATM    1  C8  UNL     1      24.373   1.917  52.263  1.00  0.00     0.032 A 
HETATM    2  C9  UNL     1      24.178   3.098  52.960  1.00  0.00     0.019 A 
HETATM    3  C10 UNL     1      23.214   3.963  52.531  1.00  0.00     0.030 A 
HETATM    4  C11 UNL     1      22.382   3.802  51.451  1.00  0.00     0.030 A 
HETATM    5  C16 UNL     1      22.625   2.614  50.803  1.00  0.00     0.030 A 
HETATM    6  C17 UNL     1      23.571   1.681  51.160  1.00  0.00     0.019 A 
ENDROOT
BRANCH   1   7
HETATM    7  C1  UNL     1      25.402   0.995  52.718  1.00  0.00     0.256 C 
HETATM    8  O1  UNL     1      25.356   0.535  53.871  1.00  0.00    -0.267 OA
HETATM    9  N1  UNL     1      26.493   0.561  51.926  1.00  0.00    -0.322 N 
HETATM   10  H1  UNL     1      26.604   0.891  50.964  1.00  0.00     0.169 HD
BRANCH   9  11
HETATM   11  C2  UNL     1      27.405  -0.338  52.532  1.00  0.00     0.053 C 
HETATM   12  C3  UNL     1      27.053  -1.615  52.297  1.00  0.00     0.032 C 
HETATM   13  C4  UNL     1      27.986  -2.558  52.917  1.00  0.00     0.015 C 
HETATM   14  C5  UNL     1      29.184  -2.190  53.347  1.00  0.00    -0.012 C 
HETATM   15  C6  UNL     1      29.435  -0.963  53.648  1.00  0.00     0.007 C 
HETATM   16  C7  UNL     1      28.592  -0.018  53.317  1.00  0.00     0.049 C 
HETATM   17 BR1  UNL     1      28.809   1.787  53.793  1.00  0.00    -0.048 Br
ENDBRANCH   9  11
ENDBRANCH   1   7
BRANCH   4  18
HETATM   18  N2  UNL     1      21.368   4.738  51.032  1.00  0.00    -0.379 N 
BRANCH  18  19
HETATM   19  C12 UNL     1      21.661   6.139  51.203  1.00  0.00     0.138 C 
BRANCH  19  20
HETATM   20  C13 UNL     1      22.604   6.750  50.237  1.00  0.00     0.134 C 
HETATM   21 CL1  UNL     1      24.093   7.207  51.095  1.00  0.00    -0.129 Cl
ENDBRANCH  19  20
ENDBRANCH  18  19
BRANCH  18  22
HETATM   22  C14 UNL     1      20.145   4.188  50.506  1.00  0.00     0.138 C 
BRANCH  22  23
HETATM   23  C15 UNL     1      19.087   3.816  51.492  1.00  0.00     0.134 C 
HETATM   24 CL2  UNL     1      19.217   2.017  51.700  1.00  0.00    -0.129 Cl
ENDBRANCH  22  23
ENDBRANCH  18  22
ENDBRANCH   4  18
TORSDOF 7
ENDMDL
MODEL 6
REMARK VINA RESULT:      -6.7      5.752      7.638
REMARK  7 active torsions:
REMARK  status: ('A' for Active; 'I' for Inactive)
REMARK       I    between atoms: C1_2  and  N1_3 
REMARK    1  A    between atoms: C1_2  and  C8_11 
REMARK    2  A    between atoms: N1_3  and  C2_4 
REMARK    3  A    between atoms: C11_14  and  N2_15 
REMARK    4  A    between atoms: N2_15  and  C12_16 
REMARK    5  A    between atoms: N2_15  and  C14_19 
REMARK    6  A    between atoms: C12_16  and  C13_17 
REMARK    7  A    between atoms: C14_19  and  C15_20 
ROOT
HETATM    1  C8  UNL     1      25.308   3.344  50.660  1.00  0.00     0.032 A 
HETATM    2  C9  UNL     1      24.080   3.087  51.249  1.00  0.00     0.019 A 
HETATM    3  C10 UNL     1      23.948   1.982  52.038  1.00  0.00     0.030 A 
HETATM    4  C11 UNL     1      24.919   1.058  52.332  1.00  0.00     0.030 A 
HETATM    5  C16 UNL     1      26.110   1.368  51.719  1.00  0.00     0.030 A 
HETATM    6  C17 UNL     1      26.340   2.456  50.909  1.00  0.00     0.019 A 
ENDROOT
BRANCH   1   7
HETATM    7  C1  UNL     1      25.449   4.520  49.815  1.00  0.00     0.256 C 
HETATM    8  O1  UNL     1      24.735   4.647  48.806  1.00  0.00    -0.267 OA
HETATM    9  N1  UNL     1      26.365   5.572  50.057  1.00  0.00    -0.322 N 
HETATM   10  H1  UNL     1      26.988   5.545  50.868  1.00  0.00     0.169 HD
BRANCH   9  11
HETATM   11  C2  UNL     1      26.370   6.642  49.128  1.00  0.00     0.053 C 
HETATM   12  C3  UNL     1      27.398   6.531  48.268  1.00  0.00     0.032 C 
HETATM   13  C4  UNL     1      27.417   7.630  47.300  1.00  0.00     0.015 C 
HETATM   14  C5  UNL     1      26.369   8.415  47.101  1.00  0.00    -0.012 C 
HETATM   15  C6  UNL     1      25.461   8.556  48.003  1.00  0.00     0.007 C 
HETATM   16  C7  UNL     1      25.428   7.752  49.036  1.00  0.00     0.049 C 
HETATM   17 BR1  UNL     1      24.212   7.929  50.457  1.00  0.00    -0.048 Br
ENDBRANCH   9  11
ENDBRANCH   1   7
BRANCH   4  18
HETATM   18  N2  UNL     1      24.743  -0.097  53.179  1.00  0.00    -0.379 N 
BRANCH  18  19
HETATM   19  C12 UNL     1      25.920  -0.612  53.835  1.00  0.00     0.138 C 
BRANCH  19  20
HETATM   20  C13 UNL     1      26.441   0.166  54.984  1.00  0.00     0.134 C 
HETATM   21 CL1  UNL     1      28.216   0.224  54.882  1.00  0.00    -0.129 Cl
ENDBRANCH  19  20
ENDBRANCH  18  19
BRANCH  18  22
HETATM   22  C14 UNL     1      23.415  -0.647  53.271  1.00  0.00     0.138 C 
BRANCH  22  23
HETATM   23  C15 UNL     1      22.850  -0.834  54.641  1.00  0.00     0.134 C 
HETATM   24 CL2  UNL     1      21.346  -1.824  54.423  1.00  0.00    -0.129 Cl
ENDBRANCH  22  23
ENDBRANCH  18  22
ENDBRANCH   4  18
TORSDOF 7
ENDMDL
MODEL 7
REMARK VINA RESULT:      -6.7      8.059      9.714
REMARK  7 active torsions:
REMARK  status: ('A' for Active; 'I' for Inactive)
REMARK       I    between atoms: C1_2  and  N1_3 
REMARK    1  A    between atoms: C1_2  and  C8_11 
REMARK    2  A    between atoms: N1_3  and  C2_4 
REMARK    3  A    between atoms: C11_14  and  N2_15 
REMARK    4  A    between atoms: N2_15  and  C12_16 
REMARK    5  A    between atoms: N2_15  and  C14_19 
REMARK    6  A    between atoms: C12_16  and  C13_17 
REMARK    7  A    between atoms: C14_19  and  C15_20 
ROOT
HETATM    1  C8  UNL     1      26.788   4.820  49.293  1.00  0.00     0.032 A 
HETATM    2  C9  UNL     1      26.015   5.969  49.233  1.00  0.00     0.019 A 
HETATM    3  C10 UNL     1      26.507   7.057  48.573  1.00  0.00     0.030 A 
HETATM    4  C11 UNL     1      27.718   7.158  47.937  1.00  0.00     0.030 A 
HETATM    5  C16 UNL     1      28.435   5.989  48.032  1.00  0.00     0.030 A 
HETATM    6  C17 UNL     1      28.025   4.843  48.674  1.00  0.00     0.019 A 
ENDROOT
BRANCH   1   7
HETATM    7  C1  UNL     1      26.266   3.660  50.000  1.00  0.00     0.256 C 
HETATM    8  O1  UNL     1      25.441   2.916  49.444  1.00  0.00    -0.267 OA
HETATM    9  N1  UNL     1      26.635   3.294  51.317  1.00  0.00    -0.322 N 
HETATM   10  H1  UNL     1      27.311   3.853  51.844  1.00  0.00     0.169 HD
BRANCH   9  11
HETATM   11  C2  UNL     1      26.025   2.132  51.852  1.00  0.00     0.053 C 
HETATM   12  C3  UNL     1      26.806   1.052  51.676  1.00  0.00     0.032 C 
HETATM   13  C4  UNL     1      26.190  -0.158  52.224  1.00  0.00     0.015 C 
HETATM   14  C5  UNL     1      25.172  -0.113  53.071  1.00  0.00    -0.012 C 
HETATM   15  C6  UNL     1      24.399   0.915  53.128  1.00  0.00     0.007 C 
HETATM   16  C7  UNL     1      24.735   2.026  52.523  1.00  0.00     0.049 C 
HETATM   17 BR1  UNL     1      23.638   3.550  52.457  1.00  0.00    -0.048 Br
ENDBRANCH   9  11
ENDBRANCH   1   7
BRANCH   4  18
HETATM   18  N2  UNL     1      28.201   8.326  47.241  1.00  0.00    -0.379 N 
BRANCH  18  19
HETATM   19  C12 UNL     1      28.486   8.179  45.836  1.00  0.00     0.138 C 
BRANCH  19  20
HETATM   20  C13 UNL     1      29.825   8.618  45.373  1.00  0.00     0.134 C 
HETATM   21 CL1  UNL     1      31.068   7.709  46.263  1.00  0.00    -0.129 Cl
ENDBRANCH  19  20
ENDBRANCH  18  19
BRANCH  18  22
HETATM   22  C14 UNL     1      28.379   9.525  48.019  1.00  0.00     0.138 C 
BRANCH  22  23
HETATM   23  C15 UNL     1      29.325   9.452  49.174  1.00  0.00     0.134 C 
HETATM   24 CL2  UNL     1      30.762  10.452  48.699  1.00  0.00    -0.129 Cl
ENDBRANCH  22  23
ENDBRANCH  18  22
ENDBRANCH   4  18
TORSDOF 7
ENDMDL
MODEL 8
REMARK VINA RESULT:      -6.6      8.010      9.652
REMARK  7 active torsions:
REMARK  status: ('A' for Active; 'I' for Inactive)
REMARK       I    between atoms: C1_2  and  N1_3 
REMARK    1  A    between atoms: C1_2  and  C8_11 
REMARK    2  A    between atoms: N1_3  and  C2_4 
REMARK    3  A    between atoms: C11_14  and  N2_15 
REMARK    4  A    between atoms: N2_15  and  C12_16 
REMARK    5  A    between atoms: N2_15  and  C14_19 
REMARK    6  A    between atoms: C12_16  and  C13_17 
REMARK    7  A    between atoms: C14_19  and  C15_20 
ROOT
HETATM    1  C8  UNL     1      26.688   5.040  49.107  1.00  0.00     0.032 A 
HETATM    2  C9  UNL     1      28.004   5.043  48.671  1.00  0.00     0.019 A 
HETATM    3  C10 UNL     1      28.465   6.127  47.984  1.00  0.00     0.030 A 
HETATM    4  C11 UNL     1      27.760   7.258  47.657  1.00  0.00     0.030 A 
HETATM    5  C16 UNL     1      26.466   7.194  48.117  1.00  0.00     0.030 A 
HETATM    6  C17 UNL     1      25.911   6.148  48.817  1.00  0.00     0.019 A 
ENDROOT
BRANCH   1   7
HETATM    7  C1  UNL     1      26.193   3.883  49.838  1.00  0.00     0.256 C 
HETATM    8  O1  UNL     1      25.381   3.112  49.300  1.00  0.00    -0.267 OA
HETATM    9  N1  UNL     1      26.574   3.551  51.161  1.00  0.00    -0.322 N 
HETATM   10  H1  UNL     1      27.240   4.133  51.674  1.00  0.00     0.169 HD
BRANCH   9  11
HETATM   11  C2  UNL     1      25.990   2.387  51.721  1.00  0.00     0.053 C 
HETATM   12  C3  UNL     1      26.775   1.313  51.530  1.00  0.00     0.032 C 
HETATM   13  C4  UNL     1      26.185   0.101  52.103  1.00  0.00     0.015 C 
HETATM   14  C5  UNL     1      25.192   0.143  52.979  1.00  0.00    -0.012 C 
HETATM   15  C6  UNL     1      24.411   1.165  53.050  1.00  0.00     0.007 C 
HETATM   16  C7  UNL     1      24.720   2.275  52.429  1.00  0.00     0.049 C 
HETATM   17 BR1  UNL     1      23.608   3.789  52.384  1.00  0.00    -0.048 Br
ENDBRANCH   9  11
ENDBRANCH   1   7
BRANCH   4  18
HETATM   18  N2  UNL     1      28.287   8.389  46.933  1.00  0.00    -0.379 N 
BRANCH  18  19
HETATM   19  C12 UNL     1      28.338   9.648  47.635  1.00  0.00     0.138 C 
BRANCH  19  20
HETATM   20  C13 UNL     1      29.681  10.158  48.000  1.00  0.00     0.134 C 
HETATM   21 CL1  UNL     1      30.328   9.175  49.333  1.00  0.00    -0.129 Cl
ENDBRANCH  19  20
ENDBRANCH  18  19
BRANCH  18  22
HETATM   22  C14 UNL     1      28.688   8.165  45.568  1.00  0.00     0.138 C 
BRANCH  22  23
HETATM   23  C15 UNL     1      28.188   9.132  44.545  1.00  0.00     0.134 C 
HETATM   24 CL2  UNL     1      26.644   8.421  43.908  1.00  0.00    -0.129 Cl
ENDBRANCH  22  23
ENDBRANCH  18  22
ENDBRANCH   4  18
TORSDOF 7
ENDMDL
MODEL 9
REMARK VINA RESULT:      -6.3      7.510      8.398
REMARK  7 active torsions:
REMARK  status: ('A' for Active; 'I' for Inactive)
REMARK       I    between atoms: C1_2  and  N1_3 
REMARK    1  A    between atoms: C1_2  and  C8_11 
REMARK    2  A    between atoms: N1_3  and  C2_4 
REMARK    3  A    between atoms: C11_14  and  N2_15 
REMARK    4  A    between atoms: N2_15  and  C12_16 
REMARK    5  A    between atoms: N2_15  and  C14_19 
REMARK    6  A    between atoms: C12_16  and  C13_17 
REMARK    7  A    between atoms: C14_19  and  C15_20 
ROOT
HETATM    1  C8  UNL     1      27.751   5.865  48.507  1.00  0.00     0.032 A 
HETATM    2  C9  UNL     1      26.772   6.829  48.331  1.00  0.00     0.019 A 
HETATM    3  C10 UNL     1      25.471   6.497  48.576  1.00  0.00     0.030 A 
HETATM    4  C11 UNL     1      24.995   5.279  48.990  1.00  0.00     0.030 A 
HETATM    5  C16 UNL     1      26.013   4.368  49.146  1.00  0.00     0.030 A 
HETATM    6  C17 UNL     1      27.349   4.608  48.925  1.00  0.00     0.019 A 
ENDROOT
BRANCH   1   7
HETATM    7  C1  UNL     1      29.138   6.217  48.243  1.00  0.00     0.256 C 
HETATM    8  O1  UNL     1      29.440   6.799  47.188  1.00  0.00    -0.267 OA
HETATM    9  N1  UNL     1      30.213   5.941  49.122  1.00  0.00    -0.322 N 
HETATM   10  H1  UNL     1      30.050   5.466  50.014  1.00  0.00     0.169 HD
BRANCH   9  11
HETATM   11  C2  UNL     1      31.503   6.353  48.704  1.00  0.00     0.053 C 
HETATM   12  C3  UNL     1      31.779   7.594  49.139  1.00  0.00     0.032 C 
HETATM   13  C4  UNL     1      33.109   8.035  48.714  1.00  0.00     0.015 C 
HETATM   14  C5  UNL     1      34.025   7.190  48.265  1.00  0.00    -0.012 C 
HETATM   15  C6  UNL     1      33.692   6.049  47.770  1.00  0.00     0.007 C 
HETATM   16  C7  UNL     1      32.470   5.601  47.912  1.00  0.00     0.049 C 
HETATM   17 BR1  UNL     1      31.851   4.000  47.147  1.00  0.00    -0.048 Br
ENDBRANCH   9  11
ENDBRANCH   1   7
BRANCH   4  18
HETATM   18  N2  UNL     1      23.610   4.967  49.246  1.00  0.00    -0.379 N 
BRANCH  18  19
HETATM   19  C12 UNL     1      22.793   4.636  48.105  1.00  0.00     0.138 C 
BRANCH  19  20
HETATM   20  C13 UNL     1      21.846   3.506  48.263  1.00  0.00     0.134 C 
HETATM   21 CL1  UNL     1      22.580   2.039  47.577  1.00  0.00    -0.129 Cl
ENDBRANCH  19  20
ENDBRANCH  18  19
BRANCH  18  22
HETATM   22  C14 UNL     1      23.163   5.041  50.613  1.00  0.00     0.138 C 
BRANCH  22  23
HETATM   23  C15 UNL     1      22.073   6.015  50.920  1.00  0.00     0.134 C 
HETATM   24 CL2  UNL     1      22.796   7.660  50.667  1.00  0.00    -0.129 Cl
ENDBRANCH  22  23
ENDBRANCH  18  22
ENDBRANCH   4  18
TORSDOF 7
ENDMDL
