MODEL 1
REMARK VINA RESULT:      -9.0      0.000      0.000
REMARK  5 active torsions:
REMARK  status: ('A' for Active; 'I' for Inactive)
REMARK    1  A    between atoms: O1_2  and  C2_3 
REMARK    2  A    between atoms: C5_6  and  C6_7 
REMARK    3  A    between atoms: C8_9  and  C9_10 
REMARK    4  A    between atoms: N2_18  and  C16_19 
REMARK    5  A    between atoms: C18_23  and  O2_24 
ROOT
HETATM    1  C6  UNL     1      23.756   1.560  53.017  1.00  0.00     0.151 C 
HETATM    2  C7  UNL     1      22.995   0.311  52.584  1.00  0.00     0.094 C 
HETATM    3  C8  UNL     1      21.698   0.978  52.234  1.00  0.00     0.067 C 
HETATM    4  N1  UNL     1      21.984   2.165  51.891  1.00  0.00    -0.173 NA
HETATM    5  N2  UNL     1      23.352   2.454  51.947  1.00  0.00    -0.236 N 
ENDROOT
BRANCH   5   6
HETATM    6  C16 UNL     1      23.896   3.436  51.038  1.00  0.00     0.190 C 
HETATM    7  N3  UNL     1      25.072   3.090  50.623  1.00  0.00    -0.234 NA
HETATM    8  P1  UNL     1      25.711   4.351  49.486  1.00  0.00     0.044 P 
HETATM    9  C17 UNL     1      24.893   5.851  50.199  1.00  0.00     0.054 C 
HETATM   10  H16 UNL     1      27.134   4.522  49.659  1.00  0.00     0.088 HD
HETATM   11  C18 UNL     1      25.298   7.081  50.480  1.00  0.00     0.152 C 
HETATM   12  S1  UNL     1      23.329   4.994  50.364  1.00  0.00    -0.047 SA
BRANCH  11  13
HETATM   13  O2  UNL     1      26.652   7.277  50.162  1.00  0.00    -0.371 OA
HETATM   14  H18 UNL     1      27.153   8.137  50.367  1.00  0.00     0.216 HD
ENDBRANCH  11  13
ENDBRANCH   5   6
BRANCH   1  15
HETATM   15  C5  UNL     1      25.196   1.332  53.105  1.00  0.00    -0.033 A 
HETATM   16  C4  UNL     1      26.020   2.188  53.808  1.00  0.00     0.012 A 
HETATM   17  C3  UNL     1      27.394   1.927  53.864  1.00  0.00     0.037 A 
HETATM   18  C2  UNL     1      27.934   0.810  53.216  1.00  0.00     0.068 A 
HETATM   19  C20 UNL     1      27.086  -0.028  52.521  1.00  0.00     0.037 A 
HETATM   20  C19 UNL     1      25.731   0.231  52.468  1.00  0.00     0.012 A 
BRANCH  18  21
HETATM   21  O1  UNL     1      29.309   0.690  53.365  1.00  0.00    -0.356 OA
HETATM   22  C1  UNL     1      29.838  -0.602  53.593  1.00  0.00     0.210 C 
ENDBRANCH  18  21
ENDBRANCH   1  15
BRANCH   3  23
HETATM   23  C9  UNL     1      20.387   0.339  52.294  1.00  0.00    -0.010 A 
HETATM   24  C10 UNL     1      20.032  -0.433  53.406  1.00  0.00     0.014 A 
HETATM   25  C11 UNL     1      18.755  -1.003  53.368  1.00  0.00     0.007 A 
HETATM   26  C12 UNL     1      17.876  -0.845  52.334  1.00  0.00    -0.062 A 
HETATM   27  C13 UNL     1      16.530  -1.463  52.324  1.00  0.00     0.048 C 
HETATM   28  C14 UNL     1      18.290  -0.080  51.284  1.00  0.00     0.007 A 
HETATM   29  C15 UNL     1      19.519   0.522  51.223  1.00  0.00     0.014 A 
ENDBRANCH   3  23
TORSDOF 5
ENDMDL
MODEL 2
REMARK VINA RESULT:      -8.8      3.388      8.274
REMARK  5 active torsions:
REMARK  status: ('A' for Active; 'I' for Inactive)
REMARK    1  A    between atoms: O1_2  and  C2_3 
REMARK    2  A    between atoms: C5_6  and  C6_7 
REMARK    3  A    between atoms: C8_9  and  C9_10 
REMARK    4  A    between atoms: N2_18  and  C16_19 
REMARK    5  A    between atoms: C18_23  and  O2_24 
ROOT
HETATM    1  C6  UNL     1      23.741   3.181  51.231  1.00  0.00     0.151 C 
HETATM    2  C7  UNL     1      24.189   3.463  49.800  1.00  0.00     0.094 C 
HETATM    3  C8  UNL     1      25.551   4.003  50.120  1.00  0.00     0.067 C 
HETATM    4  N1  UNL     1      25.907   3.461  51.209  1.00  0.00    -0.173 NA
HETATM    5  N2  UNL     1      24.960   2.576  51.736  1.00  0.00    -0.236 N 
ENDROOT
BRANCH   5   6
HETATM    6  C16 UNL     1      25.414   1.458  52.530  1.00  0.00     0.190 C 
HETATM    7  N3  UNL     1      26.496   1.750  53.175  1.00  0.00    -0.234 NA
HETATM    8  P1  UNL     1      27.025   0.319  54.157  1.00  0.00     0.044 P 
HETATM    9  C17 UNL     1      26.398  -1.044  53.073  1.00  0.00     0.054 C 
HETATM   10  H16 UNL     1      28.465   0.215  54.178  1.00  0.00     0.088 HD
HETATM   11  C18 UNL     1      26.903  -2.193  52.645  1.00  0.00     0.152 C 
HETATM   12  S1  UNL     1      24.834  -0.209  52.823  1.00  0.00    -0.047 SA
BRANCH  11  13
HETATM   13  O2  UNL     1      28.202  -2.411  53.129  1.00  0.00    -0.371 OA
HETATM   14  H18 UNL     1      28.949  -1.727  53.044  1.00  0.00     0.216 HD
ENDBRANCH  11  13
ENDBRANCH   5   6
BRANCH   1  15
HETATM   15  C5  UNL     1      22.566   2.315  51.286  1.00  0.00    -0.033 A 
HETATM   16  C4  UNL     1      22.299   1.398  50.288  1.00  0.00     0.012 A 
HETATM   17  C3  UNL     1      21.160   0.589  50.385  1.00  0.00     0.037 A 
HETATM   18  C2  UNL     1      20.297   0.704  51.482  1.00  0.00     0.068 A 
HETATM   19  C20 UNL     1      20.590   1.629  52.463  1.00  0.00     0.037 A 
HETATM   20  C19 UNL     1      21.713   2.425  52.365  1.00  0.00     0.012 A 
BRANCH  18  21
HETATM   21  O1  UNL     1      19.216  -0.165  51.432  1.00  0.00    -0.356 OA
HETATM   22  C1  UNL     1      18.614  -0.541  52.656  1.00  0.00     0.210 C 
ENDBRANCH  18  21
ENDBRANCH   1  15
BRANCH   3  23
HETATM   23  C9  UNL     1      26.281   4.966  49.300  1.00  0.00    -0.010 A 
HETATM   24  C10 UNL     1      25.659   6.148  48.883  1.00  0.00     0.014 A 
HETATM   25  C11 UNL     1      26.442   7.005  48.102  1.00  0.00     0.007 A 
HETATM   26  C12 UNL     1      27.734   6.746  47.744  1.00  0.00    -0.062 A 
HETATM   27  C13 UNL     1      28.537   7.675  46.915  1.00  0.00     0.048 C 
HETATM   28  C14 UNL     1      28.276   5.576  48.186  1.00  0.00     0.007 A 
HETATM   29  C15 UNL     1      27.595   4.669  48.955  1.00  0.00     0.014 A 
ENDBRANCH   3  23
TORSDOF 5
ENDMDL
MODEL 3
REMARK VINA RESULT:      -8.7      2.098      4.557
REMARK  5 active torsions:
REMARK  status: ('A' for Active; 'I' for Inactive)
REMARK    1  A    between atoms: O1_2  and  C2_3 
REMARK    2  A    between atoms: C5_6  and  C6_7 
REMARK    3  A    between atoms: C8_9  and  C9_10 
REMARK    4  A    between atoms: N2_18  and  C16_19 
REMARK    5  A    between atoms: C18_23  and  O2_24 
ROOT
HETATM    1  C6  UNL     1      23.152   1.968  50.754  1.00  0.00     0.151 C 
HETATM    2  C7  UNL     1      21.831   2.206  51.480  1.00  0.00     0.094 C 
HETATM    3  C8  UNL     1      21.564   0.785  51.880  1.00  0.00     0.067 C 
HETATM    4  N1  UNL     1      22.694   0.222  51.985  1.00  0.00    -0.173 NA
HETATM    5  N2  UNL     1      23.774   1.067  51.707  1.00  0.00    -0.236 N 
ENDROOT
BRANCH   5   6
HETATM    6  C16 UNL     1      25.037   0.826  52.366  1.00  0.00     0.190 C 
HETATM    7  N3  UNL     1      24.891   0.758  53.649  1.00  0.00    -0.234 NA
HETATM    8  P1  UNL     1      26.500   0.454  54.431  1.00  0.00     0.044 P 
HETATM    9  C17 UNL     1      27.598   1.320  53.218  1.00  0.00     0.054 C 
HETATM   10  H16 UNL     1      26.605   1.166  55.682  1.00  0.00     0.088 HD
HETATM   11  C18 UNL     1      28.628   2.147  53.328  1.00  0.00     0.152 C 
HETATM   12  S1  UNL     1      26.729   0.603  51.826  1.00  0.00    -0.047 SA
BRANCH  11  13
HETATM   13  O2  UNL     1      28.945   2.420  54.668  1.00  0.00    -0.371 OA
HETATM   14  H18 UNL     1      28.752   1.773  55.428  1.00  0.00     0.216 HD
ENDBRANCH  11  13
ENDBRANCH   5   6
BRANCH   1  15
HETATM   15  C5  UNL     1      23.890   3.207  50.520  1.00  0.00    -0.033 A 
HETATM   16  C4  UNL     1      24.951   3.257  49.638  1.00  0.00     0.012 A 
HETATM   17  C3  UNL     1      25.627   4.468  49.447  1.00  0.00     0.037 A 
HETATM   18  C2  UNL     1      25.236   5.620  50.140  1.00  0.00     0.068 A 
HETATM   19  C20 UNL     1      24.171   5.538  51.015  1.00  0.00     0.037 A 
HETATM   20  C19 UNL     1      23.506   4.343  51.201  1.00  0.00     0.012 A 
BRANCH  18  21
HETATM   21  O1  UNL     1      26.004   6.737  49.842  1.00  0.00    -0.356 OA
HETATM   22  C1  UNL     1      26.701   6.749  48.611  1.00  0.00     0.210 C 
ENDBRANCH  18  21
ENDBRANCH   1  15
BRANCH   3  23
HETATM   23  C9  UNL     1      20.237   0.214  52.094  1.00  0.00    -0.010 A 
HETATM   24  C10 UNL     1      19.967  -0.520  53.254  1.00  0.00     0.014 A 
HETATM   25  C11 UNL     1      18.667  -1.025  53.365  1.00  0.00     0.007 A 
HETATM   26  C12 UNL     1      17.691  -0.840  52.428  1.00  0.00    -0.062 A 
HETATM   27  C13 UNL     1      16.323  -1.389  52.576  1.00  0.00     0.048 C 
HETATM   28  C14 UNL     1      18.025  -0.115  51.323  1.00  0.00     0.007 A 
HETATM   29  C15 UNL     1      19.269   0.423  51.118  1.00  0.00     0.014 A 
ENDBRANCH   3  23
TORSDOF 5
ENDMDL
MODEL 4
REMARK VINA RESULT:      -8.5      2.739      7.050
REMARK  5 active torsions:
REMARK  status: ('A' for Active; 'I' for Inactive)
REMARK    1  A    between atoms: O1_2  and  C2_3 
REMARK    2  A    between atoms: C5_6  and  C6_7 
REMARK    3  A    between atoms: C8_9  and  C9_10 
REMARK    4  A    between atoms: N2_18  and  C16_19 
REMARK    5  A    between atoms: C18_23  and  O2_24 
ROOT
HETATM    1  C6  UNL     1      23.125   0.649  51.577  1.00  0.00     0.151 C 
HETATM    2  C7  UNL     1      23.973   0.300  52.795  1.00  0.00     0.094 C 
HETATM    3  C8  UNL     1      25.239   0.975  52.358  1.00  0.00     0.067 C 
HETATM    4  N1  UNL     1      24.894   1.930  51.599  1.00  0.00    -0.173 NA
HETATM    5  N2  UNL     1      23.511   2.040  51.423  1.00  0.00    -0.236 N 
ENDROOT
BRANCH   5   6
HETATM    6  C16 UNL     1      22.940   3.343  51.170  1.00  0.00     0.190 C 
HETATM    7  N3  UNL     1      22.592   3.470  49.931  1.00  0.00    -0.234 NA
HETATM    8  P1  UNL     1      21.881   5.118  49.664  1.00  0.00     0.044 P 
HETATM    9  C17 UNL     1      22.840   6.074  50.925  1.00  0.00     0.054 C 
HETATM   10  H16 UNL     1      22.254   5.633  48.368  1.00  0.00     0.088 HD
HETATM   11  C18 UNL     1      23.459   7.246  50.925  1.00  0.00     0.152 C 
HETATM   12  S1  UNL     1      22.608   4.797  52.159  1.00  0.00    -0.047 SA
BRANCH  11  13
HETATM   13  O2  UNL     1      23.358   7.896  49.685  1.00  0.00    -0.371 OA
HETATM   14  H18 UNL     1      23.360   7.402  48.796  1.00  0.00     0.216 HD
ENDBRANCH  11  13
ENDBRANCH   5   6
BRANCH   1  15
HETATM   15  C5  UNL     1      21.698   0.438  51.813  1.00  0.00    -0.033 A 
HETATM   16  C4  UNL     1      20.774   0.555  50.793  1.00  0.00     0.012 A 
HETATM   17  C3  UNL     1      19.418   0.343  51.068  1.00  0.00     0.037 A 
HETATM   18  C2  UNL     1      18.996   0.016  52.363  1.00  0.00     0.068 A 
HETATM   19  C20 UNL     1      19.943  -0.093  53.361  1.00  0.00     0.037 A 
HETATM   20  C19 UNL     1      21.280   0.116  53.087  1.00  0.00     0.012 A 
BRANCH  18  21
HETATM   21  O1  UNL     1      17.624  -0.162  52.473  1.00  0.00    -0.356 OA
HETATM   22  C1  UNL     1      17.160  -1.358  53.070  1.00  0.00     0.210 C 
ENDBRANCH  18  21
ENDBRANCH   1  15
BRANCH   3  23
HETATM   23  C9  UNL     1      26.583   0.569  52.759  1.00  0.00    -0.010 A 
HETATM   24  C10 UNL     1      27.527   1.533  53.130  1.00  0.00     0.014 A 
HETATM   25  C11 UNL     1      28.785   1.043  53.498  1.00  0.00     0.007 A 
HETATM   26  C12 UNL     1      29.117  -0.282  53.508  1.00  0.00    -0.062 A 
HETATM   27  C13 UNL     1      30.459  -0.768  53.903  1.00  0.00     0.048 C 
HETATM   28  C14 UNL     1      28.148  -1.164  53.135  1.00  0.00     0.007 A 
HETATM   29  C15 UNL     1      26.885  -0.788  52.757  1.00  0.00     0.014 A 
ENDBRANCH   3  23
TORSDOF 5
ENDMDL
MODEL 5
REMARK VINA RESULT:      -8.4      2.952      6.921
REMARK  5 active torsions:
REMARK  status: ('A' for Active; 'I' for Inactive)
REMARK    1  A    between atoms: O1_2  and  C2_3 
REMARK    2  A    between atoms: C5_6  and  C6_7 
REMARK    3  A    between atoms: C8_9  and  C9_10 
REMARK    4  A    between atoms: N2_18  and  C16_19 
REMARK    5  A    between atoms: C18_23  and  O2_24 
ROOT
HETATM    1  C6  UNL     1      23.805   1.776  51.132  1.00  0.00     0.151 C 
HETATM    2  C7  UNL     1      24.494   1.393  52.438  1.00  0.00     0.094 C 
HETATM    3  C8  UNL     1      25.904   1.386  51.925  1.00  0.00     0.067 C 
HETATM    4  N1  UNL     1      25.939   2.206  50.959  1.00  0.00    -0.173 NA
HETATM    5  N2  UNL     1      24.711   2.822  50.696  1.00  0.00    -0.236 N 
ENDROOT
BRANCH   5   6
HETATM    6  C16 UNL     1      24.703   4.154  50.135  1.00  0.00     0.190 C 
HETATM    7  N3  UNL     1      25.896   4.530  49.805  1.00  0.00    -0.234 NA
HETATM    8  P1  UNL     1      25.835   6.204  49.106  1.00  0.00     0.044 P 
HETATM    9  C17 UNL     1      24.395   6.879  50.053  1.00  0.00     0.054 C 
HETATM   10  H16 UNL     1      26.996   6.966  49.499  1.00  0.00     0.088 HD
HETATM   11  C18 UNL     1      24.152   8.022  50.678  1.00  0.00     0.152 C 
HETATM   12  S1  UNL     1      23.446   5.382  49.797  1.00  0.00    -0.047 SA
BRANCH  11  13
HETATM   13  O2  UNL     1      25.237   8.909  50.597  1.00  0.00    -0.371 OA
HETATM   14  H18 UNL     1      26.141   8.648  50.211  1.00  0.00     0.216 HD
ENDBRANCH  11  13
ENDBRANCH   5   6
BRANCH   1  15
HETATM   15  C5  UNL     1      22.427   2.215  51.339  1.00  0.00    -0.033 A 
HETATM   16  C4  UNL     1      22.080   3.027  52.400  1.00  0.00     0.012 A 
HETATM   17  C3  UNL     1      20.746   3.422  52.556  1.00  0.00     0.037 A 
HETATM   18  C2  UNL     1      19.768   3.000  51.647  1.00  0.00     0.068 A 
HETATM   19  C20 UNL     1      20.144   2.188  50.597  1.00  0.00     0.037 A 
HETATM   20  C19 UNL     1      21.460   1.801  50.445  1.00  0.00     0.012 A 
BRANCH  18  21
HETATM   21  O1  UNL     1      18.496   3.475  51.938  1.00  0.00    -0.356 OA
HETATM   22  C1  UNL     1      17.725   3.993  50.871  1.00  0.00     0.210 C 
ENDBRANCH  18  21
ENDBRANCH   1  15
BRANCH   3  23
HETATM   23  C9  UNL     1      26.987   0.573  52.471  1.00  0.00    -0.010 A 
HETATM   24  C10 UNL     1      26.919  -0.823  52.407  1.00  0.00     0.014 A 
HETATM   25  C11 UNL     1      28.006  -1.511  52.957  1.00  0.00     0.007 A 
HETATM   26  C12 UNL     1      29.086  -0.902  53.531  1.00  0.00    -0.062 A 
HETATM   27  C13 UNL     1      30.222  -1.660  54.104  1.00  0.00     0.048 C 
HETATM   28  C14 UNL     1      29.085   0.461  53.557  1.00  0.00     0.007 A 
HETATM   29  C15 UNL     1      28.070   1.228  53.047  1.00  0.00     0.014 A 
ENDBRANCH   3  23
TORSDOF 5
ENDMDL
MODEL 6
REMARK VINA RESULT:      -8.3      1.626      2.148
REMARK  5 active torsions:
REMARK  status: ('A' for Active; 'I' for Inactive)
REMARK    1  A    between atoms: O1_2  and  C2_3 
REMARK    2  A    between atoms: C5_6  and  C6_7 
REMARK    3  A    between atoms: C8_9  and  C9_10 
REMARK    4  A    between atoms: N2_18  and  C16_19 
REMARK    5  A    between atoms: C18_23  and  O2_24 
ROOT
HETATM    1  C6  UNL     1      22.857   1.187  53.055  1.00  0.00     0.151 C 
HETATM    2  C7  UNL     1      22.081  -0.014  52.524  1.00  0.00     0.094 C 
HETATM    3  C8  UNL     1      20.812   0.705  52.175  1.00  0.00     0.067 C 
HETATM    4  N1  UNL     1      21.138   1.902  51.913  1.00  0.00    -0.173 NA
HETATM    5  N2  UNL     1      22.509   2.153  52.029  1.00  0.00    -0.236 N 
ENDROOT
BRANCH   5   6
HETATM    6  C16 UNL     1      23.106   3.173  51.198  1.00  0.00     0.190 C 
HETATM    7  N3  UNL     1      23.050   4.333  51.768  1.00  0.00    -0.234 NA
HETATM    8  P1  UNL     1      23.811   5.579  50.690  1.00  0.00     0.044 P 
HETATM    9  C17 UNL     1      23.416   4.838  49.040  1.00  0.00     0.054 C 
HETATM   10  H16 UNL     1      23.100   6.832  50.773  1.00  0.00     0.088 HD
HETATM   11  C18 UNL     1      22.960   5.322  47.893  1.00  0.00     0.152 C 
HETATM   12  S1  UNL     1      23.893   3.202  49.592  1.00  0.00    -0.047 SA
BRANCH  11  13
HETATM   13  O2  UNL     1      22.728   6.705  47.959  1.00  0.00    -0.371 OA
HETATM   14  H18 UNL     1      22.566   7.201  48.832  1.00  0.00     0.216 HD
ENDBRANCH  11  13
ENDBRANCH   5   6
BRANCH   1  15
HETATM   15  C5  UNL     1      24.288   0.917  53.174  1.00  0.00    -0.033 A 
HETATM   16  C4  UNL     1      24.803  -0.346  52.960  1.00  0.00     0.012 A 
HETATM   17  C3  UNL     1      26.182  -0.556  53.085  1.00  0.00     0.037 A 
HETATM   18  C2  UNL     1      27.035   0.501  53.425  1.00  0.00     0.068 A 
HETATM   19  C20 UNL     1      26.490   1.752  53.633  1.00  0.00     0.037 A 
HETATM   20  C19 UNL     1      25.131   1.956  53.508  1.00  0.00     0.012 A 
BRANCH  18  21
HETATM   21  O1  UNL     1      28.371   0.133  53.510  1.00  0.00    -0.356 OA
HETATM   22  C1  UNL     1      29.287   1.087  54.012  1.00  0.00     0.210 C 
ENDBRANCH  18  21
ENDBRANCH   1  15
BRANCH   3  23
HETATM   23  C9  UNL     1      19.485   0.097  52.155  1.00  0.00    -0.010 A 
HETATM   24  C10 UNL     1      18.624   0.322  51.075  1.00  0.00     0.014 A 
HETATM   25  C11 UNL     1      17.376  -0.305  51.152  1.00  0.00     0.007 A 
HETATM   26  C12 UNL     1      16.979  -1.095  52.192  1.00  0.00    -0.062 A 
HETATM   27  C13 UNL     1      15.649  -1.746  52.242  1.00  0.00     0.048 C 
HETATM   28  C14 UNL     1      17.869  -1.271  53.210  1.00  0.00     0.007 A 
HETATM   29  C15 UNL     1      19.115  -0.701  53.232  1.00  0.00     0.014 A 
ENDBRANCH   3  23
TORSDOF 5
ENDMDL
MODEL 7
REMARK VINA RESULT:      -8.3      3.342      5.190
REMARK  5 active torsions:
REMARK  status: ('A' for Active; 'I' for Inactive)
REMARK    1  A    between atoms: O1_2  and  C2_3 
REMARK    2  A    between atoms: C5_6  and  C6_7 
REMARK    3  A    between atoms: C8_9  and  C9_10 
REMARK    4  A    between atoms: N2_18  and  C16_19 
REMARK    5  A    between atoms: C18_23  and  O2_24 
ROOT
HETATM    1  C6  UNL     1      24.673   4.448  50.595  1.00  0.00     0.151 C 
HETATM    2  C7  UNL     1      24.918   2.967  50.870  1.00  0.00     0.094 C 
HETATM    3  C8  UNL     1      23.525   2.610  51.296  1.00  0.00     0.067 C 
HETATM    4  N1  UNL     1      22.749   3.419  50.705  1.00  0.00    -0.173 NA
HETATM    5  N2  UNL     1      23.410   4.341  49.886  1.00  0.00    -0.236 N 
ENDROOT
BRANCH   5   6
HETATM    6  C16 UNL     1      22.729   4.854  48.720  1.00  0.00     0.190 C 
HETATM    7  N3  UNL     1      22.603   3.941  47.812  1.00  0.00    -0.234 NA
HETATM    8  P1  UNL     1      21.743   4.631  46.371  1.00  0.00     0.044 P 
HETATM    9  C17 UNL     1      22.318   6.386  46.482  1.00  0.00     0.054 C 
HETATM   10  H16 UNL     1      22.278   4.087  45.145  1.00  0.00     0.088 HD
HETATM   11  C18 UNL     1      22.766   7.272  45.603  1.00  0.00     0.152 C 
HETATM   12  S1  UNL     1      22.031   6.433  48.250  1.00  0.00    -0.047 SA
BRANCH  11  13
HETATM   13  O2  UNL     1      22.811   6.747  44.302  1.00  0.00    -0.371 OA
HETATM   14  H18 UNL     1      23.163   7.268  43.504  1.00  0.00     0.216 HD
ENDBRANCH  11  13
ENDBRANCH   5   6
BRANCH   1  15
HETATM   15  C5  UNL     1      25.752   5.057  49.821  1.00  0.00    -0.033 A 
HETATM   16  C4  UNL     1      25.797   6.418  49.594  1.00  0.00     0.012 A 
HETATM   17  C3  UNL     1      26.852   6.955  48.847  1.00  0.00     0.037 A 
HETATM   18  C2  UNL     1      27.856   6.125  48.332  1.00  0.00     0.068 A 
HETATM   19  C20 UNL     1      27.784   4.768  48.576  1.00  0.00     0.037 A 
HETATM   20  C19 UNL     1      26.743   4.241  49.313  1.00  0.00     0.012 A 
BRANCH  18  21
HETATM   21  O1  UNL     1      28.829   6.807  47.615  1.00  0.00    -0.356 OA
HETATM   22  C1  UNL     1      30.165   6.726  48.075  1.00  0.00     0.210 C 
ENDBRANCH  18  21
ENDBRANCH   1  15
BRANCH   3  23
HETATM   23  C9  UNL     1      23.186   1.528  52.216  1.00  0.00    -0.010 A 
HETATM   24  C10 UNL     1      24.181   0.659  52.678  1.00  0.00     0.014 A 
HETATM   25  C11 UNL     1      23.754  -0.343  53.555  1.00  0.00     0.007 A 
HETATM   26  C12 UNL     1      22.460  -0.503  53.963  1.00  0.00    -0.062 A 
HETATM   27  C13 UNL     1      22.041  -1.576  54.894  1.00  0.00     0.048 C 
HETATM   28  C14 UNL     1      21.544   0.380  53.473  1.00  0.00     0.007 A 
HETATM   29  C15 UNL     1      21.858   1.396  52.610  1.00  0.00     0.014 A 
ENDBRANCH   3  23
TORSDOF 5
ENDMDL
MODEL 8
REMARK VINA RESULT:      -8.2      3.982      8.041
REMARK  5 active torsions:
REMARK  status: ('A' for Active; 'I' for Inactive)
REMARK    1  A    between atoms: O1_2  and  C2_3 
REMARK    2  A    between atoms: C5_6  and  C6_7 
REMARK    3  A    between atoms: C8_9  and  C9_10 
REMARK    4  A    between atoms: N2_18  and  C16_19 
REMARK    5  A    between atoms: C18_23  and  O2_24 
ROOT
HETATM    1  C6  UNL     1      23.968   3.402  49.448  1.00  0.00     0.151 C 
HETATM    2  C7  UNL     1      25.321   3.900  49.946  1.00  0.00     0.094 C 
HETATM    3  C8  UNL     1      25.448   5.081  49.031  1.00  0.00     0.067 C 
HETATM    4  N1  UNL     1      24.268   5.451  48.753  1.00  0.00    -0.173 NA
HETATM    5  N2  UNL     1      23.276   4.675  49.361  1.00  0.00    -0.236 N 
ENDROOT
BRANCH   5   6
HETATM    6  C16 UNL     1      22.008   5.289  49.684  1.00  0.00     0.190 C 
HETATM    7  N3  UNL     1      21.053   4.800  48.963  1.00  0.00    -0.234 NA
HETATM    8  P1  UNL     1      19.485   5.599  49.405  1.00  0.00     0.044 P 
HETATM    9  C17 UNL     1      20.119   7.267  49.896  1.00  0.00     0.054 C 
HETATM   10  H16 UNL     1      18.658   5.787  48.237  1.00  0.00     0.088 HD
HETATM   11  C18 UNL     1      19.734   8.512  49.653  1.00  0.00     0.152 C 
HETATM   12  S1  UNL     1      21.464   6.547  50.834  1.00  0.00    -0.047 SA
BRANCH  11  13
HETATM   13  O2  UNL     1      18.590   8.562  48.842  1.00  0.00    -0.371 OA
HETATM   14  H18 UNL     1      17.737   8.050  49.051  1.00  0.00     0.216 HD
ENDBRANCH  11  13
ENDBRANCH   5   6
BRANCH   1  15
HETATM   15  C5  UNL     1      23.357   2.441  50.363  1.00  0.00    -0.033 A 
HETATM   16  C4  UNL     1      22.324   1.618  49.960  1.00  0.00     0.012 A 
HETATM   17  C3  UNL     1      21.771   0.713  50.873  1.00  0.00     0.037 A 
HETATM   18  C2  UNL     1      22.257   0.637  52.184  1.00  0.00     0.068 A 
HETATM   19  C20 UNL     1      23.291   1.472  52.558  1.00  0.00     0.037 A 
HETATM   20  C19 UNL     1      23.834   2.363  51.655  1.00  0.00     0.012 A 
BRANCH  18  21
HETATM   21  O1  UNL     1      21.606  -0.308  52.966  1.00  0.00    -0.356 OA
HETATM   22  C1  UNL     1      21.487  -0.049  54.351  1.00  0.00     0.210 C 
ENDBRANCH  18  21
ENDBRANCH   1  15
BRANCH   3  23
HETATM   23  C9  UNL     1      26.713   5.654  48.578  1.00  0.00    -0.010 A 
HETATM   24  C10 UNL     1      26.753   6.959  48.073  1.00  0.00     0.014 A 
HETATM   25  C11 UNL     1      28.012   7.415  47.667  1.00  0.00     0.007 A 
HETATM   26  C12 UNL     1      29.155   6.672  47.738  1.00  0.00    -0.062 A 
HETATM   27  C13 UNL     1      30.473   7.185  47.299  1.00  0.00     0.048 C 
HETATM   28  C14 UNL     1      29.041   5.410  48.241  1.00  0.00     0.007 A 
HETATM   29  C15 UNL     1      27.857   4.868  48.666  1.00  0.00     0.014 A 
ENDBRANCH   3  23
TORSDOF 5
ENDMDL
MODEL 9
REMARK VINA RESULT:      -8.2      4.249      7.275
REMARK  5 active torsions:
REMARK  status: ('A' for Active; 'I' for Inactive)
REMARK    1  A    between atoms: O1_2  and  C2_3 
REMARK    2  A    between atoms: C5_6  and  C6_7 
REMARK    3  A    between atoms: C8_9  and  C9_10 
REMARK    4  A    between atoms: N2_18  and  C16_19 
REMARK    5  A    between atoms: C18_23  and  O2_24 
ROOT
HETATM    1  C6  UNL     1      24.568   3.310  50.123  1.00  0.00     0.151 C 
HETATM    2  C7  UNL     1      24.865   2.797  51.529  1.00  0.00     0.094 C 
HETATM    3  C8  UNL     1      26.338   2.576  51.353  1.00  0.00     0.067 C 
HETATM    4  N1  UNL     1      26.723   3.397  50.468  1.00  0.00    -0.173 NA
HETATM    5  N2  UNL     1      25.698   4.206  49.965  1.00  0.00    -0.236 N 
ENDROOT
BRANCH   5   6
HETATM    6  C16 UNL     1      26.023   5.532  49.493  1.00  0.00     0.190 C 
HETATM    7  N3  UNL     1      27.085   5.520  48.753  1.00  0.00    -0.234 NA
HETATM    8  P1  UNL     1      27.450   7.203  48.184  1.00  0.00     0.044 P 
HETATM    9  C17 UNL     1      26.791   8.163  49.622  1.00  0.00     0.054 C 
HETATM   10  H16 UNL     1      28.875   7.431  48.140  1.00  0.00     0.088 HD
HETATM   11  C18 UNL     1      27.234   9.192  50.331  1.00  0.00     0.152 C 
HETATM   12  S1  UNL     1      25.308   7.161  49.690  1.00  0.00    -0.047 SA
BRANCH  11  13
HETATM   13  O2  UNL     1      28.484   9.643  49.879  1.00  0.00    -0.371 OA
HETATM   14  H18 UNL     1      28.636  10.575  49.501  1.00  0.00     0.216 HD
ENDBRANCH  11  13
ENDBRANCH   5   6
BRANCH   1  15
HETATM   15  C5  UNL     1      23.262   3.959  50.032  1.00  0.00    -0.033 A 
HETATM   16  C4  UNL     1      22.688   4.579  51.124  1.00  0.00     0.012 A 
HETATM   17  C3  UNL     1      21.434   5.188  50.987  1.00  0.00     0.037 A 
HETATM   18  C2  UNL     1      20.765   5.171  49.757  1.00  0.00     0.068 A 
HETATM   19  C20 UNL     1      21.364   4.543  48.684  1.00  0.00     0.037 A 
HETATM   20  C19 UNL     1      22.600   3.944  48.822  1.00  0.00     0.012 A 
BRANCH  18  21
HETATM   21  O1  UNL     1      19.535   5.815  49.784  1.00  0.00    -0.356 OA
HETATM   22  C1  UNL     1      18.446   5.185  49.137  1.00  0.00     0.210 C 
ENDBRANCH  18  21
ENDBRANCH   1  15
BRANCH   3  23
HETATM   23  C9  UNL     1      27.128   1.590  52.087  1.00  0.00    -0.010 A 
HETATM   24  C10 UNL     1      26.803   0.231  52.010  1.00  0.00     0.014 A 
HETATM   25  C11 UNL     1      27.620  -0.632  52.749  1.00  0.00     0.007 A 
HETATM   26  C12 UNL     1      28.676  -0.221  53.511  1.00  0.00    -0.062 A 
HETATM   27  C13 UNL     1      29.522  -1.161  54.282  1.00  0.00     0.048 C 
HETATM   28  C14 UNL     1      28.934   1.118  53.539  1.00  0.00     0.007 A 
HETATM   29  C15 UNL     1      28.195   2.046  52.853  1.00  0.00     0.014 A 
ENDBRANCH   3  23
TORSDOF 5
ENDMDL
