MODEL 1
REMARK VINA RESULT:      -6.4      0.000      0.000
REMARK  5 active torsions:
REMARK  status: ('A' for Active; 'I' for Inactive)
REMARK    1  A    between atoms: C2_2  and  C3_4 
REMARK    2  A    between atoms: C3_4  and  O1_5 
REMARK    3  A    between atoms: C3_4  and  C5_7 
REMARK    4  A    between atoms: C8_12  and  N3_13 
REMARK    5  A    between atoms: N4_16  and  C11_17 
ROOT
HETATM    1  C5  UNL     1      22.958   0.504  53.411  1.00  0.00     0.039 A 
HETATM    2  C6  UNL     1      21.677   0.258  53.918  1.00  0.00     0.132 A 
HETATM    3  N1  UNL     1      21.478  -0.681  54.831  1.00  0.00    -0.253 NA
HETATM    4  C7  UNL     1      22.486  -1.422  55.296  1.00  0.00     0.234 A 
HETATM    5  N2  UNL     1      23.743  -1.216  54.831  1.00  0.00    -0.224 NA
HETATM    6  C8  UNL     1      23.999  -0.261  53.891  1.00  0.00     0.137 A 
ENDROOT
BRANCH   6   7
HETATM    7  N3  UNL     1      25.349  -0.119  53.458  1.00  0.00    -0.362 N 
HETATM    8  C9  UNL     1      26.105  -0.254  52.222  1.00  0.00     0.144 C 
HETATM    9  C10 UNL     1      27.180  -1.333  52.449  1.00  0.00     0.145 C 
HETATM   10  N4  UNL     1      28.055  -0.757  53.453  1.00  0.00    -0.356 N 
HETATM   11  C12 UNL     1      27.625   0.302  54.343  1.00  0.00     0.145 C 
HETATM   12  C13 UNL     1      26.158   0.265  54.626  1.00  0.00     0.144 C 
BRANCH  10  13
HETATM   13  C11 UNL     1      29.343  -1.347  53.447  1.00  0.00     0.350 C 
HETATM   14  O2  UNL     1      29.223  -2.606  53.458  1.00  0.00    -0.284 OA
ENDBRANCH  10  13
ENDBRANCH   6   7
BRANCH   1  15
HETATM   15  C3  UNL     1      23.174   1.554  52.398  1.00  0.00     0.196 C 
BRANCH  15  16
HETATM   16  C2  UNL     1      21.924   2.103  51.812  1.00  0.00    -0.007 C 
HETATM   17  C1  UNL     1      20.820   2.557  51.232  1.00  0.00     0.154 C 
HETATM   18  I1  UNL     1      21.613   1.337  49.849  1.00  0.00    -0.155 I 
ENDBRANCH  15  16
BRANCH  15  19
HETATM   19  O1  UNL     1      24.019   2.558  52.857  1.00  0.00    -0.381 OA
HETATM   20  C4  UNL     1      24.607   3.274  51.822  1.00  0.00     0.202 C 
ENDBRANCH  15  19
ENDBRANCH   1  15
TORSDOF 5
ENDMDL
MODEL 2
REMARK VINA RESULT:      -6.2      1.744      2.320
REMARK  5 active torsions:
REMARK  status: ('A' for Active; 'I' for Inactive)
REMARK    1  A    between atoms: C2_2  and  C3_4 
REMARK    2  A    between atoms: C3_4  and  O1_5 
REMARK    3  A    between atoms: C3_4  and  C5_7 
REMARK    4  A    between atoms: C8_12  and  N3_13 
REMARK    5  A    between atoms: N4_16  and  C11_17 
ROOT
HETATM    1  C5  UNL     1      23.637   1.048  52.553  1.00  0.00     0.039 A 
HETATM    2  C6  UNL     1      22.304   1.109  52.134  1.00  0.00     0.132 A 
HETATM    3  N1  UNL     1      21.459   0.129  52.418  1.00  0.00    -0.253 NA
HETATM    4  C7  UNL     1      21.849  -0.945  53.111  1.00  0.00     0.234 A 
HETATM    5  N2  UNL     1      23.132  -1.042  53.536  1.00  0.00    -0.224 NA
HETATM    6  C8  UNL     1      24.040  -0.059  53.268  1.00  0.00     0.137 A 
ENDROOT
BRANCH   6   7
HETATM    7  N3  UNL     1      25.367  -0.250  53.750  1.00  0.00    -0.362 N 
HETATM    8  C9  UNL     1      26.157   0.127  54.912  1.00  0.00     0.144 C 
HETATM    9  C10 UNL     1      27.360   0.948  54.411  1.00  0.00     0.145 C 
HETATM   10  N4  UNL     1      28.133   0.003  53.627  1.00  0.00    -0.356 N 
HETATM   11  C12 UNL     1      27.551  -1.198  53.063  1.00  0.00     0.145 C 
HETATM   12  C13 UNL     1      26.096  -1.050  52.753  1.00  0.00     0.144 C 
BRANCH  10  13
HETATM   13  C11 UNL     1      29.487   0.396  53.491  1.00  0.00     0.350 C 
HETATM   14  O2  UNL     1      30.226  -0.628  53.569  1.00  0.00    -0.284 OA
ENDBRANCH  10  13
ENDBRANCH   6   7
BRANCH   1  15
HETATM   15  C3  UNL     1      24.573   2.144  52.237  1.00  0.00     0.196 C 
BRANCH  15  16
HETATM   16  C2  UNL     1      24.368   2.753  50.897  1.00  0.00    -0.007 C 
HETATM   17  C1  UNL     1      24.254   3.304  49.694  1.00  0.00     0.154 C 
HETATM   18  I1  UNL     1      26.235   3.279  50.016  1.00  0.00    -0.155 I 
ENDBRANCH  15  16
BRANCH  15  19
HETATM   19  O1  UNL     1      24.615   3.102  53.243  1.00  0.00    -0.381 OA
HETATM   20  C4  UNL     1      23.770   4.177  52.991  1.00  0.00     0.202 C 
ENDBRANCH  15  19
ENDBRANCH   1  15
TORSDOF 5
ENDMDL
MODEL 3
REMARK VINA RESULT:      -5.8      3.649      5.552
REMARK  5 active torsions:
REMARK  status: ('A' for Active; 'I' for Inactive)
REMARK    1  A    between atoms: C2_2  and  C3_4 
REMARK    2  A    between atoms: C3_4  and  O1_5 
REMARK    3  A    between atoms: C3_4  and  C5_7 
REMARK    4  A    between atoms: C8_12  and  N3_13 
REMARK    5  A    between atoms: N4_16  and  C11_17 
ROOT
HETATM    1  C5  UNL     1      23.084   2.698  49.997  1.00  0.00     0.039 A 
HETATM    2  C6  UNL     1      22.985   3.078  48.655  1.00  0.00     0.132 A 
HETATM    3  N1  UNL     1      22.173   2.438  47.827  1.00  0.00    -0.253 NA
HETATM    4  C7  UNL     1      21.426   1.412  48.243  1.00  0.00     0.234 A 
HETATM    5  N2  UNL     1      21.492   1.011  49.536  1.00  0.00    -0.224 NA
HETATM    6  C8  UNL     1      22.313   1.640  50.427  1.00  0.00     0.137 A 
ENDROOT
BRANCH   6   7
HETATM    7  N3  UNL     1      22.322   1.147  51.763  1.00  0.00    -0.362 N 
HETATM    8  C9  UNL     1      23.281   0.576  52.696  1.00  0.00     0.144 C 
HETATM    9  C10 UNL     1      22.780  -0.829  53.079  1.00  0.00     0.145 C 
HETATM   10  N4  UNL     1      21.544  -0.581  53.798  1.00  0.00    -0.356 N 
HETATM   11  C12 UNL     1      20.788   0.646  53.644  1.00  0.00     0.145 C 
HETATM   12  C13 UNL     1      20.955   1.267  52.296  1.00  0.00     0.144 C 
BRANCH  10  13
HETATM   13  C11 UNL     1      21.186  -1.661  54.642  1.00  0.00     0.350 C 
HETATM   14  O2  UNL     1      22.168  -1.952  55.384  1.00  0.00    -0.284 OA
ENDBRANCH  10  13
ENDBRANCH   6   7
BRANCH   1  15
HETATM   15  C3  UNL     1      23.987   3.418  50.915  1.00  0.00     0.196 C 
BRANCH  15  16
HETATM   16  C2  UNL     1      25.402   3.467  50.465  1.00  0.00    -0.007 C 
HETATM   17  C1  UNL     1      26.682   3.465  50.112  1.00  0.00     0.154 C 
HETATM   18  I1  UNL     1      26.613   2.170  51.645  1.00  0.00    -0.155 I 
ENDBRANCH  15  16
BRANCH  15  19
HETATM   19  O1  UNL     1      23.502   4.678  51.245  1.00  0.00    -0.381 OA
HETATM   20  C4  UNL     1      22.953   4.719  52.522  1.00  0.00     0.202 C 
ENDBRANCH  15  19
ENDBRANCH   1  15
TORSDOF 5
ENDMDL
MODEL 4
REMARK VINA RESULT:      -5.8      2.774      3.386
REMARK  5 active torsions:
REMARK  status: ('A' for Active; 'I' for Inactive)
REMARK    1  A    between atoms: C2_2  and  C3_4 
REMARK    2  A    between atoms: C3_4  and  O1_5 
REMARK    3  A    between atoms: C3_4  and  C5_7 
REMARK    4  A    between atoms: C8_12  and  N3_13 
REMARK    5  A    between atoms: N4_16  and  C11_17 
ROOT
HETATM    1  C5  UNL     1      21.577   0.652  52.937  1.00  0.00     0.039 A 
HETATM    2  C6  UNL     1      20.580  -0.240  53.344  1.00  0.00     0.132 A 
HETATM    3  N1  UNL     1      20.861  -1.244  54.162  1.00  0.00    -0.253 NA
HETATM    4  C7  UNL     1      22.100  -1.439  54.622  1.00  0.00     0.234 A 
HETATM    5  N2  UNL     1      23.096  -0.597  54.251  1.00  0.00    -0.224 NA
HETATM    6  C8  UNL     1      22.856   0.452  53.412  1.00  0.00     0.137 A 
ENDROOT
BRANCH   6   7
HETATM    7  N3  UNL     1      23.963   1.281  53.073  1.00  0.00    -0.362 N 
HETATM    8  C9  UNL     1      24.316   2.691  53.141  1.00  0.00     0.144 C 
HETATM    9  C10 UNL     1      24.601   3.170  51.705  1.00  0.00     0.145 C 
HETATM   10  N4  UNL     1      25.783   2.428  51.312  1.00  0.00    -0.356 N 
HETATM   11  C12 UNL     1      26.171   1.187  51.952  1.00  0.00     0.145 C 
HETATM   12  C13 UNL     1      25.007   0.422  52.492  1.00  0.00     0.144 C 
BRANCH  10  13
HETATM   13  C11 UNL     1      26.486   3.055  50.253  1.00  0.00     0.350 C 
HETATM   14  O2  UNL     1      25.662   3.416  49.365  1.00  0.00    -0.284 OA
ENDBRANCH  10  13
ENDBRANCH   6   7
BRANCH   1  15
HETATM   15  C3  UNL     1      21.257   1.771  52.031  1.00  0.00     0.196 C 
BRANCH  15  16
HETATM   16  C2  UNL     1      20.375   1.401  50.893  1.00  0.00    -0.007 C 
HETATM   17  C1  UNL     1      19.641   1.078  49.835  1.00  0.00     0.154 C 
HETATM   18  I1  UNL     1      21.465   1.407  49.062  1.00  0.00    -0.155 I 
ENDBRANCH  15  16
BRANCH  15  19
HETATM   19  O1  UNL     1      20.782   2.882  52.718  1.00  0.00    -0.381 OA
HETATM   20  C4  UNL     1      20.953   4.062  52.004  1.00  0.00     0.202 C 
ENDBRANCH  15  19
ENDBRANCH   1  15
TORSDOF 5
ENDMDL
MODEL 5
REMARK VINA RESULT:      -5.6      2.655      5.687
REMARK  5 active torsions:
REMARK  status: ('A' for Active; 'I' for Inactive)
REMARK    1  A    between atoms: C2_2  and  C3_4 
REMARK    2  A    between atoms: C3_4  and  O1_5 
REMARK    3  A    between atoms: C3_4  and  C5_7 
REMARK    4  A    between atoms: C8_12  and  N3_13 
REMARK    5  A    between atoms: N4_16  and  C11_17 
ROOT
HETATM    1  C5  UNL     1      24.438  -0.484  53.775  1.00  0.00     0.039 A 
HETATM    2  C6  UNL     1      24.291  -1.250  54.936  1.00  0.00     0.132 A 
HETATM    3  N1  UNL     1      23.111  -1.363  55.529  1.00  0.00    -0.253 NA
HETATM    4  C7  UNL     1      22.028  -0.752  55.041  1.00  0.00     0.234 A 
HETATM    5  N2  UNL     1      22.128   0.000  53.917  1.00  0.00    -0.224 NA
HETATM    6  C8  UNL     1      23.321   0.146  53.271  1.00  0.00     0.137 A 
ENDROOT
BRANCH   6   7
HETATM    7  N3  UNL     1      23.333   0.959  52.101  1.00  0.00    -0.362 N 
HETATM    8  C9  UNL     1      24.198   1.955  51.488  1.00  0.00     0.144 C 
HETATM    9  C10 UNL     1      23.391   3.260  51.362  1.00  0.00     0.145 C 
HETATM   10  N4  UNL     1      22.338   2.936  50.419  1.00  0.00    -0.356 N 
HETATM   11  C12 UNL     1      21.912   1.574  50.166  1.00  0.00     0.145 C 
HETATM   12  C13 UNL     1      22.102   0.677  51.346  1.00  0.00     0.144 C 
BRANCH  10  13
HETATM   13  C11 UNL     1      21.797   4.089  49.798  1.00  0.00     0.350 C 
HETATM   14  O2  UNL     1      22.723   4.927  49.599  1.00  0.00    -0.284 OA
ENDBRANCH  10  13
ENDBRANCH   6   7
BRANCH   1  15
HETATM   15  C3  UNL     1      25.754  -0.366  53.117  1.00  0.00     0.196 C 
BRANCH  15  16
HETATM   16  C2  UNL     1      26.872  -0.045  54.042  1.00  0.00    -0.007 C 
HETATM   17  C1  UNL     1      27.883   0.298  54.831  1.00  0.00     0.154 C 
HETATM   18  I1  UNL     1      27.843   1.757  53.453  1.00  0.00    -0.155 I 
ENDBRANCH  15  16
BRANCH  15  19
HETATM   19  O1  UNL     1      26.039  -1.466  52.317  1.00  0.00    -0.381 OA
HETATM   20  C4  UNL     1      27.196  -2.127  52.714  1.00  0.00     0.202 C 
ENDBRANCH  15  19
ENDBRANCH   1  15
TORSDOF 5
ENDMDL
MODEL 6
REMARK VINA RESULT:      -5.5      8.716     10.246
REMARK  5 active torsions:
REMARK  status: ('A' for Active; 'I' for Inactive)
REMARK    1  A    between atoms: C2_2  and  C3_4 
REMARK    2  A    between atoms: C3_4  and  O1_5 
REMARK    3  A    between atoms: C3_4  and  C5_7 
REMARK    4  A    between atoms: C8_12  and  N3_13 
REMARK    5  A    between atoms: N4_16  and  C11_17 
ROOT
HETATM    1  C5  UNL     1      28.512   7.328  48.407  1.00  0.00     0.039 A 
HETATM    2  C6  UNL     1      27.172   7.064  48.709  1.00  0.00     0.132 A 
HETATM    3  N1  UNL     1      26.736   5.818  48.824  1.00  0.00    -0.253 NA
HETATM    4  C7  UNL     1      27.556   4.777  48.656  1.00  0.00     0.234 A 
HETATM    5  N2  UNL     1      28.863   4.990  48.363  1.00  0.00    -0.224 NA
HETATM    6  C8  UNL     1      29.359   6.255  48.234  1.00  0.00     0.137 A 
ENDROOT
BRANCH   6   7
HETATM    7  N3  UNL     1      30.742   6.382  47.919  1.00  0.00    -0.362 N 
HETATM    8  C9  UNL     1      31.558   6.757  46.774  1.00  0.00     0.144 C 
HETATM    9  C10 UNL     1      32.457   5.556  46.429  1.00  0.00     0.145 C 
HETATM   10  N4  UNL     1      33.329   5.423  47.580  1.00  0.00    -0.356 N 
HETATM   11  C12 UNL     1      32.987   5.960  48.882  1.00  0.00     0.145 C 
HETATM   12  C13 UNL     1      31.512   6.015  49.119  1.00  0.00     0.144 C 
BRANCH  10  13
HETATM   13  C11 UNL     1      34.522   4.722  47.274  1.00  0.00     0.350 C 
HETATM   14  O2  UNL     1      34.916   4.103  48.304  1.00  0.00    -0.284 OA
ENDBRANCH  10  13
ENDBRANCH   6   7
BRANCH   1  15
HETATM   15  C3  UNL     1      28.992   8.718  48.285  1.00  0.00     0.196 C 
BRANCH  15  16
HETATM   16  C2  UNL     1      28.051   9.629  47.584  1.00  0.00    -0.007 C 
HETATM   17  C1  UNL     1      27.258  10.454  46.910  1.00  0.00     0.154 C 
HETATM   18  I1  UNL     1      28.947  10.432  45.826  1.00  0.00    -0.155 I 
ENDBRANCH  15  16
BRANCH  15  19
HETATM   19  O1  UNL     1      29.408   9.237  49.505  1.00  0.00    -0.381 OA
HETATM   20  C4  UNL     1      30.705   9.734  49.458  1.00  0.00     0.202 C 
ENDBRANCH  15  19
ENDBRANCH   1  15
TORSDOF 5
ENDMDL
MODEL 7
REMARK VINA RESULT:      -5.4      3.226      6.183
REMARK  5 active torsions:
REMARK  status: ('A' for Active; 'I' for Inactive)
REMARK    1  A    between atoms: C2_2  and  C3_4 
REMARK    2  A    between atoms: C3_4  and  O1_5 
REMARK    3  A    between atoms: C3_4  and  C5_7 
REMARK    4  A    between atoms: C8_12  and  N3_13 
REMARK    5  A    between atoms: N4_16  and  C11_17 
ROOT
HETATM    1  C5  UNL     1      24.586   0.806  52.996  1.00  0.00     0.039 A 
HETATM    2  C6  UNL     1      24.533  -0.429  53.651  1.00  0.00     0.132 A 
HETATM    3  N1  UNL     1      23.383  -0.911  54.098  1.00  0.00    -0.253 NA
HETATM    4  C7  UNL     1      22.240  -0.238  53.939  1.00  0.00     0.234 A 
HETATM    5  N2  UNL     1      22.247   0.963  53.309  1.00  0.00    -0.224 NA
HETATM    6  C8  UNL     1      23.407   1.501  52.831  1.00  0.00     0.137 A 
ENDROOT
BRANCH   6   7
HETATM    7  N3  UNL     1      23.320   2.769  52.188  1.00  0.00    -0.362 N 
HETATM    8  C9  UNL     1      23.631   4.157  52.494  1.00  0.00     0.144 C 
HETATM    9  C10 UNL     1      22.322   4.961  52.392  1.00  0.00     0.145 C 
HETATM   10  N4  UNL     1      21.963   4.878  50.989  1.00  0.00    -0.356 N 
HETATM   11  C12 UNL     1      22.457   3.828  50.121  1.00  0.00     0.145 C 
HETATM   12  C13 UNL     1      22.744   2.556  50.851  1.00  0.00     0.144 C 
BRANCH  10  13
HETATM   13  C11 UNL     1      21.093   5.924  50.593  1.00  0.00     0.350 C 
HETATM   14  O2  UNL     1      21.606   7.034  50.914  1.00  0.00    -0.284 OA
ENDBRANCH  10  13
ENDBRANCH   6   7
BRANCH   1  15
HETATM   15  C3  UNL     1      25.870   1.335  52.497  1.00  0.00     0.196 C 
BRANCH  15  16
HETATM   16  C2  UNL     1      27.066   0.617  53.009  1.00  0.00    -0.007 C 
HETATM   17  C1  UNL     1      28.161   0.036  53.483  1.00  0.00     0.154 C 
HETATM   18  I1  UNL     1      28.500   1.993  53.775  1.00  0.00    -0.155 I 
ENDBRANCH  15  16
BRANCH  15  19
HETATM   19  O1  UNL     1      25.885   1.451  51.112  1.00  0.00    -0.381 OA
HETATM   20  C4  UNL     1      26.518   2.612  50.683  1.00  0.00     0.202 C 
ENDBRANCH  15  19
ENDBRANCH   1  15
TORSDOF 5
ENDMDL
MODEL 8
REMARK VINA RESULT:      -5.4      3.275      4.726
REMARK  5 active torsions:
REMARK  status: ('A' for Active; 'I' for Inactive)
REMARK    1  A    between atoms: C2_2  and  C3_4 
REMARK    2  A    between atoms: C3_4  and  O1_5 
REMARK    3  A    between atoms: C3_4  and  C5_7 
REMARK    4  A    between atoms: C8_12  and  N3_13 
REMARK    5  A    between atoms: N4_16  and  C11_17 
ROOT
HETATM    1  C5  UNL     1      21.741   0.802  52.749  1.00  0.00     0.039 A 
HETATM    2  C6  UNL     1      21.703  -0.309  53.598  1.00  0.00     0.132 A 
HETATM    3  N1  UNL     1      22.821  -0.848  54.059  1.00  0.00    -0.253 NA
HETATM    4  C7  UNL     1      24.017  -0.353  53.730  1.00  0.00     0.234 A 
HETATM    5  N2  UNL     1      24.098   0.723  52.909  1.00  0.00    -0.224 NA
HETATM    6  C8  UNL     1      22.974   1.313  52.409  1.00  0.00     0.137 A 
ENDROOT
BRANCH   6   7
HETATM    7  N3  UNL     1      23.156   2.435  51.550  1.00  0.00    -0.362 N 
HETATM    8  C9  UNL     1      23.108   2.721  50.124  1.00  0.00     0.144 C 
HETATM    9  C10 UNL     1      24.494   3.247  49.708  1.00  0.00     0.145 C 
HETATM   10  N4  UNL     1      24.623   4.506  50.416  1.00  0.00    -0.356 N 
HETATM   11  C12 UNL     1      23.851   4.813  51.603  1.00  0.00     0.145 C 
HETATM   12  C13 UNL     1      23.487   3.596  52.391  1.00  0.00     0.144 C 
BRANCH  10  13
HETATM   13  C11 UNL     1      25.572   5.368  49.813  1.00  0.00     0.350 C 
HETATM   14  O2  UNL     1      26.304   4.698  49.030  1.00  0.00    -0.284 OA
ENDBRANCH  10  13
ENDBRANCH   6   7
BRANCH   1  15
HETATM   15  C3  UNL     1      20.491   1.401  52.243  1.00  0.00     0.196 C 
BRANCH  15  16
HETATM   16  C2  UNL     1      19.335   0.467  52.212  1.00  0.00    -0.007 C 
HETATM   17  C1  UNL     1      18.287  -0.342  52.124  1.00  0.00     0.154 C 
HETATM   18  I1  UNL     1      18.238   0.685  50.400  1.00  0.00    -0.155 I 
ENDBRANCH  15  16
BRANCH  15  19
HETATM   19  O1  UNL     1      20.182   2.591  52.889  1.00  0.00    -0.381 OA
HETATM   20  C4  UNL     1      19.881   3.617  52.001  1.00  0.00     0.202 C 
ENDBRANCH  15  19
ENDBRANCH   1  15
TORSDOF 5
ENDMDL
MODEL 9
REMARK VINA RESULT:      -5.4      2.006      2.604
REMARK  5 active torsions:
REMARK  status: ('A' for Active; 'I' for Inactive)
REMARK    1  A    between atoms: C2_2  and  C3_4 
REMARK    2  A    between atoms: C3_4  and  O1_5 
REMARK    3  A    between atoms: C3_4  and  C5_7 
REMARK    4  A    between atoms: C8_12  and  N3_13 
REMARK    5  A    between atoms: N4_16  and  C11_17 
ROOT
HETATM    1  C5  UNL     1      21.949   1.955  52.097  1.00  0.00     0.039 A 
HETATM    2  C6  UNL     1      20.584   1.953  51.792  1.00  0.00     0.132 A 
HETATM    3  N1  UNL     1      19.800   0.966  52.199  1.00  0.00    -0.253 NA
HETATM    4  C7  UNL     1      20.284  -0.057  52.909  1.00  0.00     0.234 A 
HETATM    5  N2  UNL     1      21.602  -0.093  53.226  1.00  0.00    -0.224 NA
HETATM    6  C8  UNL     1      22.449   0.901  52.829  1.00  0.00     0.137 A 
ENDROOT
BRANCH   6   7
HETATM    7  N3  UNL     1      23.818   0.777  53.203  1.00  0.00    -0.362 N 
HETATM    8  C9  UNL     1      25.049   1.539  53.058  1.00  0.00     0.144 C 
HETATM    9  C10 UNL     1      26.054   0.660  52.291  1.00  0.00     0.145 C 
HETATM   10  N4  UNL     1      26.313  -0.449  53.189  1.00  0.00    -0.356 N 
HETATM   11  C12 UNL     1      25.395  -0.825  54.246  1.00  0.00     0.145 C 
HETATM   12  C13 UNL     1      23.973  -0.496  53.925  1.00  0.00     0.144 C 
BRANCH  10  13
HETATM   13  C11 UNL     1      27.542  -1.096  52.907  1.00  0.00     0.350 C 
HETATM   14  O2  UNL     1      27.405  -2.341  53.082  1.00  0.00    -0.284 OA
ENDBRANCH  10  13
ENDBRANCH   6   7
BRANCH   1  15
HETATM   15  C3  UNL     1      22.816   3.061  51.644  1.00  0.00     0.196 C 
BRANCH  15  16
HETATM   16  C2  UNL     1      23.016   3.116  50.173  1.00  0.00    -0.007 C 
HETATM   17  C1  UNL     1      23.260   3.182  48.870  1.00  0.00     0.154 C 
HETATM   18  I1  UNL     1      25.031   3.623  49.705  1.00  0.00    -0.155 I 
ENDBRANCH  15  16
BRANCH  15  19
HETATM   19  O1  UNL     1      22.413   4.286  52.162  1.00  0.00    -0.381 OA
HETATM   20  C4  UNL     1      23.402   4.889  52.931  1.00  0.00     0.202 C 
ENDBRANCH  15  19
ENDBRANCH   1  15
TORSDOF 5
ENDMDL
