MODEL 1
REMARK VINA RESULT:      -9.2      0.000      0.000
REMARK  1 active torsions:
REMARK  status: ('A' for Active; 'I' for Inactive)
REMARK    1  A    between atoms: C2_2  and  C3_3 
REMARK       I    between atoms: C3_3  and  N1_5 
ROOT
HETATM    1  C3  UNL     1      27.728  -0.434  53.449  1.00  0.00     0.242 C 
HETATM    2  O1  UNL     1      27.202  -1.572  53.673  1.00  0.00    -0.268 OA
HETATM    3  N1  UNL     1      26.964   0.483  52.679  1.00  0.00    -0.344 N 
HETATM    4  C4  UNL     1      27.410   1.792  52.340  1.00  0.00     0.131 C 
HETATM    5  C5  UNL     1      26.571   2.598  51.440  1.00  0.00     0.059 C 
HETATM    6  C6  UNL     1      25.103   2.570  51.681  1.00  0.00    -0.010 C 
HETATM    7  C7  UNL     1      24.762   1.323  52.073  1.00  0.00     0.009 C 
HETATM    8  C8  UNL     1      25.662   0.168  52.172  1.00  0.00     0.172 C 
HETATM    9  S1  UNL     1      23.139   0.660  52.594  1.00  0.00    -0.073 SA
HETATM   10  C9  UNL     1      21.836   1.540  51.767  1.00  0.00     0.100 C 
HETATM   11  N2  UNL     1      21.665   2.879  51.859  1.00  0.00    -0.222 NA
HETATM   12  C10 UNL     1      22.239   3.465  50.597  1.00  0.00     0.154 C 
HETATM   13  N3  UNL     1      23.341   4.099  50.825  1.00  0.00    -0.230 NA
HETATM   14  C11 UNL     1      24.643   3.929  51.390  1.00  0.00     0.375 C 
HETATM   15  N4  UNL     1      25.560   4.741  50.648  1.00  0.00     0.120 N 
HETATM   16  C12 UNL     1      24.838   5.848  50.028  1.00  0.00     0.242 C 
HETATM   17  C13 UNL     1      25.957   6.825  49.607  1.00  0.00     0.047 C 
HETATM   18  C14 UNL     1      24.019   5.467  48.866  1.00  0.00     0.008 C 
HETATM   19  C15 UNL     1      23.111   4.907  48.080  1.00  0.00    -0.001 C 
HETATM   20  C16 UNL     1      22.065   3.944  48.326  1.00  0.00     0.011 C 
HETATM   21  C17 UNL     1      21.546   3.231  49.298  1.00  0.00    -0.007 C 
HETATM   22  C18 UNL     1      20.414   2.297  49.072  1.00  0.00     0.070 C 
HETATM   23  C19 UNL     1      20.527   1.022  49.809  1.00  0.00    -0.019 C 
HETATM   24  C20 UNL     1      21.064   0.613  50.949  1.00  0.00     0.035 C 
HETATM   25  H11 UNL     1      25.948   4.153  49.854  1.00  0.00     0.320 HD
ENDROOT
BRANCH   1  26
HETATM   26  C2  UNL     1      29.050  -0.143  53.980  1.00  0.00     0.064 C 
HETATM   27  C1  UNL     1      30.133  -0.834  53.716  1.00  0.00     0.017 C 
ENDBRANCH   1  26
TORSDOF 1
ENDMDL
MODEL 2
REMARK VINA RESULT:      -8.8      1.586      2.205
REMARK  1 active torsions:
REMARK  status: ('A' for Active; 'I' for Inactive)
REMARK    1  A    between atoms: C2_2  and  C3_3 
REMARK       I    between atoms: C3_3  and  N1_5 
ROOT
HETATM    1  C3  UNL     1      26.172  -0.174  54.448  1.00  0.00     0.242 C 
HETATM    2  O1  UNL     1      25.700  -1.168  55.088  1.00  0.00    -0.268 OA
HETATM    3  N1  UNL     1      25.314   0.435  53.492  1.00  0.00    -0.344 N 
HETATM    4  C4  UNL     1      25.691   1.553  52.695  1.00  0.00     0.131 C 
HETATM    5  C5  UNL     1      24.752   2.014  51.661  1.00  0.00     0.059 C 
HETATM    6  C6  UNL     1      23.313   2.075  52.036  1.00  0.00    -0.010 C 
HETATM    7  C7  UNL     1      23.044   1.033  52.853  1.00  0.00     0.009 C 
HETATM    8  C8  UNL     1      23.981  -0.026  53.247  1.00  0.00     0.172 C 
HETATM    9  S1  UNL     1      21.495   0.591  53.719  1.00  0.00    -0.073 SA
HETATM   10  C9  UNL     1      20.097   1.149  52.774  1.00  0.00     0.100 C 
HETATM   11  N2  UNL     1      19.899   2.442  52.429  1.00  0.00    -0.222 NA
HETATM   12  C10 UNL     1      20.338   2.568  50.995  1.00  0.00     0.154 C 
HETATM   13  N3  UNL     1      21.439   3.236  50.892  1.00  0.00    -0.230 NA
HETATM   14  C11 UNL     1      22.791   3.260  51.354  1.00  0.00     0.375 C 
HETATM   15  N4  UNL     1      23.613   3.772  50.299  1.00  0.00     0.120 N 
HETATM   16  C12 UNL     1      22.807   4.610  49.417  1.00  0.00     0.242 C 
HETATM   17  C13 UNL     1      23.855   5.384  48.588  1.00  0.00     0.047 C 
HETATM   18  C14 UNL     1      21.896   3.865  48.533  1.00  0.00     0.008 C 
HETATM   19  C15 UNL     1      20.936   3.079  48.070  1.00  0.00    -0.001 C 
HETATM   20  C16 UNL     1      19.943   2.258  48.722  1.00  0.00     0.011 C 
HETATM   21  C17 UNL     1      19.536   1.915  49.921  1.00  0.00    -0.007 C 
HETATM   22  C18 UNL     1      18.415   0.964  50.130  1.00  0.00     0.070 C 
HETATM   23  C19 UNL     1      18.630   0.010  51.236  1.00  0.00    -0.019 C 
HETATM   24  C20 UNL     1      19.280   0.004  52.390  1.00  0.00     0.035 C 
HETATM   25  H11 UNL     1      23.943   2.950  49.713  1.00  0.00     0.320 HD
ENDROOT
BRANCH   1  26
HETATM   26  C2  UNL     1      27.527   0.272  54.722  1.00  0.00     0.064 C 
HETATM   27  C1  UNL     1      28.611  -0.259  54.207  1.00  0.00     0.017 C 
ENDBRANCH   1  26
TORSDOF 1
ENDMDL
MODEL 3
REMARK VINA RESULT:      -8.8      3.314      6.494
REMARK  1 active torsions:
REMARK  status: ('A' for Active; 'I' for Inactive)
REMARK    1  A    between atoms: C2_2  and  C3_3 
REMARK       I    between atoms: C3_3  and  N1_5 
ROOT
HETATM    1  C3  UNL     1      22.380   6.600  51.084  1.00  0.00     0.242 C 
HETATM    2  O1  UNL     1      21.182   6.897  50.771  1.00  0.00    -0.268 OA
HETATM    3  N1  UNL     1      22.589   5.322  51.668  1.00  0.00    -0.344 N 
HETATM    4  C4  UNL     1      23.865   4.840  52.074  1.00  0.00     0.131 C 
HETATM    5  C5  UNL     1      23.928   3.547  52.772  1.00  0.00     0.059 C 
HETATM    6  C6  UNL     1      23.080   2.449  52.234  1.00  0.00    -0.010 C 
HETATM    7  C7  UNL     1      21.920   2.986  51.796  1.00  0.00     0.009 C 
HETATM    8  C8  UNL     1      21.522   4.395  51.900  1.00  0.00     0.172 C 
HETATM    9  S1  UNL     1      20.501   2.190  50.960  1.00  0.00    -0.073 SA
HETATM   10  C9  UNL     1      20.361   0.500  51.489  1.00  0.00     0.100 C 
HETATM   11  N2  UNL     1      21.352  -0.410  51.347  1.00  0.00    -0.222 NA
HETATM   12  C10 UNL     1      22.017  -0.524  52.692  1.00  0.00     0.154 C 
HETATM   13  N3  UNL     1      23.194   0.009  52.688  1.00  0.00    -0.230 NA
HETATM   14  C11 UNL     1      23.876   1.233  52.406  1.00  0.00     0.375 C 
HETATM   15  N4  UNL     1      24.980   1.346  53.311  1.00  0.00     0.120 N 
HETATM   16  C12 UNL     1      25.384   0.015  53.753  1.00  0.00     0.242 C 
HETATM   17  C13 UNL     1      26.775   0.245  54.384  1.00  0.00     0.047 C 
HETATM   18  C14 UNL     1      24.472  -0.606  54.726  1.00  0.00     0.008 C 
HETATM   19  C15 UNL     1      23.406  -1.127  55.315  1.00  0.00    -0.001 C 
HETATM   20  C16 UNL     1      22.049  -1.339  54.872  1.00  0.00     0.011 C 
HETATM   21  C17 UNL     1      21.281  -1.157  53.823  1.00  0.00    -0.007 C 
HETATM   22  C18 UNL     1      19.845  -1.535  53.823  1.00  0.00     0.070 C 
HETATM   23  C19 UNL     1      18.965  -0.564  53.141  1.00  0.00    -0.019 C 
HETATM   24  C20 UNL     1      19.074   0.299  52.143  1.00  0.00     0.035 C 
HETATM   25  H11 UNL     1      24.643   1.861  54.175  1.00  0.00     0.320 HD
ENDROOT
BRANCH   1  26
HETATM   26  C2  UNL     1      23.441   7.561  50.833  1.00  0.00     0.064 C 
HETATM   27  C1  UNL     1      23.928   7.849  49.650  1.00  0.00     0.017 C 
ENDBRANCH   1  26
TORSDOF 1
ENDMDL
MODEL 4
REMARK VINA RESULT:      -8.8      1.921      4.191
REMARK  1 active torsions:
REMARK  status: ('A' for Active; 'I' for Inactive)
REMARK    1  A    between atoms: C2_2  and  C3_3 
REMARK       I    between atoms: C3_3  and  N1_5 
ROOT
HETATM    1  C3  UNL     1      28.581   0.662  53.443  1.00  0.00     0.242 C 
HETATM    2  O1  UNL     1      29.453   1.516  53.083  1.00  0.00    -0.268 OA
HETATM    3  N1  UNL     1      27.223   0.986  53.181  1.00  0.00    -0.344 N 
HETATM    4  C4  UNL     1      26.131   0.139  53.523  1.00  0.00     0.131 C 
HETATM    5  C5  UNL     1      24.767   0.644  53.302  1.00  0.00     0.059 C 
HETATM    6  C6  UNL     1      24.515   1.367  52.026  1.00  0.00    -0.010 C 
HETATM    7  C7  UNL     1      25.617   2.086  51.722  1.00  0.00     0.009 C 
HETATM    8  C8  UNL     1      26.830   2.204  52.541  1.00  0.00     0.172 C 
HETATM    9  S1  UNL     1      25.976   3.120  50.256  1.00  0.00    -0.073 SA
HETATM   10  C9  UNL     1      24.466   3.806  49.619  1.00  0.00     0.100 C 
HETATM   11  N2  UNL     1      23.417   3.053  49.216  1.00  0.00    -0.222 NA
HETATM   12  C10 UNL     1      22.419   3.082  50.341  1.00  0.00     0.154 C 
HETATM   13  N3  UNL     1      22.352   1.945  50.949  1.00  0.00    -0.230 NA
HETATM   14  C11 UNL     1      23.159   0.983  51.632  1.00  0.00     0.375 C 
HETATM   15  N4  UNL     1      22.365   0.389  52.666  1.00  0.00     0.120 N 
HETATM   16  C12 UNL     1      20.952   0.491  52.312  1.00  0.00     0.242 C 
HETATM   17  C13 UNL     1      20.261  -0.497  53.277  1.00  0.00     0.047 C 
HETATM   18  C14 UNL     1      20.383   1.840  52.458  1.00  0.00     0.008 C 
HETATM   19  C15 UNL     1      20.137   3.135  52.333  1.00  0.00    -0.001 C 
HETATM   20  C16 UNL     1      20.739   4.172  51.529  1.00  0.00     0.011 C 
HETATM   21  C17 UNL     1      21.692   4.349  50.645  1.00  0.00    -0.007 C 
HETATM   22  C18 UNL     1      21.988   5.682  50.062  1.00  0.00     0.070 C 
HETATM   23  C19 UNL     1      23.429   5.964  49.900  1.00  0.00    -0.019 C 
HETATM   24  C20 UNL     1      24.529   5.261  49.678  1.00  0.00     0.035 C 
HETATM   25  H11 UNL     1      22.496   0.964  53.548  1.00  0.00     0.320 HD
ENDROOT
BRANCH   1  26
HETATM   26  C2  UNL     1      29.012  -0.567  54.088  1.00  0.00     0.064 C 
HETATM   27  C1  UNL     1      29.419  -1.644  53.458  1.00  0.00     0.017 C 
ENDBRANCH   1  26
TORSDOF 1
ENDMDL
MODEL 5
REMARK VINA RESULT:      -8.7      2.904      5.864
REMARK  1 active torsions:
REMARK  status: ('A' for Active; 'I' for Inactive)
REMARK    1  A    between atoms: C2_2  and  C3_3 
REMARK       I    between atoms: C3_3  and  N1_5 
ROOT
HETATM    1  C3  UNL     1      18.783  -0.382  52.682  1.00  0.00     0.242 C 
HETATM    2  O1  UNL     1      17.743   0.149  52.175  1.00  0.00    -0.268 OA
HETATM    3  N1  UNL     1      20.030   0.210  52.347  1.00  0.00    -0.344 N 
HETATM    4  C4  UNL     1      21.283  -0.264  52.830  1.00  0.00     0.131 C 
HETATM    5  C5  UNL     1      22.508   0.366  52.314  1.00  0.00     0.059 C 
HETATM    6  C6  UNL     1      22.501   1.849  52.187  1.00  0.00    -0.010 C 
HETATM    7  C7  UNL     1      21.264   2.235  51.803  1.00  0.00     0.009 C 
HETATM    8  C8  UNL     1      20.137   1.349  51.486  1.00  0.00     0.172 C 
HETATM    9  S1  UNL     1      20.585   3.915  51.552  1.00  0.00    -0.073 SA
HETATM   10  C9  UNL     1      21.880   5.016  51.036  1.00  0.00     0.100 C 
HETATM   11  N2  UNL     1      23.000   5.242  51.761  1.00  0.00    -0.222 NA
HETATM   12  C10 UNL     1      24.085   4.409  51.132  1.00  0.00     0.154 C 
HETATM   13  N3  UNL     1      24.410   3.408  51.881  1.00  0.00    -0.230 NA
HETATM   14  C11 UNL     1      23.857   2.268  52.542  1.00  0.00     0.375 C 
HETATM   15  N4  UNL     1      24.842   1.228  52.534  1.00  0.00     0.120 N 
HETATM   16  C12 UNL     1      26.172   1.819  52.431  1.00  0.00     0.242 C 
HETATM   17  C13 UNL     1      27.119   0.662  52.818  1.00  0.00     0.047 C 
HETATM   18  C14 UNL     1      26.507   2.336  51.094  1.00  0.00     0.008 C 
HETATM   19  C15 UNL     1      26.508   3.021  49.960  1.00  0.00    -0.001 C 
HETATM   20  C16 UNL     1      25.656   4.067  49.449  1.00  0.00     0.011 C 
HETATM   21  C17 UNL     1      24.603   4.776  49.783  1.00  0.00    -0.007 C 
HETATM   22  C18 UNL     1      24.021   5.797  48.876  1.00  0.00     0.070 C 
HETATM   23  C19 UNL     1      22.544   5.821  48.862  1.00  0.00    -0.019 C 
HETATM   24  C20 UNL     1      21.569   5.550  49.716  1.00  0.00     0.035 C 
HETATM   25  H11 UNL     1      24.700   0.651  51.655  1.00  0.00     0.320 HD
ENDROOT
BRANCH   1  26
HETATM   26  C2  UNL     1      18.641  -1.536  53.554  1.00  0.00     0.064 C 
HETATM   27  C1  UNL     1      17.696  -2.441  53.454  1.00  0.00     0.017 C 
ENDBRANCH   1  26
TORSDOF 1
ENDMDL
MODEL 6
REMARK VINA RESULT:      -8.2      3.278      7.467
REMARK  1 active torsions:
REMARK  status: ('A' for Active; 'I' for Inactive)
REMARK    1  A    between atoms: C2_2  and  C3_3 
REMARK       I    between atoms: C3_3  and  N1_5 
ROOT
HETATM    1  C3  UNL     1      17.791   1.612  49.492  1.00  0.00     0.242 C 
HETATM    2  O1  UNL     1      17.803   2.360  48.461  1.00  0.00    -0.268 OA
HETATM    3  N1  UNL     1      19.043   1.365  50.115  1.00  0.00    -0.344 N 
HETATM    4  C4  UNL     1      19.200   0.551  51.273  1.00  0.00     0.131 C 
HETATM    5  C5  UNL     1      20.565   0.282  51.751  1.00  0.00     0.059 C 
HETATM    6  C6  UNL     1      21.514   1.428  51.761  1.00  0.00    -0.010 C 
HETATM    7  C7  UNL     1      21.258   2.199  50.681  1.00  0.00     0.009 C 
HETATM    8  C8  UNL     1      20.270   1.921  49.631  1.00  0.00     0.172 C 
HETATM    9  S1  UNL     1      22.013   3.783  50.166  1.00  0.00    -0.073 SA
HETATM   10  C9  UNL     1      23.697   3.858  50.725  1.00  0.00     0.100 C 
HETATM   11  N2  UNL     1      24.056   3.754  52.025  1.00  0.00    -0.222 NA
HETATM   12  C10 UNL     1      24.536   2.341  52.220  1.00  0.00     0.154 C 
HETATM   13  N3  UNL     1      23.701   1.647  52.919  1.00  0.00    -0.230 NA
HETATM   14  C11 UNL     1      22.333   1.234  52.958  1.00  0.00     0.375 C 
HETATM   15  N4  UNL     1      22.280  -0.077  53.532  1.00  0.00     0.120 N 
HETATM   16  C12 UNL     1      23.447  -0.283  54.384  1.00  0.00     0.242 C 
HETATM   17  C13 UNL     1      23.078  -1.530  55.217  1.00  0.00     0.047 C 
HETATM   18  C14 UNL     1      24.704  -0.503  53.652  1.00  0.00     0.008 C 
HETATM   19  C15 UNL     1      25.756  -0.356  52.860  1.00  0.00    -0.001 C 
HETATM   20  C16 UNL     1      26.184   0.713  51.990  1.00  0.00     0.011 C 
HETATM   21  C17 UNL     1      25.816   1.907  51.589  1.00  0.00    -0.007 C 
HETATM   22  C18 UNL     1      26.607   2.686  50.603  1.00  0.00     0.070 C 
HETATM   23  C19 UNL     1      25.789   3.413  49.611  1.00  0.00    -0.019 C 
HETATM   24  C20 UNL     1      24.588   3.969  49.576  1.00  0.00     0.035 C 
HETATM   25  H11 UNL     1      22.356  -0.782  52.743  1.00  0.00     0.320 HD
ENDROOT
BRANCH   1  26
HETATM   26  C2  UNL     1      16.529   1.065  49.960  1.00  0.00     0.064 C 
HETATM   27  C1  UNL     1      16.057  -0.117  49.639  1.00  0.00     0.017 C 
ENDBRANCH   1  26
TORSDOF 1
ENDMDL
MODEL 7
REMARK VINA RESULT:      -7.9      2.999      5.786
REMARK  1 active torsions:
REMARK  status: ('A' for Active; 'I' for Inactive)
REMARK    1  A    between atoms: C2_2  and  C3_3 
REMARK       I    between atoms: C3_3  and  N1_5 
ROOT
HETATM    1  C3  UNL     1      25.014   5.943  49.176  1.00  0.00     0.242 C 
HETATM    2  O1  UNL     1      24.200   6.607  48.456  1.00  0.00    -0.268 OA
HETATM    3  N1  UNL     1      24.465   4.884  49.947  1.00  0.00    -0.344 N 
HETATM    4  C4  UNL     1      25.239   4.049  50.802  1.00  0.00     0.131 C 
HETATM    5  C5  UNL     1      24.531   3.063  51.634  1.00  0.00     0.059 C 
HETATM    6  C6  UNL     1      23.428   2.302  50.986  1.00  0.00    -0.010 C 
HETATM    7  C7  UNL     1      22.787   3.131  50.132  1.00  0.00     0.009 C 
HETATM    8  C8  UNL     1      23.071   4.557  49.929  1.00  0.00     0.172 C 
HETATM    9  S1  UNL     1      21.406   2.791  48.983  1.00  0.00    -0.073 SA
HETATM   10  C9  UNL     1      20.383   1.494  49.638  1.00  0.00     0.100 C 
HETATM   11  N2  UNL     1      20.846   0.259  49.938  1.00  0.00    -0.222 NA
HETATM   12  C10 UNL     1      21.042   0.232  51.430  1.00  0.00     0.154 C 
HETATM   13  N3  UNL     1      22.295   0.226  51.745  1.00  0.00    -0.230 NA
HETATM   14  C11 UNL     1      23.509   0.956  51.554  1.00  0.00     0.375 C 
HETATM   15  N4  UNL     1      24.290   0.841  52.749  1.00  0.00     0.120 N 
HETATM   16  C12 UNL     1      23.918  -0.380  53.457  1.00  0.00     0.242 C 
HETATM   17  C13 UNL     1      25.063  -0.578  54.473  1.00  0.00     0.047 C 
HETATM   18  C14 UNL     1      22.620  -0.312  54.147  1.00  0.00     0.008 C 
HETATM   19  C15 UNL     1      21.328  -0.191  54.415  1.00  0.00    -0.001 C 
HETATM   20  C16 UNL     1      20.175   0.056  53.583  1.00  0.00     0.011 C 
HETATM   21  C17 UNL     1      19.852   0.259  52.327  1.00  0.00    -0.007 C 
HETATM   22  C18 UNL     1      18.450   0.505  51.905  1.00  0.00     0.070 C 
HETATM   23  C19 UNL     1      18.306   1.540  50.862  1.00  0.00    -0.019 C 
HETATM   24  C20 UNL     1      19.034   2.002  49.856  1.00  0.00     0.035 C 
HETATM   25  H11 UNL     1      24.033   1.649  53.387  1.00  0.00     0.320 HD
ENDROOT
BRANCH   1  26
HETATM   26  C2  UNL     1      26.423   6.297  49.170  1.00  0.00     0.064 C 
HETATM   27  C1  UNL     1      27.363   5.626  48.548  1.00  0.00     0.017 C 
ENDBRANCH   1  26
TORSDOF 1
ENDMDL
MODEL 8
REMARK VINA RESULT:      -7.9      2.090      2.498
REMARK  1 active torsions:
REMARK  status: ('A' for Active; 'I' for Inactive)
REMARK    1  A    between atoms: C2_2  and  C3_3 
REMARK       I    between atoms: C3_3  and  N1_5 
ROOT
HETATM    1  C3  UNL     1      25.310  -0.193  52.951  1.00  0.00     0.242 C 
HETATM    2  O1  UNL     1      24.276  -0.832  53.330  1.00  0.00    -0.268 OA
HETATM    3  N1  UNL     1      25.089   0.967  52.161  1.00  0.00    -0.344 N 
HETATM    4  C4  UNL     1      26.138   1.790  51.660  1.00  0.00     0.131 C 
HETATM    5  C5  UNL     1      25.780   2.895  50.758  1.00  0.00     0.059 C 
HETATM    6  C6  UNL     1      24.584   3.702  51.122  1.00  0.00    -0.010 C 
HETATM    7  C7  UNL     1      23.663   2.874  51.663  1.00  0.00     0.009 C 
HETATM    8  C8  UNL     1      23.779   1.417  51.799  1.00  0.00     0.172 C 
HETATM    9  S1  UNL     1      22.024   3.252  52.381  1.00  0.00    -0.073 SA
HETATM   10  C9  UNL     1      21.332   4.681  51.584  1.00  0.00     0.100 C 
HETATM   11  N2  UNL     1      21.942   5.888  51.557  1.00  0.00    -0.222 NA
HETATM   12  C10 UNL     1      22.582   6.008  50.200  1.00  0.00     0.154 C 
HETATM   13  N3  UNL     1      23.869   5.924  50.271  1.00  0.00    -0.230 NA
HETATM   14  C11 UNL     1      24.919   5.075  50.739  1.00  0.00     0.375 C 
HETATM   15  N4  UNL     1      26.030   5.208  49.846  1.00  0.00     0.120 N 
HETATM   16  C12 UNL     1      25.969   6.507  49.183  1.00  0.00     0.242 C 
HETATM   17  C13 UNL     1      27.378   6.675  48.575  1.00  0.00     0.047 C 
HETATM   18  C14 UNL     1      24.939   6.609  48.138  1.00  0.00     0.008 C 
HETATM   19  C15 UNL     1      23.783   6.626  47.489  1.00  0.00    -0.001 C 
HETATM   20  C16 UNL     1      22.419   6.424  47.916  1.00  0.00     0.011 C 
HETATM   21  C17 UNL     1      21.719   6.157  48.993  1.00  0.00    -0.007 C 
HETATM   22  C18 UNL     1      20.242   6.010  48.956  1.00  0.00     0.070 C 
HETATM   23  C19 UNL     1      19.723   4.916  49.803  1.00  0.00    -0.019 C 
HETATM   24  C20 UNL     1      20.082   4.317  50.928  1.00  0.00     0.035 C 
HETATM   25  H11 UNL     1      25.926   4.476  49.084  1.00  0.00     0.320 HD
ENDROOT
BRANCH   1  26
HETATM   26  C2  UNL     1      26.626  -0.673  53.338  1.00  0.00     0.064 C 
HETATM   27  C1  UNL     1      27.279  -1.639  52.737  1.00  0.00     0.017 C 
ENDBRANCH   1  26
TORSDOF 1
ENDMDL
MODEL 9
REMARK VINA RESULT:      -7.8      3.952      7.053
REMARK  1 active torsions:
REMARK  status: ('A' for Active; 'I' for Inactive)
REMARK    1  A    between atoms: C2_2  and  C3_3 
REMARK       I    between atoms: C3_3  and  N1_5 
ROOT
HETATM    1  C3  UNL     1      20.634   9.155  49.733  1.00  0.00     0.242 C 
HETATM    2  O1  UNL     1      19.500   9.033  50.300  1.00  0.00    -0.268 OA
HETATM    3  N1  UNL     1      21.545   8.076  49.889  1.00  0.00    -0.344 N 
HETATM    4  C4  UNL     1      22.850   8.057  49.319  1.00  0.00     0.131 C 
HETATM    5  C5  UNL     1      23.736   6.931  49.653  1.00  0.00     0.059 C 
HETATM    6  C6  UNL     1      23.127   5.573  49.658  1.00  0.00    -0.010 C 
HETATM    7  C7  UNL     1      21.867   5.676  50.135  1.00  0.00     0.009 C 
HETATM    8  C8  UNL     1      21.226   6.898  50.637  1.00  0.00     0.172 C 
HETATM    9  S1  UNL     1      20.573   4.396  50.317  1.00  0.00    -0.073 SA
HETATM   10  C9  UNL     1      21.328   2.814  50.605  1.00  0.00     0.100 C 
HETATM   11  N2  UNL     1      22.210   2.242  49.752  1.00  0.00    -0.222 NA
HETATM   12  C10 UNL     1      23.577   2.488  50.331  1.00  0.00     0.154 C 
HETATM   13  N3  UNL     1      24.240   3.352  49.637  1.00  0.00    -0.230 NA
HETATM   14  C11 UNL     1      24.166   4.687  49.132  1.00  0.00     0.375 C 
HETATM   15  N4  UNL     1      25.490   5.234  49.123  1.00  0.00     0.120 N 
HETATM   16  C12 UNL     1      26.463   4.149  49.040  1.00  0.00     0.242 C 
HETATM   17  C13 UNL     1      27.776   4.863  48.653  1.00  0.00     0.047 C 
HETATM   18  C14 UNL     1      26.636   3.389  50.289  1.00  0.00     0.008 C 
HETATM   19  C15 UNL     1      26.423   2.634  51.357  1.00  0.00    -0.001 C 
HETATM   20  C16 UNL     1      25.248   1.968  51.866  1.00  0.00     0.011 C 
HETATM   21  C17 UNL     1      23.979   1.788  51.586  1.00  0.00    -0.007 C 
HETATM   22  C18 UNL     1      23.084   0.990  52.461  1.00  0.00     0.070 C 
HETATM   23  C19 UNL     1      21.733   1.562  52.626  1.00  0.00    -0.019 C 
HETATM   24  C20 UNL     1      20.905   2.301  51.902  1.00  0.00     0.035 C 
HETATM   25  H11 UNL     1      25.652   5.712  50.056  1.00  0.00     0.320 HD
ENDROOT
BRANCH   1  26
HETATM   26  C2  UNL     1      20.927  10.361  48.977  1.00  0.00     0.064 C 
HETATM   27  C1  UNL     1      20.459  11.554  49.256  1.00  0.00     0.017 C 
ENDBRANCH   1  26
TORSDOF 1
ENDMDL
