MODEL 1
REMARK VINA RESULT:      -8.3      0.000      0.000
REMARK  4 active torsions:
REMARK  status: ('A' for Active; 'I' for Inactive)
REMARK    1  A    between atoms: P1_2  and  O1_3 
REMARK    2  A    between atoms: O1_3  and  C2_4 
REMARK    3  A    between atoms: C2_4  and  O2_6 
REMARK    4  A    between atoms: O2_6  and  C4_7 
ROOT
HETATM    1  C4  UNL     1      25.083  -0.162  53.117  1.00  0.00     0.110 A 
HETATM    2  C5  UNL     1      25.613   0.721  52.174  1.00  0.00     0.072 A 
HETATM    3  C6  UNL     1      24.820   1.733  51.612  1.00  0.00     0.070 A 
HETATM    4  C7  UNL     1      23.504   1.841  52.007  1.00  0.00     0.029 A 
HETATM    5  C8  UNL     1      22.953   0.987  52.931  1.00  0.00     0.117 A 
HETATM    6  C9  UNL     1      23.764   0.011  53.458  1.00  0.00     0.136 A 
HETATM    7  O3  UNL     1      23.309  -0.893  54.390  1.00  0.00    -0.344 OA
HETATM    8  C10 UNL     1      21.941  -1.006  54.731  1.00  0.00     0.202 C 
HETATM    9  C11 UNL     1      21.092  -0.312  53.688  1.00  0.00     0.202 C 
HETATM   10  O4  UNL     1      21.659   0.961  53.431  1.00  0.00    -0.345 OA
HETATM   11  C12 UNL     1      22.882   2.835  51.395  1.00  0.00     0.055 A 
HETATM   12  C13 UNL     1      23.884   3.460  50.497  1.00  0.00     0.272 A 
HETATM   13  C14 UNL     1      24.176   4.871  50.933  1.00  0.00     0.101 C 
HETATM   14  C15 UNL     1      24.848   5.701  49.923  1.00  0.00     0.020 C 
HETATM   15  C16 UNL     1      24.541   6.167  48.708  1.00  0.00     0.112 C 
HETATM   16  F1  UNL     1      25.492   6.928  48.101  1.00  0.00    -0.206 F 
HETATM   17  C17 UNL     1      23.319   5.991  47.890  1.00  0.00     0.039 C 
HETATM   18  C18 UNL     1      22.360   5.048  47.931  1.00  0.00     0.006 C 
HETATM   19  C19 UNL     1      22.180   3.839  48.817  1.00  0.00     0.301 C 
HETATM   20  N1  UNL     1      23.504   3.344  49.105  1.00  0.00     0.121 N 
HETATM   21  N2  UNL     1      25.058   2.655  50.744  1.00  0.00    -0.243 NA
HETATM   22  H22 UNL     1      23.565   2.353  48.835  1.00  0.00     0.320 HD
ENDROOT
BRANCH   1  23
HETATM   23  O2  UNL     1      26.047  -1.051  53.513  1.00  0.00    -0.318 OA
BRANCH  23  24
HETATM   24  C2  UNL     1      27.379  -1.143  53.153  1.00  0.00     0.266 C 
HETATM   25  C3  UNL     1      27.741  -2.571  52.707  1.00  0.00     0.071 C 
BRANCH  24  26
HETATM   26  O1  UNL     1      28.247  -0.892  54.242  1.00  0.00    -0.337 OA
BRANCH  26  27
HETATM   27  P1  UNL     1      29.425   0.329  53.833  1.00  0.00     0.011 P 
HETATM   28  C1  UNL     1      28.661   2.022  53.832  1.00  0.00     0.072 C 
HETATM   29  H4  UNL     1      30.037   0.033  52.554  1.00  0.00     0.087 HD
ENDBRANCH  26  27
ENDBRANCH  24  26
ENDBRANCH  23  24
ENDBRANCH   1  23
TORSDOF 4
ENDMDL
MODEL 2
REMARK VINA RESULT:      -8.1      3.766      6.458
REMARK  4 active torsions:
REMARK  status: ('A' for Active; 'I' for Inactive)
REMARK    1  A    between atoms: P1_2  and  O1_3 
REMARK    2  A    between atoms: O1_3  and  C2_4 
REMARK    3  A    between atoms: C2_4  and  O2_6 
REMARK    4  A    between atoms: O2_6  and  C4_7 
ROOT
HETATM    1  C4  UNL     1      26.474   2.617  51.059  1.00  0.00     0.110 A 
HETATM    2  C5  UNL     1      25.153   2.332  50.705  1.00  0.00     0.072 A 
HETATM    3  C6  UNL     1      24.284   1.710  51.614  1.00  0.00     0.070 A 
HETATM    4  C7  UNL     1      24.757   1.382  52.867  1.00  0.00     0.029 A 
HETATM    5  C8  UNL     1      26.050   1.648  53.244  1.00  0.00     0.117 A 
HETATM    6  C9  UNL     1      26.868   2.260  52.325  1.00  0.00     0.136 A 
HETATM    7  O3  UNL     1      28.179   2.569  52.605  1.00  0.00    -0.344 OA
HETATM    8  C10 UNL     1      28.831   2.117  53.776  1.00  0.00     0.202 C 
HETATM    9  C11 UNL     1      28.036   0.993  54.405  1.00  0.00     0.202 C 
HETATM   10  O4  UNL     1      26.676   1.386  54.454  1.00  0.00    -0.345 OA
HETATM   11  C12 UNL     1      23.830   0.803  53.611  1.00  0.00     0.055 A 
HETATM   12  C13 UNL     1      22.608   0.735  52.773  1.00  0.00     0.272 A 
HETATM   13  C14 UNL     1      21.517   1.589  53.360  1.00  0.00     0.101 C 
HETATM   14  C15 UNL     1      20.169   1.309  52.843  1.00  0.00     0.020 C 
HETATM   15  C16 UNL     1      19.332   0.268  52.866  1.00  0.00     0.112 C 
HETATM   16  F1  UNL     1      18.137   0.447  52.239  1.00  0.00    -0.206 F 
HETATM   17  C17 UNL     1      19.484  -1.076  53.468  1.00  0.00     0.039 C 
HETATM   18  C18 UNL     1      20.587  -1.768  53.811  1.00  0.00     0.006 C 
HETATM   19  C19 UNL     1      22.054  -1.430  53.709  1.00  0.00     0.301 C 
HETATM   20  N1  UNL     1      22.208  -0.633  52.517  1.00  0.00     0.121 N 
HETATM   21  N2  UNL     1      23.050   1.346  51.541  1.00  0.00    -0.243 NA
HETATM   22  H22 UNL     1      22.911  -1.065  51.904  1.00  0.00     0.320 HD
ENDROOT
BRANCH   1  23
HETATM   23  O2  UNL     1      27.115   3.221  50.010  1.00  0.00    -0.318 OA
BRANCH  23  24
HETATM   24  C2  UNL     1      26.705   4.256  49.190  1.00  0.00     0.266 C 
HETATM   25  C3  UNL     1      27.906   4.955  48.528  1.00  0.00     0.071 C 
BRANCH  24  26
HETATM   26  O1  UNL     1      26.061   5.289  49.911  1.00  0.00    -0.337 OA
BRANCH  26  27
HETATM   27  P1  UNL     1      26.020   6.766  48.981  1.00  0.00     0.011 P 
HETATM   28  C1  UNL     1      26.476   8.229  50.030  1.00  0.00     0.072 C 
HETATM   29  H4  UNL     1      24.717   6.946  48.375  1.00  0.00     0.087 HD
ENDBRANCH  26  27
ENDBRANCH  24  26
ENDBRANCH  23  24
ENDBRANCH   1  23
TORSDOF 4
ENDMDL
MODEL 3
REMARK VINA RESULT:      -7.8      3.592      5.443
REMARK  4 active torsions:
REMARK  status: ('A' for Active; 'I' for Inactive)
REMARK    1  A    between atoms: P1_2  and  O1_3 
REMARK    2  A    between atoms: O1_3  and  C2_4 
REMARK    3  A    between atoms: C2_4  and  O2_6 
REMARK    4  A    between atoms: O2_6  and  C4_7 
ROOT
HETATM    1  C4  UNL     1      26.083   2.091  51.607  1.00  0.00     0.110 A 
HETATM    2  C5  UNL     1      24.950   1.499  52.168  1.00  0.00     0.072 A 
HETATM    3  C6  UNL     1      23.669   1.791  51.678  1.00  0.00     0.070 A 
HETATM    4  C7  UNL     1      23.546   2.676  50.628  1.00  0.00     0.029 A 
HETATM    5  C8  UNL     1      24.641   3.276  50.054  1.00  0.00     0.117 A 
HETATM    6  C9  UNL     1      25.877   2.961  50.564  1.00  0.00     0.136 A 
HETATM    7  O3  UNL     1      27.035   3.507  50.060  1.00  0.00    -0.344 OA
HETATM    8  C10 UNL     1      27.029   4.562  49.119  1.00  0.00     0.202 C 
HETATM    9  C11 UNL     1      25.660   5.207  49.079  1.00  0.00     0.202 C 
HETATM   10  O4  UNL     1      24.688   4.179  49.003  1.00  0.00    -0.345 OA
HETATM   11  C12 UNL     1      22.284   2.854  50.274  1.00  0.00     0.055 A 
HETATM   12  C13 UNL     1      21.476   2.000  51.179  1.00  0.00     0.272 A 
HETATM   13  C14 UNL     1      20.784   0.913  50.401  1.00  0.00     0.101 C 
HETATM   14  C15 UNL     1      19.678   0.254  51.111  1.00  0.00     0.020 C 
HETATM   15  C16 UNL     1      18.490   0.632  51.593  1.00  0.00     0.112 C 
HETATM   16  F1  UNL     1      17.756  -0.340  52.203  1.00  0.00    -0.206 F 
HETATM   17  C17 UNL     1      17.820   1.952  51.578  1.00  0.00     0.039 C 
HETATM   18  C18 UNL     1      18.323   3.193  51.444  1.00  0.00     0.006 C 
HETATM   19  C19 UNL     1      19.738   3.687  51.260  1.00  0.00     0.301 C 
HETATM   20  N1  UNL     1      20.584   2.787  52.005  1.00  0.00     0.121 N 
HETATM   21  N2  UNL     1      22.489   1.392  52.009  1.00  0.00    -0.243 NA
HETATM   22  H22 UNL     1      21.153   3.325  52.672  1.00  0.00     0.320 HD
ENDROOT
BRANCH   1  23
HETATM   23  O2  UNL     1      27.207   1.648  52.253  1.00  0.00    -0.318 OA
BRANCH  23  24
HETATM   24  C2  UNL     1      27.566   1.742  53.585  1.00  0.00     0.266 C 
HETATM   25  C3  UNL     1      28.936   2.423  53.749  1.00  0.00     0.071 C 
BRANCH  24  26
HETATM   26  O1  UNL     1      27.739   0.472  54.184  1.00  0.00    -0.337 OA
BRANCH  26  27
HETATM   27  P1  UNL     1      29.305  -0.194  53.792  1.00  0.00     0.011 P 
HETATM   28  C1  UNL     1      29.163  -1.971  53.272  1.00  0.00     0.072 C 
HETATM   29  H4  UNL     1      30.211  -0.049  54.911  1.00  0.00     0.087 HD
ENDBRANCH  26  27
ENDBRANCH  24  26
ENDBRANCH  23  24
ENDBRANCH   1  23
TORSDOF 4
ENDMDL
MODEL 4
REMARK VINA RESULT:      -7.8      5.510      7.863
REMARK  4 active torsions:
REMARK  status: ('A' for Active; 'I' for Inactive)
REMARK    1  A    between atoms: P1_2  and  O1_3 
REMARK    2  A    between atoms: O1_3  and  C2_4 
REMARK    3  A    between atoms: C2_4  and  O2_6 
REMARK    4  A    between atoms: O2_6  and  C4_7 
ROOT
HETATM    1  C4  UNL     1      28.884   6.105  48.144  1.00  0.00     0.110 A 
HETATM    2  C5  UNL     1      28.230   4.925  48.506  1.00  0.00     0.072 A 
HETATM    3  C6  UNL     1      26.923   4.955  49.014  1.00  0.00     0.070 A 
HETATM    4  C7  UNL     1      26.292   6.173  49.151  1.00  0.00     0.029 A 
HETATM    5  C8  UNL     1      26.908   7.351  48.805  1.00  0.00     0.117 A 
HETATM    6  C9  UNL     1      28.188   7.277  48.311  1.00  0.00     0.136 A 
HETATM    7  O3  UNL     1      28.891   8.398  47.935  1.00  0.00    -0.344 OA
HETATM    8  C10 UNL     1      28.430   9.708  48.203  1.00  0.00     0.202 C 
HETATM    9  C11 UNL     1      27.333   9.663  49.245  1.00  0.00     0.202 C 
HETATM   10  O4  UNL     1      26.417   8.645  48.880  1.00  0.00    -0.345 OA
HETATM   11  C12 UNL     1      25.070   6.046  49.640  1.00  0.00     0.055 A 
HETATM   12  C13 UNL     1      24.858   4.593  49.853  1.00  0.00     0.272 A 
HETATM   13  C14 UNL     1      23.768   4.081  48.950  1.00  0.00     0.101 C 
HETATM   14  C15 UNL     1      23.217   2.772  49.330  1.00  0.00     0.020 C 
HETATM   15  C16 UNL     1      22.544   2.284  50.377  1.00  0.00     0.112 C 
HETATM   16  F1  UNL     1      22.217   0.964  50.316  1.00  0.00    -0.206 F 
HETATM   17  C17 UNL     1      22.084   2.946  51.619  1.00  0.00     0.039 C 
HETATM   18  C18 UNL     1      22.512   4.066  52.231  1.00  0.00     0.006 C 
HETATM   19  C19 UNL     1      23.604   5.046  51.877  1.00  0.00     0.301 C 
HETATM   20  N1  UNL     1      24.655   4.279  51.252  1.00  0.00     0.121 N 
HETATM   21  N2  UNL     1      26.115   4.034  49.413  1.00  0.00    -0.243 NA
HETATM   22  H22 UNL     1      25.539   4.441  51.750  1.00  0.00     0.320 HD
ENDROOT
BRANCH   1  23
HETATM   23  O2  UNL     1      30.140   5.816  47.679  1.00  0.00    -0.318 OA
BRANCH  23  24
HETATM   24  C2  UNL     1      31.359   5.835  48.329  1.00  0.00     0.266 C 
HETATM   25  C3  UNL     1      32.414   6.612  47.521  1.00  0.00     0.071 C 
BRANCH  24  26
HETATM   26  O1  UNL     1      31.916   4.541  48.464  1.00  0.00    -0.337 OA
BRANCH  26  27
HETATM   27  P1  UNL     1      32.231   3.832  46.900  1.00  0.00     0.011 P 
HETATM   28  C1  UNL     1      32.831   2.082  47.069  1.00  0.00     0.072 C 
HETATM   29  H4  UNL     1      33.180   4.638  46.161  1.00  0.00     0.087 HD
ENDBRANCH  26  27
ENDBRANCH  24  26
ENDBRANCH  23  24
ENDBRANCH   1  23
TORSDOF 4
ENDMDL
MODEL 5
REMARK VINA RESULT:      -7.6      4.336      7.180
REMARK  4 active torsions:
REMARK  status: ('A' for Active; 'I' for Inactive)
REMARK    1  A    between atoms: P1_2  and  O1_3 
REMARK    2  A    between atoms: O1_3  and  C2_4 
REMARK    3  A    between atoms: C2_4  and  O2_6 
REMARK    4  A    between atoms: O2_6  and  C4_7 
ROOT
HETATM    1  C4  UNL     1      23.860   4.691  49.987  1.00  0.00     0.110 A 
HETATM    2  C5  UNL     1      24.154   4.193  51.258  1.00  0.00     0.072 A 
HETATM    3  C6  UNL     1      23.726   2.915  51.646  1.00  0.00     0.070 A 
HETATM    4  C7  UNL     1      23.007   2.155  50.748  1.00  0.00     0.029 A 
HETATM    5  C8  UNL     1      22.700   2.617  49.491  1.00  0.00     0.117 A 
HETATM    6  C9  UNL     1      23.140   3.873  49.151  1.00  0.00     0.136 A 
HETATM    7  O3  UNL     1      22.886   4.426  47.918  1.00  0.00    -0.344 OA
HETATM    8  C10 UNL     1      22.004   3.831  46.986  1.00  0.00     0.202 C 
HETATM    9  C11 UNL     1      21.148   2.793  47.681  1.00  0.00     0.202 C 
HETATM   10  O4  UNL     1      21.993   1.984  48.480  1.00  0.00    -0.345 OA
HETATM   11  C12 UNL     1      22.671   0.978  51.251  1.00  0.00     0.055 A 
HETATM   12  C13 UNL     1      23.223   0.944  52.627  1.00  0.00     0.272 A 
HETATM   13  C14 UNL     1      24.282  -0.119  52.745  1.00  0.00     0.101 C 
HETATM   14  C15 UNL     1      24.623  -0.500  54.124  1.00  0.00     0.020 C 
HETATM   15  C16 UNL     1      23.977  -1.065  55.148  1.00  0.00     0.112 C 
HETATM   16  F1  UNL     1      24.702  -1.242  56.287  1.00  0.00    -0.206 F 
HETATM   17  C17 UNL     1      22.580  -1.542  55.261  1.00  0.00     0.039 C 
HETATM   18  C18 UNL     1      21.480  -1.218  54.556  1.00  0.00     0.006 C 
HETATM   19  C19 UNL     1      21.271  -0.262  53.407  1.00  0.00     0.301 C 
HETATM   20  N1  UNL     1      22.176   0.840  53.623  1.00  0.00     0.121 N 
HETATM   21  N2  UNL     1      23.861   2.235  52.733  1.00  0.00    -0.243 NA
HETATM   22  H22 UNL     1      21.648   1.722  53.628  1.00  0.00     0.320 HD
ENDROOT
BRANCH   1  23
HETATM   23  O2  UNL     1      24.383   5.949  49.849  1.00  0.00    -0.318 OA
BRANCH  23  24
HETATM   24  C2  UNL     1      25.696   6.360  49.709  1.00  0.00     0.266 C 
HETATM   25  C3  UNL     1      25.892   7.796  50.227  1.00  0.00     0.071 C 
BRANCH  24  26
HETATM   26  O1  UNL     1      26.095   6.427  48.353  1.00  0.00    -0.337 OA
BRANCH  26  27
HETATM   27  P1  UNL     1      27.744   6.984  48.215  1.00  0.00     0.011 P 
HETATM   28  C1  UNL     1      28.938   5.563  48.281  1.00  0.00     0.072 C 
HETATM   29  H4  UNL     1      28.036   7.959  49.246  1.00  0.00     0.087 HD
ENDBRANCH  26  27
ENDBRANCH  24  26
ENDBRANCH  23  24
ENDBRANCH   1  23
TORSDOF 4
ENDMDL
MODEL 6
REMARK VINA RESULT:      -7.5      2.576      4.634
REMARK  4 active torsions:
REMARK  status: ('A' for Active; 'I' for Inactive)
REMARK    1  A    between atoms: P1_2  and  O1_3 
REMARK    2  A    between atoms: O1_3  and  C2_4 
REMARK    3  A    between atoms: C2_4  and  O2_6 
REMARK    4  A    between atoms: O2_6  and  C4_7 
ROOT
HETATM    1  C4  UNL     1      24.389   0.637  52.673  1.00  0.00     0.110 A 
HETATM    2  C5  UNL     1      23.437   1.483  52.101  1.00  0.00     0.072 A 
HETATM    3  C6  UNL     1      23.824   2.665  51.451  1.00  0.00     0.070 A 
HETATM    4  C7  UNL     1      25.165   2.978  51.386  1.00  0.00     0.029 A 
HETATM    5  C8  UNL     1      26.125   2.167  51.939  1.00  0.00     0.117 A 
HETATM    6  C9  UNL     1      25.704   1.019  52.565  1.00  0.00     0.136 A 
HETATM    7  O3  UNL     1      26.586   0.140  53.150  1.00  0.00    -0.344 OA
HETATM    8  C10 UNL     1      27.958   0.440  53.316  1.00  0.00     0.202 C 
HETATM    9  C11 UNL     1      28.185   1.926  53.131  1.00  0.00     0.202 C 
HETATM   10  O4  UNL     1      27.502   2.336  51.960  1.00  0.00    -0.345 OA
HETATM   11  C12 UNL     1      25.378   4.116  50.747  1.00  0.00     0.055 A 
HETATM   12  C13 UNL     1      24.043   4.619  50.340  1.00  0.00     0.272 A 
HETATM   13  C14 UNL     1      23.920   4.639  48.840  1.00  0.00     0.101 C 
HETATM   14  C15 UNL     1      22.814   5.457  48.323  1.00  0.00     0.020 C 
HETATM   15  C16 UNL     1      22.493   6.754  48.341  1.00  0.00     0.112 C 
HETATM   16  F1  UNL     1      21.332   7.092  47.714  1.00  0.00    -0.206 F 
HETATM   17  C17 UNL     1      23.195   7.912  48.938  1.00  0.00     0.039 C 
HETATM   18  C18 UNL     1      24.108   7.974  49.927  1.00  0.00     0.006 C 
HETATM   19  C19 UNL     1      24.740   6.899  50.776  1.00  0.00     0.301 C 
HETATM   20  N1  UNL     1      23.731   5.886  50.970  1.00  0.00     0.121 N 
HETATM   21  N2  UNL     1      23.162   3.597  50.856  1.00  0.00    -0.243 NA
HETATM   22  H22 UNL     1      23.600   5.722  51.976  1.00  0.00     0.320 HD
ENDROOT
BRANCH   1  23
HETATM   23  O2  UNL     1      23.768  -0.443  53.242  1.00  0.00    -0.318 OA
BRANCH  23  24
HETATM   24  C2  UNL     1      22.652  -0.504  54.056  1.00  0.00     0.266 C 
HETATM   25  C3  UNL     1      22.923  -1.346  55.316  1.00  0.00     0.071 C 
BRANCH  24  26
HETATM   26  O1  UNL     1      21.567  -1.162  53.430  1.00  0.00    -0.337 OA
BRANCH  26  27
HETATM   27  P1  UNL     1      20.168  -0.121  53.350  1.00  0.00     0.011 P 
HETATM   28  C1  UNL     1      18.600  -1.114  53.272  1.00  0.00     0.072 C 
HETATM   29  H4  UNL     1      20.271   0.779  52.220  1.00  0.00     0.087 HD
ENDBRANCH  26  27
ENDBRANCH  24  26
ENDBRANCH  23  24
ENDBRANCH   1  23
TORSDOF 4
ENDMDL
MODEL 7
REMARK VINA RESULT:      -7.2      2.624      3.362
REMARK  4 active torsions:
REMARK  status: ('A' for Active; 'I' for Inactive)
REMARK    1  A    between atoms: P1_2  and  O1_3 
REMARK    2  A    between atoms: O1_3  and  C2_4 
REMARK    3  A    between atoms: C2_4  and  O2_6 
REMARK    4  A    between atoms: O2_6  and  C4_7 
ROOT
HETATM    1  C4  UNL     1      24.498   0.816  53.026  1.00  0.00     0.110 A 
HETATM    2  C5  UNL     1      24.113   1.713  52.027  1.00  0.00     0.072 A 
HETATM    3  C6  UNL     1      22.757   1.934  51.743  1.00  0.00     0.070 A 
HETATM    4  C7  UNL     1      21.807   1.248  52.469  1.00  0.00     0.029 A 
HETATM    5  C8  UNL     1      22.153   0.358  53.456  1.00  0.00     0.117 A 
HETATM    6  C9  UNL     1      23.491   0.172  53.703  1.00  0.00     0.136 A 
HETATM    7  O3  UNL     1      23.942  -0.696  54.671  1.00  0.00    -0.344 OA
HETATM    8  C10 UNL     1      23.081  -1.592  55.346  1.00  0.00     0.202 C 
HETATM    9  C11 UNL     1      21.772  -1.710  54.596  1.00  0.00     0.202 C 
HETATM   10  O4  UNL     1      21.328  -0.404  54.270  1.00  0.00    -0.345 OA
HETATM   11  C12 UNL     1      20.577   1.556  52.092  1.00  0.00     0.055 A 
HETATM   12  C13 UNL     1      20.715   2.552  51.002  1.00  0.00     0.272 A 
HETATM   13  C14 UNL     1      20.142   3.879  51.422  1.00  0.00     0.101 C 
HETATM   14  C15 UNL     1      19.880   4.815  50.319  1.00  0.00     0.020 C 
HETATM   15  C16 UNL     1      19.077   4.835  49.251  1.00  0.00     0.112 C 
HETATM   16  F1  UNL     1      19.159   5.942  48.462  1.00  0.00    -0.206 F 
HETATM   17  C17 UNL     1      18.094   3.840  48.767  1.00  0.00     0.039 C 
HETATM   18  C18 UNL     1      17.988   2.519  49.003  1.00  0.00     0.006 C 
HETATM   19  C19 UNL     1      18.824   1.580  49.839  1.00  0.00     0.301 C 
HETATM   20  N1  UNL     1      20.184   2.055  49.749  1.00  0.00     0.121 N 
HETATM   21  N2  UNL     1      22.149   2.689  50.894  1.00  0.00    -0.243 NA
HETATM   22  H22 UNL     1      20.791   1.294  49.421  1.00  0.00     0.320 HD
ENDROOT
BRANCH   1  23
HETATM   23  O2  UNL     1      25.864   0.776  53.112  1.00  0.00    -0.318 OA
BRANCH  23  24
HETATM   24  C2  UNL     1      26.731   1.508  53.902  1.00  0.00     0.266 C 
HETATM   25  C3  UNL     1      27.818   2.193  53.055  1.00  0.00     0.071 C 
BRANCH  24  26
HETATM   26  O1  UNL     1      27.458   0.692  54.800  1.00  0.00    -0.337 OA
BRANCH  26  27
HETATM   27  P1  UNL     1      29.056   0.356  54.182  1.00  0.00     0.011 P 
HETATM   28  C1  UNL     1      29.133  -1.332  53.411  1.00  0.00     0.072 C 
HETATM   29  H4  UNL     1      30.043   0.494  55.232  1.00  0.00     0.087 HD
ENDBRANCH  26  27
ENDBRANCH  24  26
ENDBRANCH  23  24
ENDBRANCH   1  23
TORSDOF 4
ENDMDL
MODEL 8
REMARK VINA RESULT:      -7.1      5.079      8.528
REMARK  4 active torsions:
REMARK  status: ('A' for Active; 'I' for Inactive)
REMARK    1  A    between atoms: P1_2  and  O1_3 
REMARK    2  A    between atoms: O1_3  and  C2_4 
REMARK    3  A    between atoms: C2_4  and  O2_6 
REMARK    4  A    between atoms: O2_6  and  C4_7 
ROOT
HETATM    1  C4  UNL     1      22.394   2.995  47.888  1.00  0.00     0.110 A 
HETATM    2  C5  UNL     1      21.807   1.844  48.416  1.00  0.00     0.072 A 
HETATM    3  C6  UNL     1      21.862   1.576  49.792  1.00  0.00     0.070 A 
HETATM    4  C7  UNL     1      22.507   2.471  50.617  1.00  0.00     0.029 A 
HETATM    5  C8  UNL     1      23.096   3.612  50.128  1.00  0.00     0.117 A 
HETATM    6  C9  UNL     1      23.018   3.837  48.775  1.00  0.00     0.136 A 
HETATM    7  O3  UNL     1      23.574   4.950  48.187  1.00  0.00    -0.344 OA
HETATM    8  C10 UNL     1      24.419   5.837  48.891  1.00  0.00     0.202 C 
HETATM    9  C11 UNL     1      24.896   5.185  50.172  1.00  0.00     0.202 C 
HETATM   10  O4  UNL     1      23.777   4.605  50.817  1.00  0.00    -0.345 OA
HETATM   11  C12 UNL     1      22.480   2.089  51.883  1.00  0.00     0.055 A 
HETATM   12  C13 UNL     1      21.738   0.804  51.911  1.00  0.00     0.272 A 
HETATM   13  C14 UNL     1      20.454   0.953  52.682  1.00  0.00     0.101 C 
HETATM   14  C15 UNL     1      19.833  -0.314  53.096  1.00  0.00     0.020 C 
HETATM   15  C16 UNL     1      20.170  -1.327  53.901  1.00  0.00     0.112 C 
HETATM   16  F1  UNL     1      19.264  -2.339  53.999  1.00  0.00    -0.206 F 
HETATM   17  C17 UNL     1      21.384  -1.544  54.720  1.00  0.00     0.039 C 
HETATM   18  C18 UNL     1      22.621  -1.024  54.615  1.00  0.00     0.006 C 
HETATM   19  C19 UNL     1      23.216  -0.042  53.635  1.00  0.00     0.301 C 
HETATM   20  N1  UNL     1      22.572  -0.288  52.368  1.00  0.00     0.121 N 
HETATM   21  N2  UNL     1      21.412   0.610  50.518  1.00  0.00    -0.243 NA
HETATM   22  H22 UNL     1      23.286  -0.470  51.651  1.00  0.00     0.320 HD
ENDROOT
BRANCH   1  23
HETATM   23  O2  UNL     1      22.206   3.031  46.531  1.00  0.00    -0.318 OA
BRANCH  23  24
HETATM   24  C2  UNL     1      21.418   3.865  45.761  1.00  0.00     0.266 C 
HETATM   25  C3  UNL     1      19.933   3.751  46.150  1.00  0.00     0.071 C 
BRANCH  24  26
HETATM   26  O1  UNL     1      21.442   3.510  44.391  1.00  0.00    -0.337 OA
BRANCH  26  27
HETATM   27  P1  UNL     1      20.533   4.653  43.435  1.00  0.00     0.011 P 
HETATM   28  C1  UNL     1      20.089   3.936  41.780  1.00  0.00     0.072 C 
HETATM   29  H4  UNL     1      21.272   5.889  43.286  1.00  0.00     0.087 HD
ENDBRANCH  26  27
ENDBRANCH  24  26
ENDBRANCH  23  24
ENDBRANCH   1  23
TORSDOF 4
ENDMDL
MODEL 9
REMARK VINA RESULT:      -7.0      6.464      8.871
REMARK  4 active torsions:
REMARK  status: ('A' for Active; 'I' for Inactive)
REMARK    1  A    between atoms: P1_2  and  O1_3 
REMARK    2  A    between atoms: O1_3  and  C2_4 
REMARK    3  A    between atoms: C2_4  and  O2_6 
REMARK    4  A    between atoms: O2_6  and  C4_7 
ROOT
HETATM    1  C4  UNL     1      26.459   5.843  48.908  1.00  0.00     0.110 A 
HETATM    2  C5  UNL     1      27.556   5.023  48.635  1.00  0.00     0.072 A 
HETATM    3  C6  UNL     1      28.813   5.576  48.353  1.00  0.00     0.070 A 
HETATM    4  C7  UNL     1      28.950   6.948  48.350  1.00  0.00     0.029 A 
HETATM    5  C8  UNL     1      27.891   7.781  48.614  1.00  0.00     0.117 A 
HETATM    6  C9  UNL     1      26.677   7.199  48.886  1.00  0.00     0.136 A 
HETATM    7  O3  UNL     1      25.555   7.945  49.164  1.00  0.00    -0.344 OA
HETATM    8  C10 UNL     1      25.520   9.350  49.006  1.00  0.00     0.202 C 
HETATM    9  C11 UNL     1      26.692   9.801  48.161  1.00  0.00     0.202 C 
HETATM   10  O4  UNL     1      27.861   9.167  48.650  1.00  0.00    -0.345 OA
HETATM   11  C12 UNL     1      30.187   7.323  48.068  1.00  0.00     0.055 A 
HETATM   12  C13 UNL     1      30.961   6.075  47.862  1.00  0.00     0.272 A 
HETATM   13  C14 UNL     1      32.019   5.928  48.922  1.00  0.00     0.101 C 
HETATM   14  C15 UNL     1      33.074   4.952  48.610  1.00  0.00     0.020 C 
HETATM   15  C16 UNL     1      34.026   4.837  47.680  1.00  0.00     0.112 C 
HETATM   16  F1  UNL     1      34.815   3.731  47.766  1.00  0.00    -0.206 F 
HETATM   17  C17 UNL     1      34.377   5.722  46.546  1.00  0.00     0.039 C 
HETATM   18  C18 UNL     1      33.651   6.652  45.897  1.00  0.00     0.006 C 
HETATM   19  C19 UNL     1      32.231   7.126  46.086  1.00  0.00     0.301 C 
HETATM   20  N1  UNL     1      31.470   5.976  46.509  1.00  0.00     0.121 N 
HETATM   21  N2  UNL     1      29.959   5.056  48.074  1.00  0.00    -0.243 NA
HETATM   22  H22 UNL     1      30.673   5.840  45.874  1.00  0.00     0.320 HD
ENDROOT
BRANCH   1  23
HETATM   23  O2  UNL     1      25.353   5.073  49.151  1.00  0.00    -0.318 OA
BRANCH  23  24
HETATM   24  C2  UNL     1      25.254   3.751  49.544  1.00  0.00     0.266 C 
HETATM   25  C3  UNL     1      23.877   3.162  49.188  1.00  0.00     0.071 C 
BRANCH  24  26
HETATM   26  O1  UNL     1      25.338   3.602  50.949  1.00  0.00    -0.337 OA
BRANCH  26  27
HETATM   27  P1  UNL     1      26.421   2.300  51.374  1.00  0.00     0.011 P 
HETATM   28  C1  UNL     1      25.514   0.934  52.247  1.00  0.00     0.072 C 
HETATM   29  H4  UNL     1      27.516   2.797  52.181  1.00  0.00     0.087 HD
ENDBRANCH  26  27
ENDBRANCH  24  26
ENDBRANCH  23  24
ENDBRANCH   1  23
TORSDOF 4
ENDMDL
