MODEL 1
REMARK VINA RESULT:      -9.0      0.000      0.000
REMARK  1 active torsions:
REMARK  status: ('A' for Active; 'I' for Inactive)
REMARK    1  A    between atoms: S1_2  and  C2_3 
ROOT
HETATM    1  C2  UNL     1      18.741  -0.341  51.962  1.00  0.00     0.155 C 
HETATM    2  F1  UNL     1      18.382  -0.154  50.687  1.00  0.00    -0.198 F 
HETATM    3  C3  UNL     1      19.902   0.155  52.372  1.00  0.00    -0.033 C 
HETATM    4  C4  UNL     1      20.223  -0.103  53.816  1.00  0.00     0.064 C 
HETATM    5  C5  UNL     1      21.347  -1.107  53.875  1.00  0.00     0.181 C 
HETATM    6  O1  UNL     1      22.553  -0.388  53.890  1.00  0.00    -0.337 OA
HETATM    7  C6  UNL     1      23.362   0.361  53.064  1.00  0.00     0.150 C 
HETATM    8  N1  UNL     1      24.405   0.017  53.736  1.00  0.00    -0.224 NA
HETATM    9  C7  UNL     1      25.821   0.266  53.697  1.00  0.00     0.108 A 
HETATM   10  C8  UNL     1      26.364  -0.210  54.876  1.00  0.00     0.062 A 
HETATM   11  C9  UNL     1      25.428  -0.822  55.837  1.00  0.00     0.073 C 
HETATM   12  N2  UNL     1      27.695  -0.095  55.085  1.00  0.00    -0.244 NA
HETATM   13  C10 UNL     1      28.538   0.466  54.197  1.00  0.00     0.233 A 
HETATM   14  N3  UNL     1      28.019   0.941  53.028  1.00  0.00    -0.244 NA
HETATM   15  C11 UNL     1      26.693   0.839  52.793  1.00  0.00     0.070 A 
HETATM   16  C12 UNL     1      26.435   1.444  51.441  1.00  0.00     0.090 C 
HETATM   17  C13 UNL     1      25.378   2.483  51.562  1.00  0.00    -0.000 C 
HETATM   18  C14 UNL     1      24.075   2.311  51.735  1.00  0.00     0.020 C 
HETATM   19 CL1  UNL     1      23.368   3.938  51.800  1.00  0.00    -0.088 Cl
HETATM   20  C15 UNL     1      23.079   1.211  51.880  1.00  0.00     0.107 C 
HETATM   21  C16 UNL     1      21.697   1.796  51.915  1.00  0.00     0.023 C 
HETATM   22  C17 UNL     1      20.668   0.872  51.321  1.00  0.00     0.039 C 
ENDROOT
BRANCH   1  23
HETATM   23  S1  UNL     1      17.704  -1.230  53.104  1.00  0.00    -0.104 SA
HETATM   24  C1  UNL     1      16.068  -1.516  52.355  1.00  0.00     0.098 C 
ENDBRANCH   1  23
TORSDOF 1
ENDMDL
MODEL 2
REMARK VINA RESULT:      -8.7      4.253      6.762
REMARK  1 active torsions:
REMARK  status: ('A' for Active; 'I' for Inactive)
REMARK    1  A    between atoms: S1_2  and  C2_3 
ROOT
HETATM    1  C2  UNL     1      26.193   5.340  48.672  1.00  0.00     0.155 C 
HETATM    2  F1  UNL     1      25.418   6.359  48.286  1.00  0.00    -0.198 F 
HETATM    3  C3  UNL     1      25.609   4.243  49.143  1.00  0.00    -0.033 C 
HETATM    4  C4  UNL     1      26.556   3.152  49.552  1.00  0.00     0.064 C 
HETATM    5  C5  UNL     1      26.534   3.051  51.056  1.00  0.00     0.181 C 
HETATM    6  O1  UNL     1      25.544   2.117  51.401  1.00  0.00    -0.337 OA
HETATM    7  C6  UNL     1      24.174   1.977  51.443  1.00  0.00     0.150 C 
HETATM    8  N1  UNL     1      24.267   1.148  52.424  1.00  0.00    -0.224 NA
HETATM    9  C7  UNL     1      23.376   0.378  53.250  1.00  0.00     0.108 A 
HETATM   10  C8  UNL     1      24.141  -0.520  53.970  1.00  0.00     0.062 A 
HETATM   11  C9  UNL     1      25.597  -0.485  53.740  1.00  0.00     0.073 C 
HETATM   12  N2  UNL     1      23.532  -1.368  54.830  1.00  0.00    -0.244 NA
HETATM   13  C10 UNL     1      22.200  -1.388  55.030  1.00  0.00     0.233 A 
HETATM   14  N3  UNL     1      21.429  -0.508  54.327  1.00  0.00    -0.244 NA
HETATM   15  C11 UNL     1      22.012   0.350  53.462  1.00  0.00     0.070 A 
HETATM   16  C12 UNL     1      20.914   1.177  52.852  1.00  0.00     0.090 C 
HETATM   17  C13 UNL     1      21.006   1.096  51.370  1.00  0.00    -0.000 C 
HETATM   18  C14 UNL     1      21.889   1.677  50.570  1.00  0.00     0.020 C 
HETATM   19 CL1  UNL     1      21.455   1.188  48.920  1.00  0.00    -0.088 Cl
HETATM   20  C15 UNL     1      23.077   2.575  50.643  1.00  0.00     0.107 C 
HETATM   21  C16 UNL     1      23.514   2.932  49.252  1.00  0.00     0.023 C 
HETATM   22  C17 UNL     1      24.126   4.305  49.177  1.00  0.00     0.039 C 
ENDROOT
BRANCH   1  23
HETATM   23  S1  UNL     1      27.968   5.423  48.566  1.00  0.00    -0.104 SA
HETATM   24  C1  UNL     1      28.462   6.965  47.732  1.00  0.00     0.098 C 
ENDBRANCH   1  23
TORSDOF 1
ENDMDL
MODEL 3
REMARK VINA RESULT:      -8.4      4.212      7.470
REMARK  1 active torsions:
REMARK  status: ('A' for Active; 'I' for Inactive)
REMARK    1  A    between atoms: S1_2  and  C2_3 
ROOT
HETATM    1  C2  UNL     1      27.247  -0.300  53.354  1.00  0.00     0.155 C 
HETATM    2  F1  UNL     1      27.414  -1.608  53.133  1.00  0.00    -0.198 F 
HETATM    3  C3  UNL     1      26.010   0.176  53.434  1.00  0.00    -0.033 C 
HETATM    4  C4  UNL     1      25.919   1.654  53.683  1.00  0.00     0.064 C 
HETATM    5  C5  UNL     1      25.418   2.312  52.422  1.00  0.00     0.181 C 
HETATM    6  O1  UNL     1      24.017   2.363  52.501  1.00  0.00    -0.337 OA
HETATM    7  C6  UNL     1      22.912   1.545  52.426  1.00  0.00     0.150 C 
HETATM    8  N1  UNL     1      22.194   2.518  51.984  1.00  0.00    -0.224 NA
HETATM    9  C7  UNL     1      20.832   2.729  51.572  1.00  0.00     0.108 A 
HETATM   10  C8  UNL     1      20.639   4.092  51.442  1.00  0.00     0.062 A 
HETATM   11  C9  UNL     1      21.796   4.956  51.737  1.00  0.00     0.073 C 
HETATM   12  N2  UNL     1      19.427   4.555  51.060  1.00  0.00    -0.244 NA
HETATM   13  C10 UNL     1      18.379   3.752  50.793  1.00  0.00     0.233 A 
HETATM   14  N3  UNL     1      18.552   2.404  50.916  1.00  0.00    -0.244 NA
HETATM   15  C11 UNL     1      19.752   1.915  51.296  1.00  0.00     0.070 A 
HETATM   16  C12 UNL     1      19.626   0.417  51.338  1.00  0.00     0.090 C 
HETATM   17  C13 UNL     1      20.059  -0.074  52.674  1.00  0.00    -0.000 C 
HETATM   18  C14 UNL     1      21.290  -0.163  53.156  1.00  0.00     0.020 C 
HETATM   19 CL1  UNL     1      21.132  -0.822  54.795  1.00  0.00    -0.088 Cl
HETATM   20  C15 UNL     1      22.698   0.111  52.746  1.00  0.00     0.107 C 
HETATM   21  C16 UNL     1      23.629  -0.380  53.816  1.00  0.00     0.023 C 
HETATM   22  C17 UNL     1      24.947  -0.846  53.259  1.00  0.00     0.039 C 
ENDROOT
BRANCH   1  23
HETATM   23  S1  UNL     1      28.634   0.800  53.542  1.00  0.00    -0.104 SA
HETATM   24  C1  UNL     1      30.178  -0.163  53.618  1.00  0.00     0.098 C 
ENDBRANCH   1  23
TORSDOF 1
ENDMDL
MODEL 4
REMARK VINA RESULT:      -8.1      3.928      7.415
REMARK  1 active torsions:
REMARK  status: ('A' for Active; 'I' for Inactive)
REMARK    1  A    between atoms: S1_2  and  C2_3 
ROOT
HETATM    1  C2  UNL     1      25.332   1.133  53.557  1.00  0.00     0.155 C 
HETATM    2  F1  UNL     1      25.810   2.348  53.265  1.00  0.00    -0.198 F 
HETATM    3  C3  UNL     1      24.207   0.738  52.973  1.00  0.00    -0.033 C 
HETATM    4  C4  UNL     1      23.746  -0.637  53.360  1.00  0.00     0.064 C 
HETATM    5  C5  UNL     1      22.512  -0.495  54.215  1.00  0.00     0.181 C 
HETATM    6  O1  UNL     1      21.400  -0.526  53.358  1.00  0.00    -0.337 OA
HETATM    7  C6  UNL     1      20.751   0.247  52.421  1.00  0.00     0.150 C 
HETATM    8  N1  UNL     1      19.625  -0.307  52.711  1.00  0.00    -0.224 NA
HETATM    9  C7  UNL     1      18.255  -0.210  52.286  1.00  0.00     0.108 A 
HETATM   10  C8  UNL     1      17.570  -1.281  52.827  1.00  0.00     0.062 A 
HETATM   11  C9  UNL     1      18.350  -2.214  53.661  1.00  0.00     0.073 C 
HETATM   12  N2  UNL     1      16.249  -1.418  52.573  1.00  0.00    -0.244 NA
HETATM   13  C10 UNL     1      15.549  -0.557  51.810  1.00  0.00     0.233 A 
HETATM   14  N3  UNL     1      16.209   0.506  51.266  1.00  0.00    -0.244 NA
HETATM   15  C11 UNL     1      17.529   0.667  51.504  1.00  0.00     0.070 A 
HETATM   16  C12 UNL     1      17.960   1.912  50.779  1.00  0.00     0.090 C 
HETATM   17  C13 UNL     1      19.118   1.591  49.901  1.00  0.00    -0.000 C 
HETATM   18  C14 UNL     1      20.375   1.359  50.253  1.00  0.00     0.020 C 
HETATM   19 CL1  UNL     1      21.257   1.041  48.747  1.00  0.00    -0.088 Cl
HETATM   20  C15 UNL     1      21.222   1.292  51.478  1.00  0.00     0.107 C 
HETATM   21  C16 UNL     1      22.656   1.095  51.078  1.00  0.00     0.023 C 
HETATM   22  C17 UNL     1      23.615   1.735  52.046  1.00  0.00     0.039 C 
ENDROOT
BRANCH   1  23
HETATM   23  S1  UNL     1      26.166   0.050  54.697  1.00  0.00    -0.104 SA
HETATM   24  C1  UNL     1      27.968   0.189  54.472  1.00  0.00     0.098 C 
ENDBRANCH   1  23
TORSDOF 1
ENDMDL
MODEL 5
REMARK VINA RESULT:      -7.9      4.361      7.098
REMARK  1 active torsions:
REMARK  status: ('A' for Active; 'I' for Inactive)
REMARK    1  A    between atoms: S1_2  and  C2_3 
ROOT
HETATM    1  C2  UNL     1      26.614   5.006  48.982  1.00  0.00     0.155 C 
HETATM    2  F1  UNL     1      27.723   4.454  48.477  1.00  0.00    -0.198 F 
HETATM    3  C3  UNL     1      25.993   4.385  49.978  1.00  0.00    -0.033 C 
HETATM    4  C4  UNL     1      24.759   5.076  50.479  1.00  0.00     0.064 C 
HETATM    5  C5  UNL     1      23.561   4.261  50.060  1.00  0.00     0.181 C 
HETATM    6  O1  UNL     1      23.290   3.349  51.093  1.00  0.00    -0.337 OA
HETATM    7  C6  UNL     1      23.786   2.195  51.658  1.00  0.00     0.150 C 
HETATM    8  N1  UNL     1      22.603   1.836  52.019  1.00  0.00    -0.224 NA
HETATM    9  C7  UNL     1      21.995   0.731  52.709  1.00  0.00     0.108 A 
HETATM   10  C8  UNL     1      20.689   1.082  52.996  1.00  0.00     0.062 A 
HETATM   11  C9  UNL     1      20.251   2.420  52.558  1.00  0.00     0.073 C 
HETATM   12  N2  UNL     1      19.896   0.203  53.649  1.00  0.00    -0.244 NA
HETATM   13  C10 UNL     1      20.310  -1.017  54.043  1.00  0.00     0.233 A 
HETATM   14  N3  UNL     1      21.596  -1.380  53.768  1.00  0.00    -0.244 NA
HETATM   15  C11 UNL     1      22.410  -0.521  53.116  1.00  0.00     0.070 A 
HETATM   16  C12 UNL     1      23.742  -1.202  52.965  1.00  0.00     0.090 C 
HETATM   17  C13 UNL     1      24.808  -0.322  53.514  1.00  0.00    -0.000 C 
HETATM   18  C14 UNL     1      25.312   0.784  52.983  1.00  0.00     0.020 C 
HETATM   19 CL1  UNL     1      26.545   1.359  54.123  1.00  0.00    -0.088 Cl
HETATM   20  C15 UNL     1      25.159   1.641  51.773  1.00  0.00     0.107 C 
HETATM   21  C16 UNL     1      26.208   2.715  51.791  1.00  0.00     0.023 C 
HETATM   22  C17 UNL     1      26.639   3.118  50.407  1.00  0.00     0.039 C 
ENDROOT
BRANCH   1  23
HETATM   23  S1  UNL     1      25.964   6.539  48.352  1.00  0.00    -0.104 SA
HETATM   24  C1  UNL     1      26.809   7.941  49.151  1.00  0.00     0.098 C 
ENDBRANCH   1  23
TORSDOF 1
ENDMDL
MODEL 6
REMARK VINA RESULT:      -7.7      5.457      8.570
REMARK  1 active torsions:
REMARK  status: ('A' for Active; 'I' for Inactive)
REMARK    1  A    between atoms: S1_2  and  C2_3 
ROOT
HETATM    1  C2  UNL     1      27.462   5.311  48.573  1.00  0.00     0.155 C 
HETATM    2  F1  UNL     1      28.365   4.377  48.255  1.00  0.00    -0.198 F 
HETATM    3  C3  UNL     1      26.399   4.948  49.283  1.00  0.00    -0.033 C 
HETATM    4  C4  UNL     1      25.440   6.060  49.593  1.00  0.00     0.064 C 
HETATM    5  C5  UNL     1      24.188   5.840  48.780  1.00  0.00     0.181 C 
HETATM    6  O1  UNL     1      23.311   5.067  49.558  1.00  0.00    -0.337 OA
HETATM    7  C6  UNL     1      23.147   3.782  50.026  1.00  0.00     0.150 C 
HETATM    8  N1  UNL     1      21.868   3.927  50.039  1.00  0.00    -0.224 NA
HETATM    9  C7  UNL     1      20.715   3.138  50.379  1.00  0.00     0.108 A 
HETATM   10  C8  UNL     1      19.621   3.983  50.411  1.00  0.00     0.062 A 
HETATM   11  C9  UNL     1      19.872   5.404  50.109  1.00  0.00     0.073 C 
HETATM   12  N2  UNL     1      18.403   3.477  50.709  1.00  0.00    -0.244 NA
HETATM   13  C10 UNL     1      18.188   2.176  50.983  1.00  0.00     0.233 A 
HETATM   14  N3  UNL     1      19.256   1.327  50.956  1.00  0.00    -0.244 NA
HETATM   15  C11 UNL     1      20.485   1.806  50.661  1.00  0.00     0.070 A 
HETATM   16  C12 UNL     1      21.437   0.642  50.711  1.00  0.00     0.090 C 
HETATM   17  C13 UNL     1      22.562   0.970  51.628  1.00  0.00    -0.000 C 
HETATM   18  C14 UNL     1      23.578   1.794  51.417  1.00  0.00     0.020 C 
HETATM   19 CL1  UNL     1      24.568   1.741  52.889  1.00  0.00    -0.088 Cl
HETATM   20  C15 UNL     1      24.109   2.703  50.362  1.00  0.00     0.107 C 
HETATM   21  C16 UNL     1      25.441   3.242  50.797  1.00  0.00     0.023 C 
HETATM   22  C17 UNL     1      26.360   3.506  49.635  1.00  0.00     0.039 C 
ENDROOT
BRANCH   1  23
HETATM   23  S1  UNL     1      27.655   7.008  48.071  1.00  0.00    -0.104 SA
HETATM   24  C1  UNL     1      29.378   7.535  48.336  1.00  0.00     0.098 C 
ENDBRANCH   1  23
TORSDOF 1
ENDMDL
MODEL 7
REMARK VINA RESULT:      -7.4      4.771      6.705
REMARK  1 active torsions:
REMARK  status: ('A' for Active; 'I' for Inactive)
REMARK    1  A    between atoms: S1_2  and  C2_3 
ROOT
HETATM    1  C2  UNL     1      23.664   7.403  48.043  1.00  0.00     0.155 C 
HETATM    2  F1  UNL     1      22.416   7.863  47.907  1.00  0.00    -0.198 F 
HETATM    3  C3  UNL     1      23.837   6.148  48.442  1.00  0.00    -0.033 C 
HETATM    4  C4  UNL     1      25.270   5.719  48.568  1.00  0.00     0.064 C 
HETATM    5  C5  UNL     1      25.587   5.566  50.034  1.00  0.00     0.181 C 
HETATM    6  O1  UNL     1      25.314   4.235  50.388  1.00  0.00    -0.337 OA
HETATM    7  C6  UNL     1      24.253   3.382  50.602  1.00  0.00     0.150 C 
HETATM    8  N1  UNL     1      24.947   2.696  51.443  1.00  0.00    -0.224 NA
HETATM    9  C7  UNL     1      24.760   1.539  52.277  1.00  0.00     0.108 A 
HETATM   10  C8  UNL     1      26.000   1.164  52.758  1.00  0.00     0.062 A 
HETATM   11  C9  UNL     1      27.151   1.981  52.334  1.00  0.00     0.073 C 
HETATM   12  N2  UNL     1      26.095   0.090  53.576  1.00  0.00    -0.244 NA
HETATM   13  C10 UNL     1      25.034  -0.647  53.955  1.00  0.00     0.233 A 
HETATM   14  N3  UNL     1      23.802  -0.291  53.489  1.00  0.00    -0.244 NA
HETATM   15  C11 UNL     1      23.679   0.777  52.671  1.00  0.00     0.070 A 
HETATM   16  C12 UNL     1      22.219   0.910  52.335  1.00  0.00     0.090 C 
HETATM   17  C13 UNL     1      22.058   0.946  50.857  1.00  0.00    -0.000 C 
HETATM   18  C14 UNL     1      22.341   1.938  50.025  1.00  0.00     0.020 C 
HETATM   19 CL1  UNL     1      21.923   1.354  48.402  1.00  0.00    -0.088 Cl
HETATM   20  C15 UNL     1      22.877   3.329  50.049  1.00  0.00     0.107 C 
HETATM   21  C16 UNL     1      22.794   3.916  48.670  1.00  0.00     0.023 C 
HETATM   22  C17 UNL     1      22.576   5.405  48.692  1.00  0.00     0.039 C 
ENDROOT
BRANCH   1  23
HETATM   23  S1  UNL     1      25.079   8.427  47.703  1.00  0.00    -0.104 SA
HETATM   24  C1  UNL     1      25.582   9.305  49.217  1.00  0.00     0.098 C 
ENDBRANCH   1  23
TORSDOF 1
ENDMDL
MODEL 8
REMARK VINA RESULT:      -7.4      4.779      7.175
REMARK  1 active torsions:
REMARK  status: ('A' for Active; 'I' for Inactive)
REMARK    1  A    between atoms: S1_2  and  C2_3 
ROOT
HETATM    1  C2  UNL     1      25.434  -0.105  53.717  1.00  0.00     0.155 C 
HETATM    2  F1  UNL     1      24.687  -1.215  53.717  1.00  0.00    -0.198 F 
HETATM    3  C3  UNL     1      24.939   0.992  53.157  1.00  0.00    -0.033 C 
HETATM    4  C4  UNL     1      25.846   2.187  53.203  1.00  0.00     0.064 C 
HETATM    5  C5  UNL     1      26.342   2.455  51.804  1.00  0.00     0.181 C 
HETATM    6  O1  UNL     1      25.441   3.349  51.203  1.00  0.00    -0.337 OA
HETATM    7  C6  UNL     1      24.166   3.394  50.683  1.00  0.00     0.150 C 
HETATM    8  N1  UNL     1      24.508   4.333  49.870  1.00  0.00    -0.224 NA
HETATM    9  C7  UNL     1      23.885   5.124  48.843  1.00  0.00     0.108 A 
HETATM   10  C8  UNL     1      24.753   6.151  48.519  1.00  0.00     0.062 A 
HETATM   11  C9  UNL     1      26.031   6.194  49.253  1.00  0.00     0.073 C 
HETATM   12  N2  UNL     1      24.396   7.044  47.569  1.00  0.00    -0.244 NA
HETATM   13  C10 UNL     1      23.225   6.991  46.906  1.00  0.00     0.233 A 
HETATM   14  N3  UNL     1      22.356   5.985  47.213  1.00  0.00    -0.244 NA
HETATM   15  C11 UNL     1      22.687   5.079  48.159  1.00  0.00     0.070 A 
HETATM   16  C12 UNL     1      21.540   4.112  48.266  1.00  0.00     0.090 C 
HETATM   17  C13 UNL     1      21.098   4.032  49.684  1.00  0.00    -0.000 C 
HETATM   18  C14 UNL     1      21.701   3.429  50.698  1.00  0.00     0.020 C 
HETATM   19 CL1  UNL     1      20.668   3.698  52.116  1.00  0.00    -0.088 Cl
HETATM   20  C15 UNL     1      22.929   2.633  50.985  1.00  0.00     0.107 C 
HETATM   21  C16 UNL     1      22.887   2.154  52.408  1.00  0.00     0.023 C 
HETATM   22  C17 UNL     1      23.577   0.829  52.587  1.00  0.00     0.039 C 
ENDROOT
BRANCH   1  23
HETATM   23  S1  UNL     1      27.058  -0.073  54.446  1.00  0.00    -0.104 SA
HETATM   24  C1  UNL     1      28.278  -0.723  53.259  1.00  0.00     0.098 C 
ENDBRANCH   1  23
TORSDOF 1
ENDMDL
MODEL 9
REMARK VINA RESULT:      -7.1      4.736      6.864
REMARK  1 active torsions:
REMARK  status: ('A' for Active; 'I' for Inactive)
REMARK    1  A    between atoms: S1_2  and  C2_3 
ROOT
HETATM    1  C2  UNL     1      23.902  -0.209  53.375  1.00  0.00     0.155 C 
HETATM    2  F1  UNL     1      22.971  -1.157  53.225  1.00  0.00    -0.198 F 
HETATM    3  C3  UNL     1      23.685   0.983  52.832  1.00  0.00    -0.033 C 
HETATM    4  C4  UNL     1      24.783   1.984  53.051  1.00  0.00     0.064 C 
HETATM    5  C5  UNL     1      25.482   2.209  51.734  1.00  0.00     0.181 C 
HETATM    6  O1  UNL     1      24.837   3.279  51.092  1.00  0.00    -0.337 OA
HETATM    7  C6  UNL     1      23.663   3.584  50.439  1.00  0.00     0.150 C 
HETATM    8  N1  UNL     1      24.264   4.473  49.727  1.00  0.00    -0.224 NA
HETATM    9  C7  UNL     1      23.923   5.407  48.689  1.00  0.00     0.108 A 
HETATM   10  C8  UNL     1      24.995   6.264  48.526  1.00  0.00     0.062 A 
HETATM   11  C9  UNL     1      26.163   6.038  49.397  1.00  0.00     0.073 C 
HETATM   12  N2  UNL     1      24.923   7.245  47.598  1.00  0.00    -0.244 NA
HETATM   13  C10 UNL     1      23.849   7.440  46.809  1.00  0.00     0.233 A 
HETATM   14  N3  UNL     1      22.781   6.603  46.956  1.00  0.00    -0.244 NA
HETATM   15  C11 UNL     1      22.827   5.615  47.876  1.00  0.00     0.070 A 
HETATM   16  C12 UNL     1      21.519   4.877  47.797  1.00  0.00     0.090 C 
HETATM   17  C13 UNL     1      20.903   4.825  49.150  1.00  0.00    -0.000 C 
HETATM   18  C14 UNL     1      21.262   4.081  50.186  1.00  0.00     0.020 C 
HETATM   19 CL1  UNL     1      20.133   4.482  51.495  1.00  0.00    -0.088 Cl
HETATM   20  C15 UNL     1      22.280   3.057  50.557  1.00  0.00     0.107 C 
HETATM   21  C16 UNL     1      21.983   2.538  51.934  1.00  0.00     0.023 C 
HETATM   22  C17 UNL     1      22.395   1.101  52.108  1.00  0.00     0.039 C 
ENDROOT
BRANCH   1  23
HETATM   23  S1  UNL     1      25.406  -0.511  54.279  1.00  0.00    -0.104 SA
HETATM   24  C1  UNL     1      26.734  -0.979  53.123  1.00  0.00     0.098 C 
ENDBRANCH   1  23
TORSDOF 1
ENDMDL
