MODEL 1
REMARK VINA RESULT:      -7.4      0.000      0.000
REMARK  5 active torsions:
REMARK  status: ('A' for Active; 'I' for Inactive)
REMARK    1  A    between atoms: C2_2  and  C3_3 
REMARK    2  A    between atoms: C3_3  and  N1_8 
REMARK    3  A    between atoms: C4_4  and  C5_5 
REMARK    4  A    between atoms: N1_8  and  C7_9 
REMARK    5  A    between atoms: C12_16  and  N4_17 
REMARK       I    between atoms: N4_17  and  C13_18 
REMARK       I    between atoms: C13_18  and  N5_20 
ROOT
HETATM    1  C7  UNL     1      22.410   0.631  52.282  1.00  0.00     0.142 A 
HETATM    2  N2  UNL     1      21.098   0.765  52.416  1.00  0.00    -0.224 NA
HETATM    3  C8  UNL     1      20.463   0.292  53.527  1.00  0.00     0.236 A 
HETATM    4  N3  UNL     1      21.101  -0.330  54.549  1.00  0.00    -0.241 NA
HETATM    5  C9  UNL     1      22.439  -0.474  54.431  1.00  0.00     0.072 A 
HETATM    6  C10 UNL     1      23.120  -1.103  55.452  1.00  0.00     0.035 A 
HETATM    7  C11 UNL     1      24.497  -1.250  55.327  1.00  0.00     0.032 A 
HETATM    8  C12 UNL     1      25.151  -0.774  54.203  1.00  0.00     0.037 A 
HETATM    9  C15 UNL     1      24.438  -0.143  53.186  1.00  0.00     0.047 A 
HETATM   10  C16 UNL     1      23.078   0.004  53.308  1.00  0.00     0.041 A 
ENDROOT
BRANCH   1  11
HETATM   11  N1  UNL     1      23.019   1.143  51.100  1.00  0.00    -0.340 N 
HETATM   12  H7  UNL     1      23.675   0.630  50.440  1.00  0.00     0.167 HD
BRANCH  11  13
HETATM   13  C3  UNL     1      22.716   2.530  50.767  1.00  0.00     0.032 C 
HETATM   14  C4  UNL     1      23.443   3.105  51.687  1.00  0.00     0.030 C 
BRANCH  13  15
HETATM   15  C2  UNL     1      21.865   2.095  49.695  1.00  0.00     0.019 C 
HETATM   16  C1  UNL     1      21.640   1.329  48.650  1.00  0.00     0.013 C 
ENDBRANCH  13  15
BRANCH  14  17
HETATM   17  C5  UNL     1      23.342   4.574  51.611  1.00  0.00     0.010 C 
HETATM   18  C6  UNL     1      23.871   5.595  50.961  1.00  0.00     0.056 C 
HETATM   19 BR1  UNL     1      23.752   7.512  50.846  1.00  0.00    -0.064 Br
ENDBRANCH  14  17
ENDBRANCH  11  13
ENDBRANCH   1  11
BRANCH   8  20
HETATM   20  N4  UNL     1      26.565  -0.930  54.089  1.00  0.00    -0.309 N 
HETATM   21  C13 UNL     1      27.242   0.278  54.372  1.00  0.00     0.320 C 
HETATM   22  O1  UNL     1      26.473   1.252  54.669  1.00  0.00    -0.247 OA
HETATM   23  N5  UNL     1      28.654   0.428  54.338  1.00  0.00    -0.347 N 
HETATM   24  C14 UNL     1      29.346   1.672  54.628  1.00  0.00     0.151 C 
HETATM   25  H12 UNL     1      29.200  -0.428  54.085  1.00  0.00     0.163 HD
HETATM   26  H11 UNL     1      27.129  -1.783  53.835  1.00  0.00     0.170 HD
ENDBRANCH   8  20
TORSDOF 5
ENDMDL
MODEL 2
REMARK VINA RESULT:      -7.4      3.431      5.556
REMARK  5 active torsions:
REMARK  status: ('A' for Active; 'I' for Inactive)
REMARK    1  A    between atoms: C2_2  and  C3_3 
REMARK    2  A    between atoms: C3_3  and  N1_8 
REMARK    3  A    between atoms: C4_4  and  C5_5 
REMARK    4  A    between atoms: N1_8  and  C7_9 
REMARK    5  A    between atoms: C12_16  and  N4_17 
REMARK       I    between atoms: N4_17  and  C13_18 
REMARK       I    between atoms: C13_18  and  N5_20 
ROOT
HETATM    1  C7  UNL     1      21.471   0.903  52.420  1.00  0.00     0.142 A 
HETATM    2  N2  UNL     1      20.564   0.719  51.470  1.00  0.00    -0.224 NA
HETATM    3  C8  UNL     1      20.816   1.109  50.187  1.00  0.00     0.236 A 
HETATM    4  N3  UNL     1      21.974   1.696  49.794  1.00  0.00    -0.241 NA
HETATM    5  C9  UNL     1      22.909   1.891  50.749  1.00  0.00     0.072 A 
HETATM    6  C10 UNL     1      24.099   2.486  50.384  1.00  0.00     0.035 A 
HETATM    7  C11 UNL     1      25.060   2.684  51.369  1.00  0.00     0.032 A 
HETATM    8  C12 UNL     1      24.814   2.292  52.674  1.00  0.00     0.037 A 
HETATM    9  C15 UNL     1      23.603   1.693  53.015  1.00  0.00     0.047 A 
HETATM   10  C16 UNL     1      22.653   1.496  52.044  1.00  0.00     0.041 A 
ENDROOT
BRANCH   1  11
HETATM   11  N1  UNL     1      21.152   0.476  53.742  1.00  0.00    -0.340 N 
HETATM   12  H7  UNL     1      21.166   1.062  54.628  1.00  0.00     0.167 HD
BRANCH  11  13
HETATM   13  C3  UNL     1      20.776  -0.924  53.894  1.00  0.00     0.032 C 
HETATM   14  C4  UNL     1      19.528  -0.824  53.520  1.00  0.00     0.030 C 
BRANCH  13  15
HETATM   15  C2  UNL     1      22.106  -1.243  54.330  1.00  0.00     0.019 C 
HETATM   16  C1  UNL     1      23.031  -1.263  55.264  1.00  0.00     0.013 C 
ENDBRANCH  13  15
BRANCH  14  17
HETATM   17  C5  UNL     1      18.845  -2.129  53.570  1.00  0.00     0.010 C 
HETATM   18  C6  UNL     1      17.626  -2.636  53.575  1.00  0.00     0.056 C 
HETATM   19 BR1  UNL     1      16.716  -4.331  53.637  1.00  0.00    -0.064 Br
ENDBRANCH  14  17
ENDBRANCH  11  13
ENDBRANCH   1  11
BRANCH   8  20
HETATM   20  N4  UNL     1      25.811   2.501  53.675  1.00  0.00    -0.309 N 
HETATM   21  C13 UNL     1      26.660   1.378  53.800  1.00  0.00     0.320 C 
HETATM   22  O1  UNL     1      26.377   0.417  53.009  1.00  0.00    -0.247 OA
HETATM   23  N5  UNL     1      27.743   1.295  54.715  1.00  0.00    -0.347 N 
HETATM   24  C14 UNL     1      28.613   0.138  54.841  1.00  0.00     0.151 C 
HETATM   25  H12 UNL     1      27.898   2.134  55.320  1.00  0.00     0.163 HD
HETATM   26  H11 UNL     1      25.978   3.338  54.292  1.00  0.00     0.170 HD
ENDBRANCH   8  20
TORSDOF 5
ENDMDL
MODEL 3
REMARK VINA RESULT:      -7.3      2.548      5.196
REMARK  5 active torsions:
REMARK  status: ('A' for Active; 'I' for Inactive)
REMARK    1  A    between atoms: C2_2  and  C3_3 
REMARK    2  A    between atoms: C3_3  and  N1_8 
REMARK    3  A    between atoms: C4_4  and  C5_5 
REMARK    4  A    between atoms: N1_8  and  C7_9 
REMARK    5  A    between atoms: C12_16  and  N4_17 
REMARK       I    between atoms: N4_17  and  C13_18 
REMARK       I    between atoms: C13_18  and  N5_20 
ROOT
HETATM    1  C7  UNL     1      24.981   0.877  52.310  1.00  0.00     0.142 A 
HETATM    2  N2  UNL     1      26.288   0.652  52.273  1.00  0.00    -0.224 NA
HETATM    3  C8  UNL     1      26.875  -0.167  53.193  1.00  0.00     0.236 A 
HETATM    4  N3  UNL     1      26.194  -0.795  54.184  1.00  0.00    -0.241 NA
HETATM    5  C9  UNL     1      24.862  -0.577  54.235  1.00  0.00     0.072 A 
HETATM    6  C10 UNL     1      24.139  -1.200  55.232  1.00  0.00     0.035 A 
HETATM    7  C11 UNL     1      22.767  -0.974  55.281  1.00  0.00     0.032 A 
HETATM    8  C12 UNL     1      22.161  -0.145  54.353  1.00  0.00     0.037 A 
HETATM    9  C15 UNL     1      22.916   0.472  53.358  1.00  0.00     0.047 A 
HETATM   10  C16 UNL     1      24.270   0.250  53.306  1.00  0.00     0.041 A 
ENDROOT
BRANCH   1  11
HETATM   11  N1  UNL     1      24.423   1.742  51.324  1.00  0.00    -0.340 N 
HETATM   12  H7  UNL     1      23.566   1.563  50.721  1.00  0.00     0.167 HD
BRANCH  11  13
HETATM   13  C3  UNL     1      25.112   3.009  51.113  1.00  0.00     0.032 C 
HETATM   14  C4  UNL     1      25.900   2.632  50.141  1.00  0.00     0.030 C 
BRANCH  13  15
HETATM   15  C2  UNL     1      24.338   3.615  52.160  1.00  0.00     0.019 C 
HETATM   16  C1  UNL     1      23.220   4.155  52.591  1.00  0.00     0.013 C 
ENDBRANCH  13  15
BRANCH  14  17
HETATM   17  C5  UNL     1      26.762   3.739  49.689  1.00  0.00     0.010 C 
HETATM   18  C6  UNL     1      26.701   4.843  48.968  1.00  0.00     0.056 C 
HETATM   19 BR1  UNL     1      27.811   6.297  48.369  1.00  0.00    -0.064 Br
ENDBRANCH  14  17
ENDBRANCH  11  13
ENDBRANCH   1  11
BRANCH   8  20
HETATM   20  N4  UNL     1      20.752   0.076  54.416  1.00  0.00    -0.309 N 
HETATM   21  C13 UNL     1      20.031  -1.062  53.991  1.00  0.00     0.320 C 
HETATM   22  O1  UNL     1      20.765  -2.046  53.642  1.00  0.00    -0.247 OA
HETATM   23  N5  UNL     1      18.613  -1.138  53.945  1.00  0.00    -0.347 N 
HETATM   24  C14 UNL     1      17.876  -2.310  53.506  1.00  0.00     0.151 C 
HETATM   25  H12 UNL     1      18.098  -0.281  54.252  1.00  0.00     0.163 HD
HETATM   26  H11 UNL     1      20.220   0.932  54.721  1.00  0.00     0.170 HD
ENDBRANCH   8  20
TORSDOF 5
ENDMDL
MODEL 4
REMARK VINA RESULT:      -7.2      2.486      4.992
REMARK  5 active torsions:
REMARK  status: ('A' for Active; 'I' for Inactive)
REMARK    1  A    between atoms: C2_2  and  C3_3 
REMARK    2  A    between atoms: C3_3  and  N1_8 
REMARK    3  A    between atoms: C4_4  and  C5_5 
REMARK    4  A    between atoms: N1_8  and  C7_9 
REMARK    5  A    between atoms: C12_16  and  N4_17 
REMARK       I    between atoms: N4_17  and  C13_18 
REMARK       I    between atoms: C13_18  and  N5_20 
ROOT
HETATM    1  C7  UNL     1      26.573   1.957  51.908  1.00  0.00     0.142 A 
HETATM    2  N2  UNL     1      27.722   2.557  52.185  1.00  0.00    -0.224 NA
HETATM    3  C8  UNL     1      28.360   2.320  53.367  1.00  0.00     0.236 A 
HETATM    4  N3  UNL     1      27.887   1.480  54.321  1.00  0.00    -0.241 NA
HETATM    5  C9  UNL     1      26.718   0.859  54.056  1.00  0.00     0.072 A 
HETATM    6  C10 UNL     1      26.207  -0.002  55.005  1.00  0.00     0.035 A 
HETATM    7  C11 UNL     1      25.002  -0.640  54.728  1.00  0.00     0.032 A 
HETATM    8  C12 UNL     1      24.347  -0.406  53.531  1.00  0.00     0.037 A 
HETATM    9  C15 UNL     1      24.885   0.469  52.590  1.00  0.00     0.047 A 
HETATM   10  C16 UNL     1      26.074   1.100  52.861  1.00  0.00     0.041 A 
ENDROOT
BRANCH   1  11
HETATM   11  N1  UNL     1      25.951   2.244  50.658  1.00  0.00    -0.340 N 
HETATM   12  H7  UNL     1      25.544   1.547  49.966  1.00  0.00     0.167 HD
BRANCH  11  13
HETATM   13  C3  UNL     1      25.876   3.651  50.283  1.00  0.00     0.032 C 
HETATM   14  C4  UNL     1      26.878   3.673  49.445  1.00  0.00     0.030 C 
BRANCH  13  15
HETATM   15  C2  UNL     1      24.752   3.833  51.157  1.00  0.00     0.019 C 
HETATM   16  C1  UNL     1      23.454   3.845  51.367  1.00  0.00     0.013 C 
ENDBRANCH  13  15
BRANCH  14  17
HETATM   17  C5  UNL     1      27.069   5.017  48.871  1.00  0.00     0.010 C 
HETATM   18  C6  UNL     1      26.378   6.105  48.583  1.00  0.00     0.056 C 
HETATM   19 BR1  UNL     1      26.608   7.864  47.839  1.00  0.00    -0.064 Br
ENDBRANCH  14  17
ENDBRANCH  11  13
ENDBRANCH   1  11
BRANCH   8  20
HETATM   20  N4  UNL     1      23.112  -1.069  53.260  1.00  0.00    -0.309 N 
HETATM   21  C13 UNL     1      22.043  -0.150  53.163  1.00  0.00     0.320 C 
HETATM   22  O1  UNL     1      22.383   1.068  53.332  1.00  0.00    -0.247 OA
HETATM   23  N5  UNL     1      20.696  -0.517  52.900  1.00  0.00    -0.347 N 
HETATM   24  C14 UNL     1      19.600   0.432  52.802  1.00  0.00     0.151 C 
HETATM   25  H12 UNL     1      20.516  -1.540  52.774  1.00  0.00     0.163 HD
HETATM   26  H11 UNL     1      22.914  -2.096  53.132  1.00  0.00     0.170 HD
ENDBRANCH   8  20
TORSDOF 5
ENDMDL
MODEL 5
REMARK VINA RESULT:      -7.1      1.947      2.787
REMARK  5 active torsions:
REMARK  status: ('A' for Active; 'I' for Inactive)
REMARK    1  A    between atoms: C2_2  and  C3_3 
REMARK    2  A    between atoms: C3_3  and  N1_8 
REMARK    3  A    between atoms: C4_4  and  C5_5 
REMARK    4  A    between atoms: N1_8  and  C7_9 
REMARK    5  A    between atoms: C12_16  and  N4_17 
REMARK       I    between atoms: N4_17  and  C13_18 
REMARK       I    between atoms: C13_18  and  N5_20 
ROOT
HETATM    1  C7  UNL     1      23.697   2.992  51.972  1.00  0.00     0.142 A 
HETATM    2  N2  UNL     1      22.554   3.031  51.301  1.00  0.00    -0.224 NA
HETATM    3  C8  UNL     1      21.720   1.950  51.291  1.00  0.00     0.236 A 
HETATM    4  N3  UNL     1      21.985   0.791  51.942  1.00  0.00    -0.241 NA
HETATM    5  C9  UNL     1      23.145   0.735  52.632  1.00  0.00     0.072 A 
HETATM    6  C10 UNL     1      23.446  -0.431  53.306  1.00  0.00     0.035 A 
HETATM    7  C11 UNL     1      24.642  -0.485  54.015  1.00  0.00     0.032 A 
HETATM    8  C12 UNL     1      25.494   0.605  54.032  1.00  0.00     0.037 A 
HETATM    9  C15 UNL     1      25.166   1.770  53.341  1.00  0.00     0.047 A 
HETATM   10  C16 UNL     1      23.985   1.826  52.641  1.00  0.00     0.041 A 
ENDROOT
BRANCH   1  11
HETATM   11  N1  UNL     1      24.528   4.150  51.946  1.00  0.00    -0.340 N 
HETATM   12  H7  UNL     1      25.205   4.474  52.698  1.00  0.00     0.167 HD
BRANCH  11  13
HETATM   13  C3  UNL     1      24.427   4.990  50.758  1.00  0.00     0.032 C 
HETATM   14  C4  UNL     1      23.606   5.887  51.233  1.00  0.00     0.030 C 
BRANCH  13  15
HETATM   15  C2  UNL     1      25.326   4.118  50.055  1.00  0.00     0.019 C 
HETATM   16  C1  UNL     1      26.546   3.762  49.717  1.00  0.00     0.013 C 
ENDBRANCH  13  15
BRANCH  14  17
HETATM   17  C5  UNL     1      23.295   6.918  50.227  1.00  0.00     0.010 C 
HETATM   18  C6  UNL     1      22.437   7.898  50.011  1.00  0.00     0.056 C 
HETATM   19 BR1  UNL     1      22.016   9.252  48.709  1.00  0.00    -0.064 Br
ENDBRANCH  14  17
ENDBRANCH  11  13
ENDBRANCH   1  11
BRANCH   8  20
HETATM   20  N4  UNL     1      26.717   0.536  54.765  1.00  0.00    -0.309 N 
HETATM   21  C13 UNL     1      27.752  -0.035  53.990  1.00  0.00     0.320 C 
HETATM   22  O1  UNL     1      27.398  -0.369  52.810  1.00  0.00    -0.247 OA
HETATM   23  N5  UNL     1      29.080  -0.233  54.453  1.00  0.00    -0.347 N 
HETATM   24  C14 UNL     1      30.140  -0.821  53.653  1.00  0.00     0.151 C 
HETATM   25  H12 UNL     1      29.274   0.075  55.434  1.00  0.00     0.163 HD
HETATM   26  H11 UNL     1      26.927   0.839  55.752  1.00  0.00     0.170 HD
ENDBRANCH   8  20
TORSDOF 5
ENDMDL
MODEL 6
REMARK VINA RESULT:      -6.9      3.596      6.579
REMARK  5 active torsions:
REMARK  status: ('A' for Active; 'I' for Inactive)
REMARK    1  A    between atoms: C2_2  and  C3_3 
REMARK    2  A    between atoms: C3_3  and  N1_8 
REMARK    3  A    between atoms: C4_4  and  C5_5 
REMARK    4  A    between atoms: N1_8  and  C7_9 
REMARK    5  A    between atoms: C12_16  and  N4_17 
REMARK       I    between atoms: N4_17  and  C13_18 
REMARK       I    between atoms: C13_18  and  N5_20 
ROOT
HETATM    1  C7  UNL     1      22.718   0.042  53.043  1.00  0.00     0.142 A 
HETATM    2  N2  UNL     1      23.125  -0.508  54.179  1.00  0.00    -0.224 NA
HETATM    3  C8  UNL     1      22.240  -1.161  54.988  1.00  0.00     0.236 A 
HETATM    4  N3  UNL     1      20.921  -1.295  54.704  1.00  0.00    -0.241 NA
HETATM    5  C9  UNL     1      20.489  -0.741  53.550  1.00  0.00     0.072 A 
HETATM    6  C10 UNL     1      19.152  -0.859  53.231  1.00  0.00     0.035 A 
HETATM    7  C11 UNL     1      18.712  -0.287  52.042  1.00  0.00     0.032 A 
HETATM    8  C12 UNL     1      19.601   0.377  51.215  1.00  0.00     0.037 A 
HETATM    9  C15 UNL     1      20.946   0.481  51.562  1.00  0.00     0.047 A 
HETATM   10  C16 UNL     1      21.384  -0.082  52.735  1.00  0.00     0.041 A 
ENDROOT
BRANCH   1  11
HETATM   11  N1  UNL     1      23.686   0.712  52.239  1.00  0.00    -0.340 N 
HETATM   12  H7  UNL     1      23.577   1.031  51.232  1.00  0.00     0.167 HD
BRANCH  11  13
HETATM   13  C3  UNL     1      24.974   0.978  52.869  1.00  0.00     0.032 C 
HETATM   14  C4  UNL     1      25.501  -0.208  52.723  1.00  0.00     0.030 C 
BRANCH  13  15
HETATM   15  C2  UNL     1      24.579   2.335  53.123  1.00  0.00     0.019 C 
HETATM   16  C1  UNL     1      23.973   3.441  52.749  1.00  0.00     0.013 C 
ENDBRANCH  13  15
BRANCH  14  17
HETATM   17  C5  UNL     1      26.862  -0.264  53.285  1.00  0.00     0.010 C 
HETATM   18  C6  UNL     1      28.065  -0.720  52.986  1.00  0.00     0.056 C 
HETATM   19 BR1  UNL     1      29.849  -0.802  53.703  1.00  0.00    -0.064 Br
ENDBRANCH  14  17
ENDBRANCH  11  13
ENDBRANCH   1  11
BRANCH   8  20
HETATM   20  N4  UNL     1      19.134   0.957  49.997  1.00  0.00    -0.309 N 
HETATM   21  C13 UNL     1      18.690   2.284  50.193  1.00  0.00     0.320 C 
HETATM   22  O1  UNL     1      18.790   2.696  51.397  1.00  0.00    -0.247 OA
HETATM   23  N5  UNL     1      18.171   3.113  49.163  1.00  0.00    -0.347 N 
HETATM   24  C14 UNL     1      17.713   4.476  49.371  1.00  0.00     0.151 C 
HETATM   25  H12 UNL     1      18.130   2.687  48.209  1.00  0.00     0.163 HD
HETATM   26  H11 UNL     1      19.085   0.541  49.030  1.00  0.00     0.170 HD
ENDBRANCH   8  20
TORSDOF 5
ENDMDL
MODEL 7
REMARK VINA RESULT:      -6.8      1.584      1.613
REMARK  5 active torsions:
REMARK  status: ('A' for Active; 'I' for Inactive)
REMARK    1  A    between atoms: C2_2  and  C3_3 
REMARK    2  A    between atoms: C3_3  and  N1_8 
REMARK    3  A    between atoms: C4_4  and  C5_5 
REMARK    4  A    between atoms: N1_8  and  C7_9 
REMARK    5  A    between atoms: C12_16  and  N4_17 
REMARK       I    between atoms: N4_17  and  C13_18 
REMARK       I    between atoms: C13_18  and  N5_20 
ROOT
HETATM    1  C7  UNL     1      23.075   1.262  51.740  1.00  0.00     0.142 A 
HETATM    2  N2  UNL     1      21.829   0.956  51.406  1.00  0.00    -0.224 NA
HETATM    3  C8  UNL     1      21.129   0.028  52.120  1.00  0.00     0.236 A 
HETATM    4  N3  UNL     1      21.633  -0.632  53.192  1.00  0.00    -0.241 NA
HETATM    5  C9  UNL     1      22.901  -0.332  53.547  1.00  0.00     0.072 A 
HETATM    6  C10 UNL     1      23.446  -0.986  54.633  1.00  0.00     0.035 A 
HETATM    7  C11 UNL     1      24.752  -0.675  54.995  1.00  0.00     0.032 A 
HETATM    8  C12 UNL     1      25.471   0.265  54.277  1.00  0.00     0.037 A 
HETATM    9  C15 UNL     1      24.897   0.910  53.184  1.00  0.00     0.047 A 
HETATM   10  C16 UNL     1      23.607   0.604  52.824  1.00  0.00     0.041 A 
ENDROOT
BRANCH   1  11
HETATM   11  N1  UNL     1      23.758   2.237  50.957  1.00  0.00    -0.340 N 
HETATM   12  H7  UNL     1      24.796   2.271  50.732  1.00  0.00     0.167 HD
BRANCH  11  13
HETATM   13  C3  UNL     1      22.941   3.316  50.415  1.00  0.00     0.032 C 
HETATM   14  C4  UNL     1      22.889   4.066  51.483  1.00  0.00     0.030 C 
BRANCH  13  15
HETATM   15  C2  UNL     1      22.879   2.644  49.147  1.00  0.00     0.019 C 
HETATM   16  C1  UNL     1      22.565   2.634  47.871  1.00  0.00     0.013 C 
ENDBRANCH  13  15
BRANCH  14  17
HETATM   17  C5  UNL     1      22.097   5.286  51.247  1.00  0.00     0.010 C 
HETATM   18  C6  UNL     1      21.882   6.190  50.308  1.00  0.00     0.056 C 
HETATM   19 BR1  UNL     1      20.855   7.783  49.980  1.00  0.00    -0.064 Br
ENDBRANCH  14  17
ENDBRANCH  11  13
ENDBRANCH   1  11
BRANCH   8  20
HETATM   20  N4  UNL     1      26.810   0.576  54.662  1.00  0.00    -0.309 N 
HETATM   21  C13 UNL     1      27.737  -0.312  54.070  1.00  0.00     0.320 C 
HETATM   22  O1  UNL     1      27.207  -1.200  53.323  1.00  0.00    -0.247 OA
HETATM   23  N5  UNL     1      29.142  -0.249  54.269  1.00  0.00    -0.347 N 
HETATM   24  C14 UNL     1      30.091  -1.165  53.661  1.00  0.00     0.151 C 
HETATM   25  H12 UNL     1      29.482   0.515  54.898  1.00  0.00     0.163 HD
HETATM   26  H11 UNL     1      27.168   1.339  55.294  1.00  0.00     0.170 HD
ENDBRANCH   8  20
TORSDOF 5
ENDMDL
MODEL 8
REMARK VINA RESULT:      -6.7      3.022      5.653
REMARK  5 active torsions:
REMARK  status: ('A' for Active; 'I' for Inactive)
REMARK    1  A    between atoms: C2_2  and  C3_3 
REMARK    2  A    between atoms: C3_3  and  N1_8 
REMARK    3  A    between atoms: C4_4  and  C5_5 
REMARK    4  A    between atoms: N1_8  and  C7_9 
REMARK    5  A    between atoms: C12_16  and  N4_17 
REMARK       I    between atoms: N4_17  and  C13_18 
REMARK       I    between atoms: C13_18  and  N5_20 
ROOT
HETATM    1  C7  UNL     1      24.358   1.851  51.535  1.00  0.00     0.142 A 
HETATM    2  N2  UNL     1      25.558   1.751  52.090  1.00  0.00    -0.224 NA
HETATM    3  C8  UNL     1      25.751   0.958  53.184  1.00  0.00     0.236 A 
HETATM    4  N3  UNL     1      24.765   0.236  53.772  1.00  0.00    -0.241 NA
HETATM    5  C9  UNL     1      23.536   0.326  53.219  1.00  0.00     0.072 A 
HETATM    6  C10 UNL     1      22.509  -0.396  53.792  1.00  0.00     0.035 A 
HETATM    7  C11 UNL     1      21.245  -0.300  53.221  1.00  0.00     0.032 A 
HETATM    8  C12 UNL     1      21.039   0.500  52.111  1.00  0.00     0.037 A 
HETATM    9  C15 UNL     1      22.093   1.219  51.552  1.00  0.00     0.047 A 
HETATM   10  C16 UNL     1      23.343   1.127  52.115  1.00  0.00     0.041 A 
ENDROOT
BRANCH   1  11
HETATM   11  N1  UNL     1      24.216   2.695  50.395  1.00  0.00    -0.340 N 
HETATM   12  H7  UNL     1      23.526   2.584  49.595  1.00  0.00     0.167 HD
BRANCH  11  13
HETATM   13  C3  UNL     1      25.128   3.829  50.314  1.00  0.00     0.032 C 
HETATM   14  C4  UNL     1      25.987   3.317  49.472  1.00  0.00     0.030 C 
BRANCH  13  15
HETATM   15  C2  UNL     1      24.310   4.565  51.235  1.00  0.00     0.019 C 
HETATM   16  C1  UNL     1      23.453   5.529  51.487  1.00  0.00     0.013 C 
ENDBRANCH  13  15
BRANCH  14  17
HETATM   17  C5  UNL     1      27.079   4.261  49.177  1.00  0.00     0.010 C 
HETATM   18  C6  UNL     1      27.299   5.384  48.518  1.00  0.00     0.056 C 
HETATM   19 BR1  UNL     1      28.712   6.629  48.124  1.00  0.00    -0.064 Br
ENDBRANCH  14  17
ENDBRANCH  11  13
ENDBRANCH   1  11
BRANCH   8  20
HETATM   20  N4  UNL     1      19.736   0.587  51.533  1.00  0.00    -0.309 N 
HETATM   21  C13 UNL     1      19.123   1.826  51.827  1.00  0.00     0.320 C 
HETATM   22  O1  UNL     1      19.839   2.609  52.536  1.00  0.00    -0.247 OA
HETATM   23  N5  UNL     1      17.825   2.199  51.387  1.00  0.00    -0.347 N 
HETATM   24  C14 UNL     1      17.197   3.473  51.692  1.00  0.00     0.151 C 
HETATM   25  H12 UNL     1      17.315   1.490  50.809  1.00  0.00     0.163 HD
HETATM   26  H11 UNL     1      19.210  -0.117  50.952  1.00  0.00     0.170 HD
ENDBRANCH   8  20
TORSDOF 5
ENDMDL
MODEL 9
REMARK VINA RESULT:      -6.7      2.428      3.025
REMARK  5 active torsions:
REMARK  status: ('A' for Active; 'I' for Inactive)
REMARK    1  A    between atoms: C2_2  and  C3_3 
REMARK    2  A    between atoms: C3_3  and  N1_8 
REMARK    3  A    between atoms: C4_4  and  C5_5 
REMARK    4  A    between atoms: N1_8  and  C7_9 
REMARK    5  A    between atoms: C12_16  and  N4_17 
REMARK       I    between atoms: N4_17  and  C13_18 
REMARK       I    between atoms: C13_18  and  N5_20 
ROOT
HETATM    1  C7  UNL     1      22.751   3.054  51.883  1.00  0.00     0.142 A 
HETATM    2  N2  UNL     1      21.554   3.626  51.904  1.00  0.00    -0.224 NA
HETATM    3  C8  UNL     1      20.485   2.976  52.448  1.00  0.00     0.236 A 
HETATM    4  N3  UNL     1      20.557   1.737  52.993  1.00  0.00    -0.241 NA
HETATM    5  C9  UNL     1      21.769   1.139  52.982  1.00  0.00     0.072 A 
HETATM    6  C10 UNL     1      21.878  -0.123  53.527  1.00  0.00     0.035 A 
HETATM    7  C11 UNL     1      23.126  -0.735  53.514  1.00  0.00     0.032 A 
HETATM    8  C12 UNL     1      24.218  -0.085  52.964  1.00  0.00     0.037 A 
HETATM    9  C15 UNL     1      24.079   1.190  52.419  1.00  0.00     0.047 A 
HETATM   10  C16 UNL     1      22.847   1.797  52.431  1.00  0.00     0.041 A 
ENDROOT
BRANCH   1  11
HETATM   11  N1  UNL     1      23.830   3.780  51.301  1.00  0.00    -0.340 N 
HETATM   12  H7  UNL     1      24.529   4.406  51.800  1.00  0.00     0.167 HD
BRANCH  11  13
HETATM   13  C3  UNL     1      23.984   3.657  49.856  1.00  0.00     0.032 C 
HETATM   14  C4  UNL     1      22.766   3.980  49.511  1.00  0.00     0.030 C 
BRANCH  13  15
HETATM   15  C2  UNL     1      25.360   3.282  50.026  1.00  0.00     0.019 C 
HETATM   16  C1  UNL     1      26.595   3.228  49.580  1.00  0.00     0.013 C 
ENDBRANCH  13  15
BRANCH  14  17
HETATM   17  C5  UNL     1      22.595   3.945  48.048  1.00  0.00     0.010 C 
HETATM   18  C6  UNL     1      21.642   4.013  47.136  1.00  0.00     0.056 C 
HETATM   19 BR1  UNL     1      21.399   3.971  45.227  1.00  0.00    -0.064 Br
ENDBRANCH  14  17
ENDBRANCH  11  13
ENDBRANCH   1  11
BRANCH   8  20
HETATM   20  N4  UNL     1      25.494  -0.725  52.959  1.00  0.00    -0.309 N 
HETATM   21  C13 UNL     1      26.396  -0.085  53.838  1.00  0.00     0.320 C 
HETATM   22  O1  UNL     1      25.904   0.920  54.453  1.00  0.00    -0.247 OA
HETATM   23  N5  UNL     1      27.740  -0.498  54.043  1.00  0.00    -0.347 N 
HETATM   24  C14 UNL     1      28.665   0.164  54.946  1.00  0.00     0.151 C 
HETATM   25  H12 UNL     1      28.051  -1.333  53.494  1.00  0.00     0.163 HD
HETATM   26  H11 UNL     1      25.822  -1.563  52.412  1.00  0.00     0.170 HD
ENDBRANCH   8  20
TORSDOF 5
ENDMDL
