MODEL 1
REMARK VINA RESULT:      -8.3      0.000      0.000
REMARK  0 active torsions:
REMARK  status: ('A' for Active; 'I' for Inactive)
ROOT
HETATM    1  C1  UNL     1      22.293   1.388  50.756  1.00  0.00     0.043 C 
HETATM    2  C2  UNL     1      22.861   1.487  51.972  1.00  0.00     0.031 C 
HETATM    3  N1  UNL     1      23.784   2.526  51.690  1.00  0.00    -0.369 N 
HETATM    4  C3  UNL     1      25.212   2.218  51.499  1.00  0.00     0.292 C 
HETATM    5  O1  UNL     1      25.641   1.738  52.700  1.00  0.00    -0.351 OA
HETATM    6  C4  UNL     1      26.964   1.305  52.748  1.00  0.00     0.148 A 
HETATM    7  C5  UNL     1      27.793   2.025  53.701  1.00  0.00     0.133 A 
HETATM    8  N2  UNL     1      28.431   1.547  54.716  1.00  0.00    -0.255 NA
HETATM    9  C6  UNL     1      28.290   0.137  54.900  1.00  0.00     0.229 A 
HETATM   10  N3  UNL     1      27.587  -0.590  54.112  1.00  0.00    -0.245 NA
HETATM   11  C7  UNL     1      26.858  -0.188  52.980  1.00  0.00     0.186 A 
HETATM   12  C8  UNL     1      27.531   0.394  51.770  1.00  0.00     0.110 A 
HETATM   13  N4  UNL     1      25.494  -0.639  52.713  1.00  0.00    -0.263 NA
HETATM   14  C9  UNL     1      24.518  -0.227  53.487  1.00  0.00     0.126 C 
HETATM   15  C10 UNL     1      23.088  -0.288  53.742  1.00  0.00    -0.006 A 
HETATM   16  C11 UNL     1      22.482  -1.113  54.662  1.00  0.00     0.014 A 
HETATM   17  C12 UNL     1      21.108  -1.067  54.772  1.00  0.00     0.001 A 
HETATM   18  C13 UNL     1      20.378  -0.217  53.979  1.00  0.00     0.001 A 
HETATM   19  C14 UNL     1      20.941   0.630  53.044  1.00  0.00     0.014 A 
HETATM   20  C15 UNL     1      22.317   0.561  52.958  1.00  0.00     0.001 A 
HETATM   21  H3  UNL     1      23.425   3.506  51.622  1.00  0.00     0.161 HD
ENDROOT
TORSDOF 0
ENDMDL
MODEL 2
REMARK VINA RESULT:      -8.1      2.031      4.349
REMARK  0 active torsions:
REMARK  status: ('A' for Active; 'I' for Inactive)
ROOT
HETATM    1  C1  UNL     1      22.640   2.881  52.142  1.00  0.00     0.043 C 
HETATM    2  C2  UNL     1      23.638   2.167  51.587  1.00  0.00     0.031 C 
HETATM    3  N1  UNL     1      23.281   0.886  52.082  1.00  0.00    -0.369 N 
HETATM    4  C3  UNL     1      24.027   0.291  53.204  1.00  0.00     0.292 C 
HETATM    5  O1  UNL     1      25.293   0.102  52.736  1.00  0.00    -0.351 OA
HETATM    6  C4  UNL     1      26.216  -0.393  53.654  1.00  0.00     0.148 A 
HETATM    7  C5  UNL     1      26.800  -1.671  53.282  1.00  0.00     0.133 A 
HETATM    8  N2  UNL     1      28.045  -1.944  53.080  1.00  0.00    -0.255 NA
HETATM    9  C6  UNL     1      28.935  -0.839  53.252  1.00  0.00     0.229 A 
HETATM   10  N3  UNL     1      28.521   0.328  53.585  1.00  0.00    -0.245 NA
HETATM   11  C7  UNL     1      27.203   0.742  53.836  1.00  0.00     0.186 A 
HETATM   12  C8  UNL     1      26.400   0.182  54.975  1.00  0.00     0.110 A 
HETATM   13  N4  UNL     1      26.644   1.981  53.299  1.00  0.00    -0.263 NA
HETATM   14  C9  UNL     1      26.429   2.082  52.008  1.00  0.00     0.126 C 
HETATM   15  C10 UNL     1      25.943   2.942  50.942  1.00  0.00    -0.006 A 
HETATM   16  C11 UNL     1      26.736   3.714  50.123  1.00  0.00     0.014 A 
HETATM   17  C12 UNL     1      26.120   4.494  49.168  1.00  0.00     0.001 A 
HETATM   18  C13 UNL     1      24.753   4.490  49.046  1.00  0.00     0.001 A 
HETATM   19  C14 UNL     1      23.917   3.731  49.843  1.00  0.00     0.014 A 
HETATM   20  C15 UNL     1      24.563   2.962  50.789  1.00  0.00     0.001 A 
HETATM   21  H3  UNL     1      22.482   0.384  51.632  1.00  0.00     0.161 HD
ENDROOT
TORSDOF 0
ENDMDL
MODEL 3
REMARK VINA RESULT:      -7.9      2.540      5.504
REMARK  0 active torsions:
REMARK  status: ('A' for Active; 'I' for Inactive)
ROOT
HETATM    1  C1  UNL     1      24.742  -0.524  53.201  1.00  0.00     0.043 C 
HETATM    2  C2  UNL     1      25.079   0.770  53.356  1.00  0.00     0.031 C 
HETATM    3  N1  UNL     1      23.791   1.344  53.197  1.00  0.00    -0.369 N 
HETATM    4  C3  UNL     1      23.427   2.012  51.935  1.00  0.00     0.292 C 
HETATM    5  O1  UNL     1      24.259   3.087  51.843  1.00  0.00    -0.351 OA
HETATM    6  C4  UNL     1      24.152   3.846  50.680  1.00  0.00     0.148 A 
HETATM    7  C5  UNL     1      23.775   5.231  50.905  1.00  0.00     0.133 A 
HETATM    8  N2  UNL     1      24.437   6.293  50.592  1.00  0.00    -0.255 NA
HETATM    9  C6  UNL     1      25.687   6.049  49.944  1.00  0.00     0.229 A 
HETATM   10  N3  UNL     1      26.109   4.864  49.694  1.00  0.00    -0.245 NA
HETATM   11  C7  UNL     1      25.480   3.641  49.980  1.00  0.00     0.186 A 
HETATM   12  C8  UNL     1      24.170   3.258  49.352  1.00  0.00     0.110 A 
HETATM   13  N4  UNL     1      26.184   2.504  50.567  1.00  0.00    -0.263 NA
HETATM   14  C9  UNL     1      26.601   2.578  51.809  1.00  0.00     0.126 C 
HETATM   15  C10 UNL     1      27.287   1.879  52.883  1.00  0.00    -0.006 A 
HETATM   16  C11 UNL     1      28.618   2.031  53.203  1.00  0.00     0.014 A 
HETATM   17  C12 UNL     1      29.127   1.279  54.241  1.00  0.00     0.001 A 
HETATM   18  C13 UNL     1      28.318   0.407  54.927  1.00  0.00     0.001 A 
HETATM   19  C14 UNL     1      26.979   0.222  54.643  1.00  0.00     0.014 A 
HETATM   20  C15 UNL     1      26.499   0.988  53.600  1.00  0.00     0.001 A 
HETATM   21  H3  UNL     1      23.115   1.278  53.992  1.00  0.00     0.161 HD
ENDROOT
TORSDOF 0
ENDMDL
MODEL 4
REMARK VINA RESULT:      -7.5      3.476      6.710
REMARK  0 active torsions:
REMARK  status: ('A' for Active; 'I' for Inactive)
ROOT
HETATM    1  C1  UNL     1      24.162   1.821  51.623  1.00  0.00     0.043 C 
HETATM    2  C2  UNL     1      22.928   1.300  51.497  1.00  0.00     0.031 C 
HETATM    3  N1  UNL     1      22.685   1.658  50.146  1.00  0.00    -0.369 N 
HETATM    4  C3  UNL     1      21.797   2.789  49.827  1.00  0.00     0.292 C 
HETATM    5  O1  UNL     1      20.565   2.419  50.276  1.00  0.00    -0.351 OA
HETATM    6  C4  UNL     1      19.556   3.371  50.149  1.00  0.00     0.148 A 
HETATM    7  C5  UNL     1      18.442   2.950  49.317  1.00  0.00     0.133 A 
HETATM    8  N2  UNL     1      17.201   2.835  49.654  1.00  0.00    -0.255 NA
HETATM    9  C6  UNL     1      16.916   3.171  51.013  1.00  0.00     0.229 A 
HETATM   10  N3  UNL     1      17.828   3.560  51.827  1.00  0.00    -0.245 NA
HETATM   11  C7  UNL     1      19.200   3.728  51.578  1.00  0.00     0.186 A 
HETATM   12  C8  UNL     1      19.708   4.744  50.596  1.00  0.00     0.110 A 
HETATM   13  N4  UNL     1      20.237   3.245  52.487  1.00  0.00    -0.263 NA
HETATM   14  C9  UNL     1      20.421   1.953  52.623  1.00  0.00     0.126 C 
HETATM   15  C10 UNL     1      21.200   0.921  53.287  1.00  0.00    -0.006 A 
HETATM   16  C11 UNL     1      20.810   0.238  54.417  1.00  0.00     0.014 A 
HETATM   17  C12 UNL     1      21.673  -0.702  54.939  1.00  0.00     0.001 A 
HETATM   18  C13 UNL     1      22.884  -0.941  54.338  1.00  0.00     0.001 A 
HETATM   19  C14 UNL     1      23.317  -0.283  53.203  1.00  0.00     0.014 A 
HETATM   20  C15 UNL     1      22.432   0.651  52.704  1.00  0.00     0.001 A 
HETATM   21  H3  UNL     1      23.150   1.102  49.393  1.00  0.00     0.161 HD
ENDROOT
TORSDOF 0
ENDMDL
MODEL 5
REMARK VINA RESULT:      -7.5      2.983      5.341
REMARK  0 active torsions:
REMARK  status: ('A' for Active; 'I' for Inactive)
ROOT
HETATM    1  C1  UNL     1      22.129   0.752  51.878  1.00  0.00     0.043 C 
HETATM    2  C2  UNL     1      23.072   1.656  52.202  1.00  0.00     0.031 C 
HETATM    3  N1  UNL     1      22.234   2.793  52.342  1.00  0.00    -0.369 N 
HETATM    4  C3  UNL     1      22.194   3.819  51.285  1.00  0.00     0.292 C 
HETATM    5  O1  UNL     1      23.446   4.357  51.257  1.00  0.00    -0.351 OA
HETATM    6  C4  UNL     1      23.678   5.315  50.272  1.00  0.00     0.148 A 
HETATM    7  C5  UNL     1      24.050   6.621  50.789  1.00  0.00     0.133 A 
HETATM    8  N2  UNL     1      25.139   7.278  50.568  1.00  0.00    -0.255 NA
HETATM    9  C6  UNL     1      26.070   6.622  49.707  1.00  0.00     0.229 A 
HETATM   10  N3  UNL     1      25.834   5.470  49.194  1.00  0.00    -0.245 NA
HETATM   11  C7  UNL     1      24.694   4.666  49.355  1.00  0.00     0.186 A 
HETATM   12  C8  UNL     1      23.340   5.107  48.876  1.00  0.00     0.110 A 
HETATM   13  N4  UNL     1      24.765   3.231  49.622  1.00  0.00    -0.263 NA
HETATM   14  C9  UNL     1      25.219   2.816  50.781  1.00  0.00     0.126 C 
HETATM   15  C10 UNL     1      25.515   1.653  51.601  1.00  0.00    -0.006 A 
HETATM   16  C11 UNL     1      26.758   1.076  51.738  1.00  0.00     0.014 A 
HETATM   17  C12 UNL     1      26.871  -0.040  52.540  1.00  0.00     0.001 A 
HETATM   18  C13 UNL     1      25.769  -0.550  53.179  1.00  0.00     0.001 A 
HETATM   19  C14 UNL     1      24.503  -0.005  53.073  1.00  0.00     0.014 A 
HETATM   20  C15 UNL     1      24.421   1.110  52.263  1.00  0.00     0.001 A 
HETATM   21  H3  UNL     1      21.653   2.880  53.207  1.00  0.00     0.161 HD
ENDROOT
TORSDOF 0
ENDMDL
MODEL 6
REMARK VINA RESULT:      -7.4      3.227      4.420
REMARK  0 active torsions:
REMARK  status: ('A' for Active; 'I' for Inactive)
ROOT
HETATM    1  C1  UNL     1      19.387   0.874  52.259  1.00  0.00     0.043 C 
HETATM    2  C2  UNL     1      20.490   1.538  52.651  1.00  0.00     0.031 C 
HETATM    3  N1  UNL     1      20.100   2.844  52.258  1.00  0.00    -0.369 N 
HETATM    4  C3  UNL     1      20.663   3.451  51.040  1.00  0.00     0.292 C 
HETATM    5  O1  UNL     1      21.997   3.586  51.286  1.00  0.00    -0.351 OA
HETATM    6  C4  UNL     1      22.766   4.079  50.236  1.00  0.00     0.148 A 
HETATM    7  C5  UNL     1      23.451   5.326  50.534  1.00  0.00     0.133 A 
HETATM    8  N2  UNL     1      24.721   5.554  50.525  1.00  0.00    -0.255 NA
HETATM    9  C6  UNL     1      25.528   4.428  50.173  1.00  0.00     0.229 A 
HETATM   10  N3  UNL     1      25.021   3.285  49.887  1.00  0.00    -0.245 NA
HETATM   11  C7  UNL     1      23.665   2.920  49.857  1.00  0.00     0.186 A 
HETATM   12  C8  UNL     1      22.699   3.541  48.889  1.00  0.00     0.110 A 
HETATM   13  N4  UNL     1      23.162   1.684  50.451  1.00  0.00    -0.263 NA
HETATM   14  C9  UNL     1      23.169   1.549  51.756  1.00  0.00     0.126 C 
HETATM   15  C10 UNL     1      22.843   0.672  52.868  1.00  0.00    -0.006 A 
HETATM   16  C11 UNL     1      23.736  -0.151  53.517  1.00  0.00     0.014 A 
HETATM   17  C12 UNL     1      23.266  -0.940  54.544  1.00  0.00     0.001 A 
HETATM   18  C13 UNL     1      21.940  -0.897  54.901  1.00  0.00     0.001 A 
HETATM   19  C14 UNL     1      21.008  -0.088  54.280  1.00  0.00     0.014 A 
HETATM   20  C15 UNL     1      21.509   0.690  53.256  1.00  0.00     0.001 A 
HETATM   21  H3  UNL     1      19.409   3.357  52.852  1.00  0.00     0.161 HD
ENDROOT
TORSDOF 0
ENDMDL
MODEL 7
REMARK VINA RESULT:      -7.4      2.072      4.934
REMARK  0 active torsions:
REMARK  status: ('A' for Active; 'I' for Inactive)
ROOT
HETATM    1  C1  UNL     1      25.806   0.729  54.002  1.00  0.00     0.043 C 
HETATM    2  C2  UNL     1      24.871   0.632  53.038  1.00  0.00     0.031 C 
HETATM    3  N1  UNL     1      25.682   0.969  51.924  1.00  0.00    -0.369 N 
HETATM    4  C3  UNL     1      25.586   2.306  51.314  1.00  0.00     0.292 C 
HETATM    5  O1  UNL     1      24.321   2.385  50.813  1.00  0.00    -0.351 OA
HETATM    6  C4  UNL     1      23.964   3.605  50.243  1.00  0.00     0.148 A 
HETATM    7  C5  UNL     1      23.603   3.521  48.837  1.00  0.00     0.133 A 
HETATM    8  N2  UNL     1      22.477   3.837  48.289  1.00  0.00    -0.255 NA
HETATM    9  C6  UNL     1      21.488   4.327  49.195  1.00  0.00     0.229 A 
HETATM   10  N3  UNL     1      21.709   4.445  50.453  1.00  0.00    -0.245 NA
HETATM   11  C7  UNL     1      22.884   4.142  51.159  1.00  0.00     0.186 A 
HETATM   12  C8  UNL     1      24.170   4.877  50.910  1.00  0.00     0.110 A 
HETATM   13  N4  UNL     1      22.885   3.403  52.420  1.00  0.00    -0.263 NA
HETATM   14  C9  UNL     1      22.559   2.132  52.419  1.00  0.00     0.126 C 
HETATM   15  C10 UNL     1      22.382   0.943  53.236  1.00  0.00    -0.006 A 
HETATM   16  C11 UNL     1      21.178   0.493  53.730  1.00  0.00     0.014 A 
HETATM   17  C12 UNL     1      21.178  -0.644  54.509  1.00  0.00     0.001 A 
HETATM   18  C13 UNL     1      22.354  -1.300  54.778  1.00  0.00     0.001 A 
HETATM   19  C14 UNL     1      23.585  -0.887  54.304  1.00  0.00     0.014 A 
HETATM   20  C15 UNL     1      23.552   0.253  53.528  1.00  0.00     0.001 A 
HETATM   21  H3  UNL     1      26.342   0.248  51.552  1.00  0.00     0.161 HD
ENDROOT
TORSDOF 0
ENDMDL
MODEL 8
REMARK VINA RESULT:      -7.0      2.111      3.796
REMARK  0 active torsions:
REMARK  status: ('A' for Active; 'I' for Inactive)
ROOT
HETATM    1  C1  UNL     1      21.170  -0.570  54.536  1.00  0.00     0.043 C 
HETATM    2  C2  UNL     1      21.719  -0.369  53.323  1.00  0.00     0.031 C 
HETATM    3  N1  UNL     1      22.993  -0.942  53.572  1.00  0.00    -0.369 N 
HETATM    4  C3  UNL     1      24.164  -0.077  53.794  1.00  0.00     0.292 C 
HETATM    5  O1  UNL     1      24.347   0.591  52.620  1.00  0.00    -0.351 OA
HETATM    6  C4  UNL     1      25.369   1.537  52.608  1.00  0.00     0.148 A 
HETATM    7  C5  UNL     1      26.416   1.270  51.635  1.00  0.00     0.133 A 
HETATM    8  N2  UNL     1      26.790   2.015  50.650  1.00  0.00    -0.255 NA
HETATM    9  C6  UNL     1      26.075   3.245  50.525  1.00  0.00     0.229 A 
HETATM   10  N3  UNL     1      25.138   3.578  51.335  1.00  0.00    -0.245 NA
HETATM   11  C7  UNL     1      24.650   2.859  52.439  1.00  0.00     0.186 A 
HETATM   12  C8  UNL     1      25.511   2.557  53.632  1.00  0.00     0.110 A 
HETATM   13  N4  UNL     1      23.223   2.690  52.708  1.00  0.00    -0.263 NA
HETATM   14  C9  UNL     1      22.502   1.944  51.905  1.00  0.00     0.126 C 
HETATM   15  C10 UNL     1      21.176   1.416  51.635  1.00  0.00    -0.006 A 
HETATM   16  C11 UNL     1      20.275   1.954  50.744  1.00  0.00     0.014 A 
HETATM   17  C12 UNL     1      19.044   1.346  50.615  1.00  0.00     0.001 A 
HETATM   18  C13 UNL     1      18.739   0.234  51.360  1.00  0.00     0.001 A 
HETATM   19  C14 UNL     1      19.610  -0.342  52.266  1.00  0.00     0.014 A 
HETATM   20  C15 UNL     1      20.832   0.289  52.372  1.00  0.00     0.001 A 
HETATM   21  H3  UNL     1      23.074  -1.984  53.593  1.00  0.00     0.161 HD
ENDROOT
TORSDOF 0
ENDMDL
MODEL 9
REMARK VINA RESULT:      -7.0      1.792      3.507
REMARK  0 active torsions:
REMARK  status: ('A' for Active; 'I' for Inactive)
ROOT
HETATM    1  C1  UNL     1      20.383   0.101  54.384  1.00  0.00     0.043 C 
HETATM    2  C2  UNL     1      21.251  -0.316  53.444  1.00  0.00     0.031 C 
HETATM    3  N1  UNL     1      22.017  -1.204  54.243  1.00  0.00    -0.369 N 
HETATM    4  C3  UNL     1      23.353  -0.807  54.719  1.00  0.00     0.292 C 
HETATM    5  O1  UNL     1      24.111  -0.669  53.595  1.00  0.00    -0.351 OA
HETATM    6  C4  UNL     1      25.416  -0.223  53.789  1.00  0.00     0.148 A 
HETATM    7  C5  UNL     1      26.436  -1.153  53.335  1.00  0.00     0.133 A 
HETATM    8  N2  UNL     1      27.344  -0.957  52.439  1.00  0.00    -0.255 NA
HETATM    9  C6  UNL     1      27.323   0.339  51.839  1.00  0.00     0.229 A 
HETATM   10  N3  UNL     1      26.467   1.234  52.173  1.00  0.00    -0.245 NA
HETATM   11  C7  UNL     1      25.443   1.141  53.130  1.00  0.00     0.186 A 
HETATM   12  C8  UNL     1      25.739   0.944  54.590  1.00  0.00     0.110 A 
HETATM   13  N4  UNL     1      24.079   1.604  52.882  1.00  0.00    -0.263 NA
HETATM   14  C9  UNL     1      23.330   0.959  52.019  1.00  0.00     0.126 C 
HETATM   15  C10 UNL     1      22.026   0.899  51.381  1.00  0.00    -0.006 A 
HETATM   16  C11 UNL     1      21.727   1.413  50.139  1.00  0.00     0.014 A 
HETATM   17  C12 UNL     1      20.433   1.292  49.679  1.00  0.00     0.001 A 
HETATM   18  C13 UNL     1      19.478   0.674  50.448  1.00  0.00     0.001 A 
HETATM   19  C14 UNL     1      19.731   0.143  51.698  1.00  0.00     0.014 A 
HETATM   20  C15 UNL     1      21.034   0.279  52.131  1.00  0.00     0.001 A 
HETATM   21  H3  UNL     1      21.608  -2.137  54.481  1.00  0.00     0.161 HD
ENDROOT
TORSDOF 0
ENDMDL
