MODEL 1
REMARK VINA RESULT:      -8.7      0.000      0.000
REMARK  4 active torsions:
REMARK  status: ('A' for Active; 'I' for Inactive)
REMARK    1  A    between atoms: C1_2  and  C2_3 
REMARK    2  A    between atoms: C3_4  and  C4_5 
REMARK    3  A    between atoms: C4_5  and  C5_6 
REMARK    4  A    between atoms: C5_6  and  C6_7 
ROOT
HETATM    1  C6  UNL     1      25.955  -0.200  54.372  1.00  0.00     0.040 C 
HETATM    2  C7  UNL     1      24.762  -0.840  54.797  1.00  0.00     0.059 C 
HETATM    3  O1  UNL     1      23.886  -0.696  53.801  1.00  0.00     0.000 OA
HETATM    4  C8  UNL     1      22.569  -0.908  53.500  1.00  0.00     0.048 C 
HETATM    5  C9  UNL     1      21.975   0.023  52.523  1.00  0.00    -0.002 C 
HETATM    6  C10 UNL     1      20.661  -0.230  52.800  1.00  0.00     0.016 C 
HETATM    7  C11 UNL     1      20.170  -1.180  53.803  1.00  0.00     0.059 C 
HETATM    8  C12 UNL     1      18.759  -1.504  53.329  1.00  0.00     0.026 C 
HETATM    9  C13 UNL     1      18.257  -0.368  52.510  1.00  0.00     0.123 C 
HETATM   10  N1  UNL     1      19.470   0.371  52.216  1.00  0.00    -0.383 N 
HETATM   11  C14 UNL     1      19.249   1.550  51.410  1.00  0.00     0.125 C 
HETATM   12  C15 UNL     1      19.527   1.446  49.971  1.00  0.00     0.046 C 
HETATM   13  C16 UNL     1      20.822   0.827  49.556  1.00  0.00     0.177 C 
HETATM   14  O2  UNL     1      21.934   1.346  50.276  1.00  0.00    -0.351 OA
HETATM   15  C17 UNL     1      22.504   1.011  51.506  1.00  0.00     0.073 C 
HETATM   16  C18 UNL     1      23.640   1.627  51.816  1.00  0.00     0.021 C 
HETATM   17  C19 UNL     1      24.937   2.406  52.045  1.00  0.00     0.064 A 
HETATM   18  C20 UNL     1      24.973   3.151  53.332  1.00  0.00     0.070 A 
HETATM   19  C21 UNL     1      25.486   1.739  53.277  1.00  0.00     0.022 A 
HETATM   20  N2  UNL     1      25.958   0.522  53.064  1.00  0.00    -0.261 NA
ENDROOT
BRANCH   1  21
HETATM   21  C5  UNL     1      27.292   0.218  54.567  1.00  0.00     0.027 C 
BRANCH  21  22
HETATM   22  C4  UNL     1      28.585  -0.001  54.863  1.00  0.00     0.002 C 
BRANCH  22  23
HETATM   23  C3  UNL     1      29.455   0.316  53.767  1.00  0.00    -0.002 C 
HETATM   24  C2  UNL     1      29.719  -0.838  53.213  1.00  0.00     0.004 C 
BRANCH  24  25
HETATM   25  C1  UNL     1      29.368  -2.233  53.432  1.00  0.00     0.249 C 
HETATM   26  F1  UNL     1      28.193  -2.565  52.799  1.00  0.00    -0.251 F 
ENDBRANCH  24  25
ENDBRANCH  22  23
ENDBRANCH  21  22
ENDBRANCH   1  21
TORSDOF 4
ENDMDL
MODEL 2
REMARK VINA RESULT:      -8.3      1.520      1.884
REMARK  4 active torsions:
REMARK  status: ('A' for Active; 'I' for Inactive)
REMARK    1  A    between atoms: C1_2  and  C2_3 
REMARK    2  A    between atoms: C3_4  and  C4_5 
REMARK    3  A    between atoms: C4_5  and  C5_6 
REMARK    4  A    between atoms: C5_6  and  C6_7 
ROOT
HETATM    1  C6  UNL     1      24.901  -0.489  53.963  1.00  0.00     0.040 C 
HETATM    2  C7  UNL     1      23.563  -0.900  54.200  1.00  0.00     0.059 C 
HETATM    3  O1  UNL     1      22.870  -0.557  53.113  1.00  0.00     0.000 OA
HETATM    4  C8  UNL     1      21.587  -0.500  52.640  1.00  0.00     0.048 C 
HETATM    5  C9  UNL     1      21.314   0.560  51.652  1.00  0.00    -0.002 C 
HETATM    6  C10 UNL     1      19.951   0.557  51.750  1.00  0.00     0.016 C 
HETATM    7  C11 UNL     1      19.162  -0.313  52.627  1.00  0.00     0.059 C 
HETATM    8  C12 UNL     1      17.791  -0.342  51.964  1.00  0.00     0.026 C 
HETATM    9  C13 UNL     1      17.624   0.896  51.156  1.00  0.00     0.123 C 
HETATM   10  N1  UNL     1      18.982   1.396  51.058  1.00  0.00    -0.383 N 
HETATM   11  C14 UNL     1      19.094   2.621  50.300  1.00  0.00     0.125 C 
HETATM   12  C15 UNL     1      19.536   2.513  48.903  1.00  0.00     0.046 C 
HETATM   13  C16 UNL     1      20.735   1.669  48.616  1.00  0.00     0.177 C 
HETATM   14  O2  UNL     1      21.820   1.939  49.497  1.00  0.00    -0.351 OA
HETATM   15  C17 UNL     1      22.149   1.460  50.767  1.00  0.00     0.073 C 
HETATM   16  C18 UNL     1      23.328   1.834  51.250  1.00  0.00     0.021 C 
HETATM   17  C19 UNL     1      24.707   2.339  51.683  1.00  0.00     0.064 A 
HETATM   18  C20 UNL     1      24.711   3.021  53.005  1.00  0.00     0.070 A 
HETATM   19  C21 UNL     1      24.952   1.539  52.932  1.00  0.00     0.022 A 
HETATM   20  N2  UNL     1      25.212   0.261  52.709  1.00  0.00    -0.261 NA
ENDROOT
BRANCH   1  21
HETATM   21  C5  UNL     1      26.255  -0.345  54.345  1.00  0.00     0.027 C 
BRANCH  21  22
HETATM   22  C4  UNL     1      27.276   0.322  54.908  1.00  0.00     0.002 C 
BRANCH  22  23
HETATM   23  C3  UNL     1      28.547  -0.076  54.373  1.00  0.00    -0.002 C 
HETATM   24  C2  UNL     1      29.042   1.017  53.854  1.00  0.00     0.004 C 
BRANCH  24  25
HETATM   25  C1  UNL     1      28.640   2.407  53.708  1.00  0.00     0.249 C 
HETATM   26  F1  UNL     1      27.990   2.624  52.516  1.00  0.00    -0.251 F 
ENDBRANCH  24  25
ENDBRANCH  22  23
ENDBRANCH  21  22
ENDBRANCH   1  21
TORSDOF 4
ENDMDL
MODEL 3
REMARK VINA RESULT:      -8.0      2.007      3.567
REMARK  4 active torsions:
REMARK  status: ('A' for Active; 'I' for Inactive)
REMARK    1  A    between atoms: C1_2  and  C2_3 
REMARK    2  A    between atoms: C3_4  and  C4_5 
REMARK    3  A    between atoms: C4_5  and  C5_6 
REMARK    4  A    between atoms: C5_6  and  C6_7 
ROOT
HETATM    1  C6  UNL     1      27.172   2.128  52.434  1.00  0.00     0.040 C 
HETATM    2  C7  UNL     1      26.722   2.582  51.166  1.00  0.00     0.059 C 
HETATM    3  O1  UNL     1      25.392   2.657  51.248  1.00  0.00     0.000 OA
HETATM    4  C8  UNL     1      24.286   2.877  50.473  1.00  0.00     0.048 C 
HETATM    5  C9  UNL     1      23.051   2.199  50.909  1.00  0.00    -0.002 C 
HETATM    6  C10 UNL     1      22.355   2.312  49.739  1.00  0.00     0.016 C 
HETATM    7  C11 UNL     1      22.846   2.951  48.514  1.00  0.00     0.059 C 
HETATM    8  C12 UNL     1      21.571   3.319  47.766  1.00  0.00     0.026 C 
HETATM    9  C13 UNL     1      20.480   2.408  48.204  1.00  0.00     0.123 C 
HETATM   10  N1  UNL     1      21.021   1.826  49.417  1.00  0.00    -0.383 N 
HETATM   11  C14 UNL     1      20.130   0.883  50.054  1.00  0.00     0.125 C 
HETATM   12  C15 UNL     1      19.344   1.363  51.198  1.00  0.00     0.046 C 
HETATM   13  C16 UNL     1      20.061   2.127  52.263  1.00  0.00     0.177 C 
HETATM   14  O2  UNL     1      21.267   1.494  52.675  1.00  0.00    -0.351 OA
HETATM   15  C17 UNL     1      22.571   1.530  52.179  1.00  0.00     0.073 C 
HETATM   16  C18 UNL     1      23.495   0.909  52.904  1.00  0.00     0.021 C 
HETATM   17  C19 UNL     1      24.452   0.159  53.834  1.00  0.00     0.064 A 
HETATM   18  C20 UNL     1      25.258  -0.888  53.150  1.00  0.00     0.070 A 
HETATM   19  C21 UNL     1      25.792   0.513  53.250  1.00  0.00     0.022 A 
HETATM   20  N2  UNL     1      26.159   1.765  53.469  1.00  0.00    -0.261 NA
ENDROOT
BRANCH   1  21
HETATM   21  C5  UNL     1      28.187   1.738  53.337  1.00  0.00     0.027 C 
BRANCH  21  22
HETATM   22  C4  UNL     1      28.792   0.857  54.152  1.00  0.00     0.002 C 
BRANCH  22  23
HETATM   23  C3  UNL     1      30.066   0.432  53.644  1.00  0.00    -0.002 C 
HETATM   24  C2  UNL     1      29.888  -0.822  53.320  1.00  0.00     0.004 C 
BRANCH  24  25
HETATM   25  C1  UNL     1      28.803  -1.791  53.355  1.00  0.00     0.249 C 
HETATM   26  F1  UNL     1      29.276  -3.077  53.463  1.00  0.00    -0.251 F 
ENDBRANCH  24  25
ENDBRANCH  22  23
ENDBRANCH  21  22
ENDBRANCH   1  21
TORSDOF 4
ENDMDL
MODEL 4
REMARK VINA RESULT:      -8.0      4.185      7.144
REMARK  4 active torsions:
REMARK  status: ('A' for Active; 'I' for Inactive)
REMARK    1  A    between atoms: C1_2  and  C2_3 
REMARK    2  A    between atoms: C3_4  and  C4_5 
REMARK    3  A    between atoms: C4_5  and  C5_6 
REMARK    4  A    between atoms: C5_6  and  C6_7 
ROOT
HETATM    1  C6  UNL     1      24.663   0.858  52.506  1.00  0.00     0.040 C 
HETATM    2  C7  UNL     1      25.738   1.237  51.658  1.00  0.00     0.059 C 
HETATM    3  O1  UNL     1      25.623   2.554  51.478  1.00  0.00     0.000 OA
HETATM    4  C8  UNL     1      26.155   3.581  50.747  1.00  0.00     0.048 C 
HETATM    5  C9  UNL     1      25.239   4.695  50.442  1.00  0.00    -0.002 C 
HETATM    6  C10 UNL     1      25.960   5.254  49.425  1.00  0.00     0.016 C 
HETATM    7  C11 UNL     1      27.244   4.761  48.920  1.00  0.00     0.059 C 
HETATM    8  C12 UNL     1      27.864   5.985  48.258  1.00  0.00     0.026 C 
HETATM    9  C13 UNL     1      26.773   6.912  47.852  1.00  0.00     0.123 C 
HETATM   10  N1  UNL     1      25.637   6.413  48.604  1.00  0.00    -0.383 N 
HETATM   11  C14 UNL     1      24.422   7.163  48.382  1.00  0.00     0.125 C 
HETATM   12  C15 UNL     1      24.050   8.162  49.393  1.00  0.00     0.046 C 
HETATM   13  C16 UNL     1      24.094   7.748  50.829  1.00  0.00     0.177 C 
HETATM   14  O2  UNL     1      23.457   6.496  51.059  1.00  0.00    -0.351 OA
HETATM   15  C17 UNL     1      23.904   5.177  50.967  1.00  0.00     0.073 C 
HETATM   16  C18 UNL     1      23.064   4.239  51.392  1.00  0.00     0.021 C 
HETATM   17  C19 UNL     1      22.002   3.267  51.913  1.00  0.00     0.064 A 
HETATM   18  C20 UNL     1      21.649   2.189  50.951  1.00  0.00     0.070 A 
HETATM   19  C21 UNL     1      22.759   1.968  51.941  1.00  0.00     0.022 A 
HETATM   20  N2  UNL     1      23.662   1.892  52.904  1.00  0.00    -0.261 NA
ENDROOT
BRANCH   1  21
HETATM   21  C5  UNL     1      23.910  -0.099  53.223  1.00  0.00     0.027 C 
BRANCH  21  22
HETATM   22  C4  UNL     1      22.925  -1.007  53.339  1.00  0.00     0.002 C 
BRANCH  22  23
HETATM   23  C3  UNL     1      22.507  -1.184  54.701  1.00  0.00    -0.002 C 
HETATM   24  C2  UNL     1      21.289  -0.709  54.734  1.00  0.00     0.004 C 
BRANCH  24  25
HETATM   25  C1  UNL     1      20.353  -0.102  53.801  1.00  0.00     0.249 C 
HETATM   26  F1  UNL     1      20.300   1.264  53.953  1.00  0.00    -0.251 F 
ENDBRANCH  24  25
ENDBRANCH  22  23
ENDBRANCH  21  22
ENDBRANCH   1  21
TORSDOF 4
ENDMDL
MODEL 5
REMARK VINA RESULT:      -8.0      4.010      5.326
REMARK  4 active torsions:
REMARK  status: ('A' for Active; 'I' for Inactive)
REMARK    1  A    between atoms: C1_2  and  C2_3 
REMARK    2  A    between atoms: C3_4  and  C4_5 
REMARK    3  A    between atoms: C4_5  and  C5_6 
REMARK    4  A    between atoms: C5_6  and  C6_7 
ROOT
HETATM    1  C6  UNL     1      26.515   3.412  50.074  1.00  0.00     0.040 C 
HETATM    2  C7  UNL     1      26.612   2.504  51.162  1.00  0.00     0.059 C 
HETATM    3  O1  UNL     1      25.432   1.886  51.237  1.00  0.00     0.000 OA
HETATM    4  C8  UNL     1      24.729   1.022  52.031  1.00  0.00     0.048 C 
HETATM    5  C9  UNL     1      23.264   1.185  52.018  1.00  0.00    -0.002 C 
HETATM    6  C10 UNL     1      22.990   0.491  53.163  1.00  0.00     0.016 C 
HETATM    7  C11 UNL     1      23.983  -0.159  54.023  1.00  0.00     0.059 C 
HETATM    8  C12 UNL     1      23.177  -1.218  54.764  1.00  0.00     0.026 C 
HETATM    9  C13 UNL     1      21.753  -0.789  54.810  1.00  0.00     0.123 C 
HETATM   10  N1  UNL     1      21.704   0.255  53.804  1.00  0.00    -0.383 N 
HETATM   11  C14 UNL     1      20.395   0.847  53.648  1.00  0.00     0.125 C 
HETATM   12  C15 UNL     1      19.572   0.380  52.525  1.00  0.00     0.046 C 
HETATM   13  C16 UNL     1      20.216   0.297  51.179  1.00  0.00     0.177 C 
HETATM   14  O2  UNL     1      20.951   1.471  50.848  1.00  0.00    -0.351 OA
HETATM   15  C17 UNL     1      22.257   1.878  51.125  1.00  0.00     0.073 C 
HETATM   16  C18 UNL     1      22.663   2.998  50.537  1.00  0.00     0.021 C 
HETATM   17  C19 UNL     1      22.997   4.296  49.797  1.00  0.00     0.064 A 
HETATM   18  C20 UNL     1      23.508   5.377  50.681  1.00  0.00     0.070 A 
HETATM   19  C21 UNL     1      24.476   4.420  50.043  1.00  0.00     0.022 A 
HETATM   20  N2  UNL     1      25.208   3.550  49.367  1.00  0.00    -0.261 NA
ENDROOT
BRANCH   1  21
HETATM   21  C5  UNL     1      27.041   4.417  49.230  1.00  0.00     0.027 C 
BRANCH  21  22
HETATM   22  C4  UNL     1      28.026   4.987  48.515  1.00  0.00     0.002 C 
BRANCH  22  23
HETATM   23  C3  UNL     1      27.733   6.352  48.179  1.00  0.00    -0.002 C 
HETATM   24  C2  UNL     1      28.897   6.877  47.899  1.00  0.00     0.004 C 
BRANCH  24  25
HETATM   25  C1  UNL     1      30.284   6.440  47.856  1.00  0.00     0.249 C 
HETATM   26  F1  UNL     1      30.951   6.758  49.015  1.00  0.00    -0.251 F 
ENDBRANCH  24  25
ENDBRANCH  22  23
ENDBRANCH  21  22
ENDBRANCH   1  21
TORSDOF 4
ENDMDL
MODEL 6
REMARK VINA RESULT:      -7.5      4.128      5.990
REMARK  4 active torsions:
REMARK  status: ('A' for Active; 'I' for Inactive)
REMARK    1  A    between atoms: C1_2  and  C2_3 
REMARK    2  A    between atoms: C3_4  and  C4_5 
REMARK    3  A    between atoms: C4_5  and  C5_6 
REMARK    4  A    between atoms: C5_6  and  C6_7 
ROOT
HETATM    1  C6  UNL     1      26.117   1.822  51.837  1.00  0.00     0.040 C 
HETATM    2  C7  UNL     1      26.613   2.699  50.835  1.00  0.00     0.059 C 
HETATM    3  O1  UNL     1      25.777   3.737  50.801  1.00  0.00     0.000 OA
HETATM    4  C8  UNL     1      25.508   4.867  50.079  1.00  0.00     0.048 C 
HETATM    5  C9  UNL     1      24.098   5.297  50.059  1.00  0.00    -0.002 C 
HETATM    6  C10 UNL     1      24.172   6.128  48.978  1.00  0.00     0.016 C 
HETATM    7  C11 UNL     1      25.380   6.396  48.191  1.00  0.00     0.059 C 
HETATM    8  C12 UNL     1      25.091   7.741  47.536  1.00  0.00     0.026 C 
HETATM    9  C13 UNL     1      23.616   7.916  47.436  1.00  0.00     0.123 C 
HETATM   10  N1  UNL     1      23.114   6.903  48.344  1.00  0.00    -0.383 N 
HETATM   11  C14 UNL     1      21.672   6.868  48.431  1.00  0.00     0.125 C 
HETATM   12  C15 UNL     1      21.048   7.534  49.582  1.00  0.00     0.046 C 
HETATM   13  C16 UNL     1      21.610   7.252  50.938  1.00  0.00     0.177 C 
HETATM   14  O2  UNL     1      21.808   5.862  51.171  1.00  0.00    -0.351 OA
HETATM   15  C17 UNL     1      22.860   4.993  50.875  1.00  0.00     0.073 C 
HETATM   16  C18 UNL     1      22.764   3.763  51.367  1.00  0.00     0.021 C 
HETATM   17  C19 UNL     1      22.526   2.386  51.992  1.00  0.00     0.064 A 
HETATM   18  C20 UNL     1      22.611   1.262  51.022  1.00  0.00     0.070 A 
HETATM   19  C21 UNL     1      23.846   1.705  51.754  1.00  0.00     0.022 A 
HETATM   20  N2  UNL     1      24.830   2.160  52.514  1.00  0.00    -0.261 NA
ENDROOT
BRANCH   1  21
HETATM   21  C5  UNL     1      26.165   0.630  52.595  1.00  0.00     0.027 C 
BRANCH  21  22
HETATM   22  C4  UNL     1      26.806  -0.309  53.313  1.00  0.00     0.002 C 
BRANCH  22  23
HETATM   23  C3  UNL     1      27.172   0.161  54.619  1.00  0.00    -0.002 C 
HETATM   24  C2  UNL     1      28.479   0.138  54.620  1.00  0.00     0.004 C 
BRANCH  24  25
HETATM   25  C1  UNL     1      29.543  -0.221  53.695  1.00  0.00     0.249 C 
HETATM   26  F1  UNL     1      29.926  -1.532  53.848  1.00  0.00    -0.251 F 
ENDBRANCH  24  25
ENDBRANCH  22  23
ENDBRANCH  21  22
ENDBRANCH   1  21
TORSDOF 4
ENDMDL
MODEL 7
REMARK VINA RESULT:      -7.2      5.635      7.777
REMARK  4 active torsions:
REMARK  status: ('A' for Active; 'I' for Inactive)
REMARK    1  A    between atoms: C1_2  and  C2_3 
REMARK    2  A    between atoms: C3_4  and  C4_5 
REMARK    3  A    between atoms: C4_5  and  C5_6 
REMARK    4  A    between atoms: C5_6  and  C6_7 
ROOT
HETATM    1  C6  UNL     1      26.822   6.053  48.439  1.00  0.00     0.040 C 
HETATM    2  C7  UNL     1      27.508   4.942  48.999  1.00  0.00     0.059 C 
HETATM    3  O1  UNL     1      26.567   4.071  49.367  1.00  0.00     0.000 OA
HETATM    4  C8  UNL     1      26.411   2.893  50.045  1.00  0.00     0.048 C 
HETATM    5  C9  UNL     1      25.117   2.711  50.727  1.00  0.00    -0.002 C 
HETATM    6  C10 UNL     1      25.491   1.701  51.568  1.00  0.00     0.016 C 
HETATM    7  C11 UNL     1      26.825   1.099  51.635  1.00  0.00     0.059 C 
HETATM    8  C12 UNL     1      26.570  -0.272  52.248  1.00  0.00     0.026 C 
HETATM    9  C13 UNL     1      25.319  -0.211  53.051  1.00  0.00     0.123 C 
HETATM   10  N1  UNL     1      24.703   1.017  52.584  1.00  0.00    -0.383 N 
HETATM   11  C14 UNL     1      23.441   1.311  53.223  1.00  0.00     0.125 C 
HETATM   12  C15 UNL     1      22.216   0.973  52.486  1.00  0.00     0.046 C 
HETATM   13  C16 UNL     1      22.128   1.391  51.055  1.00  0.00     0.177 C 
HETATM   14  O2  UNL     1      22.512   2.747  50.854  1.00  0.00    -0.351 OA
HETATM   15  C17 UNL     1      23.751   3.359  50.654  1.00  0.00     0.073 C 
HETATM   16  C18 UNL     1      23.728   4.655  50.363  1.00  0.00     0.021 C 
HETATM   17  C19 UNL     1      23.555   6.141  50.037  1.00  0.00     0.064 A 
HETATM   18  C20 UNL     1      24.342   7.045  50.917  1.00  0.00     0.070 A 
HETATM   19  C21 UNL     1      24.951   6.535  49.640  1.00  0.00     0.022 A 
HETATM   20  N2  UNL     1      25.329   6.063  48.464  1.00  0.00    -0.261 NA
ENDROOT
BRANCH   1  21
HETATM   21  C5  UNL     1      26.788   7.335  47.843  1.00  0.00     0.027 C 
BRANCH  21  22
HETATM   22  C4  UNL     1      27.268   8.293  47.033  1.00  0.00     0.002 C 
BRANCH  22  23
HETATM   23  C3  UNL     1      28.550   7.949  46.485  1.00  0.00    -0.002 C 
HETATM   24  C2  UNL     1      28.484   8.327  45.235  1.00  0.00     0.004 C 
BRANCH  24  25
HETATM   25  C1  UNL     1      27.507   8.954  44.359  1.00  0.00     0.249 C 
HETATM   26  F1  UNL     1      26.701   8.022  43.751  1.00  0.00    -0.251 F 
ENDBRANCH  24  25
ENDBRANCH  22  23
ENDBRANCH  21  22
ENDBRANCH   1  21
TORSDOF 4
ENDMDL
MODEL 8
REMARK VINA RESULT:      -7.1      4.304      6.266
REMARK  4 active torsions:
REMARK  status: ('A' for Active; 'I' for Inactive)
REMARK    1  A    between atoms: C1_2  and  C2_3 
REMARK    2  A    between atoms: C3_4  and  C4_5 
REMARK    3  A    between atoms: C4_5  and  C5_6 
REMARK    4  A    between atoms: C5_6  and  C6_7 
ROOT
HETATM    1  C6  UNL     1      25.577   4.513  49.753  1.00  0.00     0.040 C 
HETATM    2  C7  UNL     1      25.997   3.512  50.667  1.00  0.00     0.059 C 
HETATM    3  O1  UNL     1      24.945   2.713  50.855  1.00  0.00     0.000 OA
HETATM    4  C8  UNL     1      24.526   1.665  51.627  1.00  0.00     0.048 C 
HETATM    5  C9  UNL     1      23.076   1.599  51.888  1.00  0.00    -0.002 C 
HETATM    6  C10 UNL     1      23.119   0.743  52.953  1.00  0.00     0.016 C 
HETATM    7  C11 UNL     1      24.334   0.160  53.529  1.00  0.00     0.059 C 
HETATM    8  C12 UNL     1      23.831  -1.090  54.240  1.00  0.00     0.026 C 
HETATM    9  C13 UNL     1      22.398  -0.896  54.589  1.00  0.00     0.123 C 
HETATM   10  N1  UNL     1      22.021   0.237  53.765  1.00  0.00    -0.383 N 
HETATM   11  C14 UNL     1      20.640   0.632  53.921  1.00  0.00     0.125 C 
HETATM   12  C15 UNL     1      19.687   0.177  52.900  1.00  0.00     0.046 C 
HETATM   13  C16 UNL     1      20.068   0.351  51.466  1.00  0.00     0.177 C 
HETATM   14  O2  UNL     1      20.566   1.654  51.185  1.00  0.00    -0.351 OA
HETATM   15  C17 UNL     1      21.836   2.225  51.289  1.00  0.00     0.073 C 
HETATM   16  C18 UNL     1      21.971   3.455  50.804  1.00  0.00     0.021 C 
HETATM   17  C19 UNL     1      21.985   4.866  50.211  1.00  0.00     0.064 A 
HETATM   18  C20 UNL     1      22.507   5.904  51.138  1.00  0.00     0.070 A 
HETATM   19  C21 UNL     1      23.453   5.189  50.215  1.00  0.00     0.022 A 
HETATM   20  N2  UNL     1      24.152   4.528  49.306  1.00  0.00    -0.261 NA
ENDROOT
BRANCH   1  21
HETATM   21  C5  UNL     1      25.795   5.679  48.982  1.00  0.00     0.027 C 
BRANCH  21  22
HETATM   22  C4  UNL     1      26.209   6.946  48.817  1.00  0.00     0.002 C 
BRANCH  22  23
HETATM   23  C3  UNL     1      26.120   7.709  50.030  1.00  0.00    -0.002 C 
HETATM   24  C2  UNL     1      25.159   8.567  49.808  1.00  0.00     0.004 C 
BRANCH  24  25
HETATM   25  C1  UNL     1      24.249   8.895  48.721  1.00  0.00     0.249 C 
HETATM   26  F1  UNL     1      23.044   8.248  48.858  1.00  0.00    -0.251 F 
ENDBRANCH  24  25
ENDBRANCH  22  23
ENDBRANCH  21  22
ENDBRANCH   1  21
TORSDOF 4
ENDMDL
MODEL 9
REMARK VINA RESULT:      -7.1      2.240      4.141
REMARK  4 active torsions:
REMARK  status: ('A' for Active; 'I' for Inactive)
REMARK    1  A    between atoms: C1_2  and  C2_3 
REMARK    2  A    between atoms: C3_4  and  C4_5 
REMARK    3  A    between atoms: C4_5  and  C5_6 
REMARK    4  A    between atoms: C5_6  and  C6_7 
ROOT
HETATM    1  C6  UNL     1      24.593   1.300  52.438  1.00  0.00     0.040 C 
HETATM    2  C7  UNL     1      24.425   1.699  51.086  1.00  0.00     0.059 C 
HETATM    3  O1  UNL     1      23.206   2.235  51.005  1.00  0.00     0.000 OA
HETATM    4  C8  UNL     1      22.308   2.710  50.089  1.00  0.00     0.048 C 
HETATM    5  C9  UNL     1      20.886   2.565  50.448  1.00  0.00    -0.002 C 
HETATM    6  C10 UNL     1      20.360   2.745  49.200  1.00  0.00     0.016 C 
HETATM    7  C11 UNL     1      21.131   2.998  47.979  1.00  0.00     0.059 C 
HETATM    8  C12 UNL     1      20.127   3.672  47.054  1.00  0.00     0.026 C 
HETATM    9  C13 UNL     1      18.755   3.261  47.456  1.00  0.00     0.123 C 
HETATM   10  N1  UNL     1      18.966   2.705  48.779  1.00  0.00    -0.383 N 
HETATM   11  C14 UNL     1      17.756   2.224  49.405  1.00  0.00     0.125 C 
HETATM   12  C15 UNL     1      17.112   3.099  50.392  1.00  0.00     0.046 C 
HETATM   13  C16 UNL     1      17.975   3.713  51.446  1.00  0.00     0.177 C 
HETATM   14  O2  UNL     1      18.846   2.769  52.060  1.00  0.00    -0.351 OA
HETATM   15  C17 UNL     1      20.110   2.286  51.717  1.00  0.00     0.073 C 
HETATM   16  C18 UNL     1      20.699   1.494  52.607  1.00  0.00     0.021 C 
HETATM   17  C19 UNL     1      21.259   0.598  53.715  1.00  0.00     0.064 A 
HETATM   18  C20 UNL     1      21.688  -0.746  53.244  1.00  0.00     0.070 A 
HETATM   19  C21 UNL     1      22.676   0.387  53.256  1.00  0.00     0.022 A 
HETATM   20  N2  UNL     1      23.447   1.455  53.382  1.00  0.00    -0.261 NA
ENDROOT
BRANCH   1  21
HETATM   21  C5  UNL     1      25.337   0.716  53.490  1.00  0.00     0.027 C 
BRANCH  21  22
HETATM   22  C4  UNL     1      26.286  -0.102  53.976  1.00  0.00     0.002 C 
BRANCH  22  23
HETATM   23  C3  UNL     1      26.760  -1.031  52.989  1.00  0.00    -0.002 C 
HETATM   24  C2  UNL     1      28.061  -1.008  53.117  1.00  0.00     0.004 C 
BRANCH  24  25
HETATM   25  C1  UNL     1      29.042  -0.325  53.947  1.00  0.00     0.249 C 
HETATM   26  F1  UNL     1      30.271  -0.938  53.887  1.00  0.00    -0.251 F 
ENDBRANCH  24  25
ENDBRANCH  22  23
ENDBRANCH  21  22
ENDBRANCH   1  21
TORSDOF 4
ENDMDL
