MODEL 1
REMARK VINA RESULT:      -8.5      0.000      0.000
REMARK  8 active torsions:
REMARK  status: ('A' for Active; 'I' for Inactive)
REMARK    1  A    between atoms: C4_5  and  O1_6 
REMARK    2  A    between atoms: C5_7  and  C6_8 
REMARK    3  A    between atoms: C6_8  and  O2_9 
REMARK    4  A    between atoms: O2_9  and  C7_10 
REMARK    5  A    between atoms: C7_10  and  C8_11 
REMARK    6  A    between atoms: C8_11  and  N2_12 
REMARK    7  A    between atoms: C17_22  and  N4_23 
REMARK    8  A    between atoms: N4_23  and  C18_24 
ROOT
HETATM    1  C1  UNL     1      22.049   4.765  52.294  1.00  0.00     0.179 C 
HETATM    2  N1  UNL     1      23.123   4.062  51.688  1.00  0.00    -0.278 NA
HETATM    3  C2  UNL     1      24.072   4.582  50.949  1.00  0.00     0.126 C 
HETATM    4  C3  UNL     1      23.870   6.024  50.829  1.00  0.00     0.087 C 
HETATM    5  C4  UNL     1      24.784   6.677  50.081  1.00  0.00     0.077 C 
HETATM    6  C5  UNL     1      25.968   6.304  49.293  1.00  0.00    -0.005 C 
HETATM    7  C14 UNL     1      26.584   5.143  48.964  1.00  0.00    -0.011 C 
HETATM    8  C15 UNL     1      26.201   3.792  49.315  1.00  0.00     0.058 C 
HETATM    9  C16 UNL     1      26.793   3.195  50.508  1.00  0.00     0.025 C 
HETATM   10  C17 UNL     1      25.782   2.918  51.355  1.00  0.00     0.103 C 
HETATM   11  N5  UNL     1      24.402   3.239  50.979  1.00  0.00    -0.328 N 
HETATM   12  H31 UNL     1      24.277   2.231  50.888  1.00  0.00     0.169 HD
ENDROOT
BRANCH   6  13
HETATM   13  C6  UNL     1      26.634   7.546  48.731  1.00  0.00     0.209 C 
BRANCH  13  14
HETATM   14  O2  UNL     1      27.289   8.260  49.696  1.00  0.00    -0.385 OA
BRANCH  14  15
HETATM   15  C7  UNL     1      28.417   8.926  49.332  1.00  0.00     0.187 C 
BRANCH  15  16
HETATM   16  C8  UNL     1      29.130   8.459  48.116  1.00  0.00     0.143 C 
BRANCH  16  17
HETATM   17  N2  UNL     1      30.301   7.702  48.290  1.00  0.00    -0.407 N 
HETATM   18  C9  UNL     1      31.461   8.030  47.566  1.00  0.00     0.147 C 
HETATM   19  C10 UNL     1      32.561   7.056  47.954  1.00  0.00     0.291 C 
HETATM   20  N3  UNL     1      32.170   5.789  47.364  1.00  0.00     0.087 N 
HETATM   21  C11 UNL     1      33.191   4.814  47.624  1.00  0.00     0.310 C 
HETATM   22  C12 UNL     1      30.856   5.369  47.735  1.00  0.00     0.291 C 
HETATM   23  C13 UNL     1      30.132   6.331  48.640  1.00  0.00     0.147 C 
ENDBRANCH  16  17
ENDBRANCH  15  16
ENDBRANCH  14  15
ENDBRANCH  13  14
ENDBRANCH   6  13
BRANCH   5  24
HETATM   24  O1  UNL     1      24.428   8.036  50.104  1.00  0.00    -0.360 OA
HETATM   25  H5  UNL     1      24.986   8.618  50.741  1.00  0.00     0.217 HD
ENDBRANCH   5  24
BRANCH  10  26
HETATM   26  N4  UNL     1      26.285   2.327  52.548  1.00  0.00    -0.343 N 
HETATM   27  H27 UNL     1      25.666   2.797  53.248  1.00  0.00     0.167 HD
BRANCH  26  28
HETATM   28  C18 UNL     1      27.283   1.391  52.937  1.00  0.00     0.035 A 
HETATM   29  C19 UNL     1      28.428   1.871  53.545  1.00  0.00     0.032 A 
HETATM   30  C20 UNL     1      29.322   0.876  53.877  1.00  0.00     0.046 A 
HETATM   31  C21 UNL     1      29.176  -0.478  53.664  1.00  0.00     0.138 A 
HETATM   32  F1  UNL     1      30.159  -1.328  54.054  1.00  0.00    -0.204 F 
HETATM   33  C22 UNL     1      28.012  -0.885  53.052  1.00  0.00     0.074 A 
HETATM   34 CL1  UNL     1      27.786  -2.596  52.763  1.00  0.00    -0.081 Cl
HETATM   35  C23 UNL     1      27.054   0.052  52.684  1.00  0.00     0.056 A 
ENDBRANCH  26  28
ENDBRANCH  10  26
TORSDOF 8
ENDMDL
MODEL 2
REMARK VINA RESULT:      -8.4      1.990      2.471
REMARK  8 active torsions:
REMARK  status: ('A' for Active; 'I' for Inactive)
REMARK    1  A    between atoms: C4_5  and  O1_6 
REMARK    2  A    between atoms: C5_7  and  C6_8 
REMARK    3  A    between atoms: C6_8  and  O2_9 
REMARK    4  A    between atoms: O2_9  and  C7_10 
REMARK    5  A    between atoms: C7_10  and  C8_11 
REMARK    6  A    between atoms: C8_11  and  N2_12 
REMARK    7  A    between atoms: C17_22  and  N4_23 
REMARK    8  A    between atoms: N4_23  and  C18_24 
ROOT
HETATM    1  C1  UNL     1      23.077   6.330  51.552  1.00  0.00     0.179 C 
HETATM    2  N1  UNL     1      24.007   5.670  50.706  1.00  0.00    -0.278 NA
HETATM    3  C2  UNL     1      25.049   6.213  50.124  1.00  0.00     0.126 C 
HETATM    4  C3  UNL     1      25.126   7.629  50.473  1.00  0.00     0.087 C 
HETATM    5  C4  UNL     1      26.159   8.304  49.926  1.00  0.00     0.077 C 
HETATM    6  C5  UNL     1      27.261   7.988  49.006  1.00  0.00    -0.005 C 
HETATM    7  C14 UNL     1      27.650   6.899  48.301  1.00  0.00    -0.011 C 
HETATM    8  C15 UNL     1      27.011   5.602  48.227  1.00  0.00     0.058 C 
HETATM    9  C16 UNL     1      27.462   4.558  49.142  1.00  0.00     0.025 C 
HETATM   10  C17 UNL     1      26.404   4.219  49.906  1.00  0.00     0.103 C 
HETATM   11  N5  UNL     1      25.116   4.893  49.715  1.00  0.00    -0.328 N 
HETATM   12  H31 UNL     1      24.802   4.008  49.318  1.00  0.00     0.169 HD
ENDROOT
BRANCH   6  13
HETATM   13  C6  UNL     1      28.160   9.198  48.833  1.00  0.00     0.209 C 
BRANCH  13  14
HETATM   14  O2  UNL     1      29.061   9.322  49.854  1.00  0.00    -0.385 OA
BRANCH  14  15
HETATM   15  C7  UNL     1      30.352   9.594  49.528  1.00  0.00     0.187 C 
BRANCH  15  16
HETATM   16  C8  UNL     1      30.775   9.344  48.127  1.00  0.00     0.143 C 
BRANCH  16  17
HETATM   17  N2  UNL     1      31.457   8.147  47.848  1.00  0.00    -0.407 N 
HETATM   18  C9  UNL     1      31.049   7.344  46.768  1.00  0.00     0.147 C 
HETATM   19  C10 UNL     1      31.959   6.128  46.704  1.00  0.00     0.291 C 
HETATM   20  N3  UNL     1      31.594   5.321  47.853  1.00  0.00     0.087 N 
HETATM   21  C11 UNL     1      32.363   4.108  47.839  1.00  0.00     0.310 C 
HETATM   22  C12 UNL     1      31.650   6.031  49.090  1.00  0.00     0.291 C 
HETATM   23  C13 UNL     1      32.052   7.476  48.955  1.00  0.00     0.147 C 
ENDBRANCH  16  17
ENDBRANCH  15  16
ENDBRANCH  14  15
ENDBRANCH  13  14
ENDBRANCH   6  13
BRANCH   5  24
HETATM   24  O1  UNL     1      26.067   9.627  50.391  1.00  0.00    -0.360 OA
HETATM   25  H5  UNL     1      26.890  10.213  50.193  1.00  0.00     0.217 HD
ENDBRANCH   5  24
BRANCH  10  26
HETATM   26  N4  UNL     1      26.768   3.198  50.828  1.00  0.00    -0.343 N 
HETATM   27  H27 UNL     1      27.806   3.325  50.827  1.00  0.00     0.167 HD
BRANCH  26  28
HETATM   28  C18 UNL     1      26.134   2.204  51.624  1.00  0.00     0.035 A 
HETATM   29  C19 UNL     1      24.977   2.548  52.298  1.00  0.00     0.032 A 
HETATM   30  C20 UNL     1      24.451   1.509  53.035  1.00  0.00     0.046 A 
HETATM   31  C21 UNL     1      24.955   0.232  53.149  1.00  0.00     0.138 A 
HETATM   32  F1  UNL     1      24.311  -0.678  53.922  1.00  0.00    -0.204 F 
HETATM   33  C22 UNL     1      26.111  -0.041  52.451  1.00  0.00     0.074 A 
HETATM   34 CL1  UNL     1      26.786  -1.650  52.568  1.00  0.00    -0.081 Cl
HETATM   35  C23 UNL     1      26.709   0.950  51.682  1.00  0.00     0.056 A 
ENDBRANCH  26  28
ENDBRANCH  10  26
TORSDOF 8
ENDMDL
MODEL 3
REMARK VINA RESULT:      -8.4      1.162      1.249
REMARK  8 active torsions:
REMARK  status: ('A' for Active; 'I' for Inactive)
REMARK    1  A    between atoms: C4_5  and  O1_6 
REMARK    2  A    between atoms: C5_7  and  C6_8 
REMARK    3  A    between atoms: C6_8  and  O2_9 
REMARK    4  A    between atoms: O2_9  and  C7_10 
REMARK    5  A    between atoms: C7_10  and  C8_11 
REMARK    6  A    between atoms: C8_11  and  N2_12 
REMARK    7  A    between atoms: C17_22  and  N4_23 
REMARK    8  A    between atoms: N4_23  and  C18_24 
ROOT
HETATM    1  C1  UNL     1      21.861   4.496  52.066  1.00  0.00     0.179 C 
HETATM    2  N1  UNL     1      23.012   3.888  51.501  1.00  0.00    -0.278 NA
HETATM    3  C2  UNL     1      23.974   4.497  50.853  1.00  0.00     0.126 C 
HETATM    4  C3  UNL     1      23.695   5.930  50.789  1.00  0.00     0.087 C 
HETATM    5  C4  UNL     1      24.616   6.670  50.136  1.00  0.00     0.077 C 
HETATM    6  C5  UNL     1      25.868   6.404  49.413  1.00  0.00    -0.005 C 
HETATM    7  C14 UNL     1      26.572   5.299  49.072  1.00  0.00    -0.011 C 
HETATM    8  C15 UNL     1      26.247   3.912  49.331  1.00  0.00     0.058 C 
HETATM    9  C16 UNL     1      26.796   3.288  50.532  1.00  0.00     0.025 C 
HETATM   10  C17 UNL     1      25.750   2.911  51.294  1.00  0.00     0.103 C 
HETATM   11  N5  UNL     1      24.380   3.175  50.842  1.00  0.00    -0.328 N 
HETATM   12  H31 UNL     1      24.321   2.167  50.695  1.00  0.00     0.169 HD
ENDROOT
BRANCH   6  13
HETATM   13  C6  UNL     1      26.495   7.709  48.958  1.00  0.00     0.209 C 
BRANCH  13  14
HETATM   14  O2  UNL     1      26.924   8.469  50.010  1.00  0.00    -0.385 OA
BRANCH  14  15
HETATM   15  C7  UNL     1      27.986   9.293  49.803  1.00  0.00     0.187 C 
BRANCH  15  16
HETATM   16  C8  UNL     1      28.511   9.403  48.417  1.00  0.00     0.143 C 
BRANCH  16  17
HETATM   17  N2  UNL     1      29.902   9.339  48.233  1.00  0.00    -0.407 N 
HETATM   18  C9  UNL     1      30.433   8.623  47.146  1.00  0.00     0.147 C 
HETATM   19  C10 UNL     1      31.948   8.728  47.196  1.00  0.00     0.291 C 
HETATM   20  N3  UNL     1      32.347   7.919  48.332  1.00  0.00     0.087 N 
HETATM   21  C11 UNL     1      33.780   7.905  48.419  1.00  0.00     0.310 C 
HETATM   22  C12 UNL     1      31.694   8.282  49.549  1.00  0.00     0.291 C 
HETATM   23  C13 UNL     1      30.707   9.411  49.407  1.00  0.00     0.147 C 
ENDBRANCH  16  17
ENDBRANCH  15  16
ENDBRANCH  14  15
ENDBRANCH  13  14
ENDBRANCH   6  13
BRANCH   5  24
HETATM   24  O1  UNL     1      24.179   8.004  50.200  1.00  0.00    -0.360 OA
HETATM   25  H5  UNL     1      24.861   8.698  49.867  1.00  0.00     0.217 HD
ENDBRANCH   5  24
BRANCH  10  26
HETATM   26  N4  UNL     1      26.209   2.290  52.489  1.00  0.00    -0.343 N 
HETATM   27  H27 UNL     1      25.542   2.715  53.173  1.00  0.00     0.167 HD
BRANCH  26  28
HETATM   28  C18 UNL     1      27.211   1.365  52.894  1.00  0.00     0.035 A 
HETATM   29  C19 UNL     1      28.342   1.860  53.516  1.00  0.00     0.032 A 
HETATM   30  C20 UNL     1      29.243   0.876  53.863  1.00  0.00     0.046 A 
HETATM   31  C21 UNL     1      29.116  -0.480  53.652  1.00  0.00     0.138 A 
HETATM   32  F1  UNL     1      30.103  -1.317  54.057  1.00  0.00    -0.204 F 
HETATM   33  C22 UNL     1      27.964  -0.902  53.025  1.00  0.00     0.074 A 
HETATM   34 CL1  UNL     1      27.762  -2.615  52.737  1.00  0.00    -0.081 Cl
HETATM   35  C23 UNL     1      27.002   0.023  52.641  1.00  0.00     0.056 A 
ENDBRANCH  26  28
ENDBRANCH  10  26
TORSDOF 8
ENDMDL
MODEL 4
REMARK VINA RESULT:      -8.2      1.846      2.221
REMARK  8 active torsions:
REMARK  status: ('A' for Active; 'I' for Inactive)
REMARK    1  A    between atoms: C4_5  and  O1_6 
REMARK    2  A    between atoms: C5_7  and  C6_8 
REMARK    3  A    between atoms: C6_8  and  O2_9 
REMARK    4  A    between atoms: O2_9  and  C7_10 
REMARK    5  A    between atoms: C7_10  and  C8_11 
REMARK    6  A    between atoms: C8_11  and  N2_12 
REMARK    7  A    between atoms: C17_22  and  N4_23 
REMARK    8  A    between atoms: N4_23  and  C18_24 
ROOT
HETATM    1  C1  UNL     1      22.087   3.870  51.442  1.00  0.00     0.179 C 
HETATM    2  N1  UNL     1      23.247   3.729  50.636  1.00  0.00    -0.278 NA
HETATM    3  C2  UNL     1      24.113   4.671  50.350  1.00  0.00     0.126 C 
HETATM    4  C3  UNL     1      23.711   5.921  50.991  1.00  0.00     0.087 C 
HETATM    5  C4  UNL     1      24.524   6.974  50.764  1.00  0.00     0.077 C 
HETATM    6  C5  UNL     1      25.746   7.220  49.985  1.00  0.00    -0.005 C 
HETATM    7  C14 UNL     1      26.517   6.493  49.142  1.00  0.00    -0.011 C 
HETATM    8  C15 UNL     1      26.327   5.127  48.703  1.00  0.00     0.058 C 
HETATM    9  C16 UNL     1      27.000   4.064  49.444  1.00  0.00     0.025 C 
HETATM   10  C17 UNL     1      26.039   3.262  49.944  1.00  0.00     0.103 C 
HETATM   11  N5  UNL     1      24.626   3.566  49.695  1.00  0.00    -0.328 N 
HETATM   12  H31 UNL     1      24.642   2.753  49.080  1.00  0.00     0.169 HD
ENDROOT
BRANCH   6  13
HETATM   13  C6  UNL     1      26.232   8.640  50.209  1.00  0.00     0.209 C 
BRANCH  13  14
HETATM   14  O2  UNL     1      27.587   8.749  50.062  1.00  0.00    -0.385 OA
BRANCH  14  15
HETATM   15  C7  UNL     1      28.069   9.876  49.471  1.00  0.00     0.187 C 
BRANCH  15  16
HETATM   16  C8  UNL     1      28.661   9.742  48.116  1.00  0.00     0.143 C 
BRANCH  16  17
HETATM   17  N2  UNL     1      30.040   9.491  48.022  1.00  0.00    -0.407 N 
HETATM   18  C9  UNL     1      30.529   8.629  47.024  1.00  0.00     0.147 C 
HETATM   19  C10 UNL     1      32.041   8.549  47.158  1.00  0.00     0.291 C 
HETATM   20  N3  UNL     1      32.274   7.790  48.372  1.00  0.00     0.087 N 
HETATM   21  C11 UNL     1      33.687   7.605  48.547  1.00  0.00     0.310 C 
HETATM   22  C12 UNL     1      31.612   8.328  49.517  1.00  0.00     0.291 C 
HETATM   23  C13 UNL     1      30.787   9.557  49.234  1.00  0.00     0.147 C 
ENDBRANCH  16  17
ENDBRANCH  15  16
ENDBRANCH  14  15
ENDBRANCH  13  14
ENDBRANCH   6  13
BRANCH   5  24
HETATM   24  O1  UNL     1      23.981   8.061  51.471  1.00  0.00    -0.360 OA
HETATM   25  H5  UNL     1      23.282   8.608  50.952  1.00  0.00     0.217 HD
ENDBRANCH   5  24
BRANCH  10  26
HETATM   26  N4  UNL     1      26.622   2.194  50.683  1.00  0.00    -0.343 N 
HETATM   27  H27 UNL     1      27.413   1.952  50.043  1.00  0.00     0.167 HD
BRANCH  26  28
HETATM   28  C18 UNL     1      26.402   1.497  51.903  1.00  0.00     0.035 A 
HETATM   29  C19 UNL     1      25.109   1.125  52.219  1.00  0.00     0.032 A 
HETATM   30  C20 UNL     1      25.016   0.456  53.420  1.00  0.00     0.046 A 
HETATM   31  C21 UNL     1      26.046   0.148  54.282  1.00  0.00     0.138 A 
HETATM   32  F1  UNL     1      25.781  -0.518  55.434  1.00  0.00    -0.204 F 
HETATM   33  C22 UNL     1      27.308   0.550  53.905  1.00  0.00     0.074 A 
HETATM   34 CL1  UNL     1      28.645   0.180  54.970  1.00  0.00    -0.081 Cl
HETATM   35  C23 UNL     1      27.493   1.230  52.708  1.00  0.00     0.056 A 
ENDBRANCH  26  28
ENDBRANCH  10  26
TORSDOF 8
ENDMDL
MODEL 5
REMARK VINA RESULT:      -8.1      3.970      8.015
REMARK  8 active torsions:
REMARK  status: ('A' for Active; 'I' for Inactive)
REMARK    1  A    between atoms: C4_5  and  O1_6 
REMARK    2  A    between atoms: C5_7  and  C6_8 
REMARK    3  A    between atoms: C6_8  and  O2_9 
REMARK    4  A    between atoms: O2_9  and  C7_10 
REMARK    5  A    between atoms: C7_10  and  C8_11 
REMARK    6  A    between atoms: C8_11  and  N2_12 
REMARK    7  A    between atoms: C17_22  and  N4_23 
REMARK    8  A    between atoms: N4_23  and  C18_24 
ROOT
HETATM    1  C1  UNL     1      25.092   6.306  48.346  1.00  0.00     0.179 C 
HETATM    2  N1  UNL     1      25.011   5.695  49.624  1.00  0.00    -0.278 NA
HETATM    3  C2  UNL     1      23.924   5.250  50.206  1.00  0.00     0.126 C 
HETATM    4  C3  UNL     1      22.772   5.473  49.335  1.00  0.00     0.087 C 
HETATM    5  C4  UNL     1      21.585   5.061  49.827  1.00  0.00     0.077 C 
HETATM    6  C5  UNL     1      21.114   4.446  51.076  1.00  0.00    -0.005 C 
HETATM    7  C14 UNL     1      21.682   4.093  52.254  1.00  0.00    -0.011 C 
HETATM    8  C15 UNL     1      23.058   4.256  52.673  1.00  0.00     0.058 C 
HETATM    9  C16 UNL     1      23.980   3.144  52.461  1.00  0.00     0.025 C 
HETATM   10  C17 UNL     1      24.949   3.585  51.634  1.00  0.00     0.103 C 
HETATM   11  N5  UNL     1      24.911   4.962  51.131  1.00  0.00    -0.328 N 
HETATM   12  H31 UNL     1      25.705   5.125  51.749  1.00  0.00     0.169 HD
ENDROOT
BRANCH   6  13
HETATM   13  C6  UNL     1      19.630   4.147  50.984  1.00  0.00     0.209 C 
BRANCH  13  14
HETATM   14  O2  UNL     1      19.203   3.337  52.000  1.00  0.00    -0.385 OA
BRANCH  14  15
HETATM   15  C7  UNL     1      18.519   2.211  51.665  1.00  0.00     0.187 C 
BRANCH  15  16
HETATM   16  C8  UNL     1      19.285   1.102  51.040  1.00  0.00     0.143 C 
BRANCH  16  17
HETATM   17  N2  UNL     1      19.962   0.210  51.888  1.00  0.00    -0.407 N 
HETATM   18  C9  UNL     1      19.339  -0.251  53.062  1.00  0.00     0.147 C 
HETATM   19  C10 UNL     1      20.294  -1.196  53.772  1.00  0.00     0.291 C 
HETATM   20  N3  UNL     1      21.351  -0.348  54.289  1.00  0.00     0.087 N 
HETATM   21  C11 UNL     1      22.275  -1.151  55.039  1.00  0.00     0.310 C 
HETATM   22  C12 UNL     1      21.968   0.468  53.292  1.00  0.00     0.291 C 
HETATM   23  C13 UNL     1      21.384   0.303  51.913  1.00  0.00     0.147 C 
ENDBRANCH  16  17
ENDBRANCH  15  16
ENDBRANCH  14  15
ENDBRANCH  13  14
ENDBRANCH   6  13
BRANCH   5  24
HETATM   24  O1  UNL     1      20.621   5.344  48.845  1.00  0.00    -0.360 OA
HETATM   25  H5  UNL     1      20.478   4.598  48.152  1.00  0.00     0.217 HD
ENDBRANCH   5  24
BRANCH  10  26
HETATM   26  N4  UNL     1      25.892   2.550  51.380  1.00  0.00    -0.343 N 
HETATM   27  H27 UNL     1      25.849   2.529  50.336  1.00  0.00     0.167 HD
BRANCH  26  28
HETATM   28  C18 UNL     1      26.744   1.680  52.116  1.00  0.00     0.035 A 
HETATM   29  C19 UNL     1      26.576   0.317  51.959  1.00  0.00     0.032 A 
HETATM   30  C20 UNL     1      27.454  -0.427  52.717  1.00  0.00     0.046 A 
HETATM   31  C21 UNL     1      28.427   0.049  53.569  1.00  0.00     0.138 A 
HETATM   32  F1  UNL     1      29.212  -0.825  54.246  1.00  0.00    -0.204 F 
HETATM   33  C22 UNL     1      28.537   1.418  53.677  1.00  0.00     0.074 A 
HETATM   34 CL1  UNL     1      29.760   2.065  54.747  1.00  0.00    -0.081 Cl
HETATM   35  C23 UNL     1      27.692   2.244  52.947  1.00  0.00     0.056 A 
ENDBRANCH  26  28
ENDBRANCH  10  26
TORSDOF 8
ENDMDL
MODEL 6
REMARK VINA RESULT:      -8.1      6.055     11.135
REMARK  8 active torsions:
REMARK  status: ('A' for Active; 'I' for Inactive)
REMARK    1  A    between atoms: C4_5  and  O1_6 
REMARK    2  A    between atoms: C5_7  and  C6_8 
REMARK    3  A    between atoms: C6_8  and  O2_9 
REMARK    4  A    between atoms: O2_9  and  C7_10 
REMARK    5  A    between atoms: C7_10  and  C8_11 
REMARK    6  A    between atoms: C8_11  and  N2_12 
REMARK    7  A    between atoms: C17_22  and  N4_23 
REMARK    8  A    between atoms: N4_23  and  C18_24 
ROOT
HETATM    1  C1  UNL     1      23.104   2.848  50.059  1.00  0.00     0.179 C 
HETATM    2  N1  UNL     1      23.160   2.163  51.301  1.00  0.00    -0.278 NA
HETATM    3  C2  UNL     1      22.228   1.390  51.804  1.00  0.00     0.126 C 
HETATM    4  C3  UNL     1      21.092   1.327  50.888  1.00  0.00     0.087 C 
HETATM    5  C4  UNL     1      20.059   0.563  51.299  1.00  0.00     0.077 C 
HETATM    6  C5  UNL     1      19.743  -0.237  52.492  1.00  0.00    -0.005 C 
HETATM    7  C14 UNL     1      20.348  -0.484  53.678  1.00  0.00    -0.011 C 
HETATM    8  C15 UNL     1      21.603   0.041  54.173  1.00  0.00     0.058 C 
HETATM    9  C16 UNL     1      22.814  -0.746  53.953  1.00  0.00     0.025 C 
HETATM   10  C17 UNL     1      23.641   0.005  53.199  1.00  0.00     0.103 C 
HETATM   11  N5  UNL     1      23.224   1.342  52.762  1.00  0.00    -0.328 N 
HETATM   12  H31 UNL     1      23.916   1.687  53.428  1.00  0.00     0.169 HD
ENDROOT
BRANCH   6  13
HETATM   13  C6  UNL     1      18.412  -0.942  52.310  1.00  0.00     0.209 C 
BRANCH  13  14
HETATM   14  O2  UNL     1      17.483  -0.532  53.226  1.00  0.00    -0.385 OA
BRANCH  14  15
HETATM   15  C7  UNL     1      16.179  -0.514  52.839  1.00  0.00     0.187 C 
BRANCH  15  16
HETATM   16  C8  UNL     1      15.717   0.647  52.036  1.00  0.00     0.143 C 
BRANCH  16  17
HETATM   17  N2  UNL     1      14.897   1.598  52.666  1.00  0.00    -0.407 N 
HETATM   18  C9  UNL     1      13.514   1.368  52.778  1.00  0.00     0.147 C 
HETATM   19  C10 UNL     1      12.888   2.549  53.499  1.00  0.00     0.291 C 
HETATM   20  N3  UNL     1      12.949   3.647  52.553  1.00  0.00     0.087 N 
HETATM   21  C11 UNL     1      12.315   4.799  53.128  1.00  0.00     0.310 C 
HETATM   22  C12 UNL     1      14.263   3.896  52.052  1.00  0.00     0.291 C 
HETATM   23  C13 UNL     1      15.315   2.958  52.584  1.00  0.00     0.147 C 
ENDBRANCH  16  17
ENDBRANCH  15  16
ENDBRANCH  14  15
ENDBRANCH  13  14
ENDBRANCH   6  13
BRANCH   5  24
HETATM   24  O1  UNL     1      19.088   0.618  50.285  1.00  0.00    -0.360 OA
HETATM   25  H5  UNL     1      18.135   0.372  50.585  1.00  0.00     0.217 HD
ENDBRANCH   5  24
BRANCH  10  26
HETATM   26  N4  UNL     1      24.851  -0.699  52.943  1.00  0.00    -0.343 N 
HETATM   27  H27 UNL     1      24.457  -1.583  52.547  1.00  0.00     0.167 HD
BRANCH  26  28
HETATM   28  C18 UNL     1      26.252  -0.498  53.084  1.00  0.00     0.035 A 
HETATM   29  C19 UNL     1      27.081  -1.600  53.001  1.00  0.00     0.032 A 
HETATM   30  C20 UNL     1      28.415  -1.287  53.151  1.00  0.00     0.046 A 
HETATM   31  C21 UNL     1      28.957  -0.038  53.364  1.00  0.00     0.138 A 
HETATM   32  F1  UNL     1      30.301   0.097  53.491  1.00  0.00    -0.204 F 
HETATM   33  C22 UNL     1      28.072   1.015  53.437  1.00  0.00     0.074 A 
HETATM   34 CL1  UNL     1      28.717   2.618  53.707  1.00  0.00    -0.081 Cl
HETATM   35  C23 UNL     1      26.708   0.789  53.296  1.00  0.00     0.056 A 
ENDBRANCH  26  28
ENDBRANCH  10  26
TORSDOF 8
ENDMDL
MODEL 7
REMARK VINA RESULT:      -7.9      2.923      3.431
REMARK  8 active torsions:
REMARK  status: ('A' for Active; 'I' for Inactive)
REMARK    1  A    between atoms: C4_5  and  O1_6 
REMARK    2  A    between atoms: C5_7  and  C6_8 
REMARK    3  A    between atoms: C6_8  and  O2_9 
REMARK    4  A    between atoms: O2_9  and  C7_10 
REMARK    5  A    between atoms: C7_10  and  C8_11 
REMARK    6  A    between atoms: C8_11  and  N2_12 
REMARK    7  A    between atoms: C17_22  and  N4_23 
REMARK    8  A    between atoms: N4_23  and  C18_24 
ROOT
HETATM    1  C1  UNL     1      21.562   4.540  49.189  1.00  0.00     0.179 C 
HETATM    2  N1  UNL     1      22.732   3.776  49.440  1.00  0.00    -0.278 NA
HETATM    3  C2  UNL     1      23.970   4.183  49.304  1.00  0.00     0.126 C 
HETATM    4  C3  UNL     1      23.986   5.570  48.846  1.00  0.00     0.087 C 
HETATM    5  C4  UNL     1      25.211   6.104  48.660  1.00  0.00     0.077 C 
HETATM    6  C5  UNL     1      26.599   5.633  48.772  1.00  0.00    -0.005 C 
HETATM    7  C14 UNL     1      27.199   4.454  49.060  1.00  0.00    -0.011 C 
HETATM    8  C15 UNL     1      26.580   3.179  49.351  1.00  0.00     0.058 C 
HETATM    9  C16 UNL     1      26.339   2.832  50.749  1.00  0.00     0.025 C 
HETATM   10  C17 UNL     1      25.008   2.681  50.894  1.00  0.00     0.103 C 
HETATM   11  N5  UNL     1      24.118   2.880  49.746  1.00  0.00    -0.328 N 
HETATM   12  H31 UNL     1      23.988   1.870  49.773  1.00  0.00     0.169 HD
ENDROOT
BRANCH   6  13
HETATM   13  C6  UNL     1      27.561   6.773  48.493  1.00  0.00     0.209 C 
BRANCH  13  14
HETATM   14  O2  UNL     1      28.726   6.335  47.925  1.00  0.00    -0.385 OA
BRANCH  14  15
HETATM   15  C7  UNL     1      29.875   6.977  48.267  1.00  0.00     0.187 C 
BRANCH  15  16
HETATM   16  C8  UNL     1      30.844   7.279  47.182  1.00  0.00     0.143 C 
BRANCH  16  17
HETATM   17  N2  UNL     1      32.066   6.586  47.180  1.00  0.00    -0.407 N 
HETATM   18  C9  UNL     1      32.618   6.141  45.966  1.00  0.00     0.147 C 
HETATM   19  C10 UNL     1      33.930   5.436  46.264  1.00  0.00     0.291 C 
HETATM   20  N3  UNL     1      33.553   4.194  46.912  1.00  0.00     0.087 N 
HETATM   21  C11 UNL     1      34.735   3.423  47.175  1.00  0.00     0.310 C 
HETATM   22  C12 UNL     1      32.714   4.378  48.053  1.00  0.00     0.291 C 
HETATM   23  C13 UNL     1      32.368   5.816  48.340  1.00  0.00     0.147 C 
ENDBRANCH  16  17
ENDBRANCH  15  16
ENDBRANCH  14  15
ENDBRANCH  13  14
ENDBRANCH   6  13
BRANCH   5  24
HETATM   24  O1  UNL     1      25.013   7.431  48.242  1.00  0.00    -0.360 OA
HETATM   25  H5  UNL     1      24.029   7.699  48.107  1.00  0.00     0.217 HD
ENDBRANCH   5  24
BRANCH  10  26
HETATM   26  N4  UNL     1      24.693   2.339  52.240  1.00  0.00    -0.343 N 
HETATM   27  H27 UNL     1      25.060   3.189  52.725  1.00  0.00     0.167 HD
BRANCH  26  28
HETATM   28  C18 UNL     1      24.087   1.269  52.954  1.00  0.00     0.035 A 
HETATM   29  C19 UNL     1      24.910   0.326  53.540  1.00  0.00     0.032 A 
HETATM   30  C20 UNL     1      24.216  -0.661  54.204  1.00  0.00     0.046 A 
HETATM   31  C21 UNL     1      22.848  -0.778  54.324  1.00  0.00     0.138 A 
HETATM   32  F1  UNL     1      22.322  -1.820  55.017  1.00  0.00    -0.204 F 
HETATM   33  C22 UNL     1      22.089   0.196  53.715  1.00  0.00     0.074 A 
HETATM   34 CL1  UNL     1      20.348   0.086  53.842  1.00  0.00    -0.081 Cl
HETATM   35  C23 UNL     1      22.708   1.229  53.023  1.00  0.00     0.056 A 
ENDBRANCH  26  28
ENDBRANCH  10  26
TORSDOF 8
ENDMDL
MODEL 8
REMARK VINA RESULT:      -7.6      3.595      4.756
REMARK  8 active torsions:
REMARK  status: ('A' for Active; 'I' for Inactive)
REMARK    1  A    between atoms: C4_5  and  O1_6 
REMARK    2  A    between atoms: C5_7  and  C6_8 
REMARK    3  A    between atoms: C6_8  and  O2_9 
REMARK    4  A    between atoms: O2_9  and  C7_10 
REMARK    5  A    between atoms: C7_10  and  C8_11 
REMARK    6  A    between atoms: C8_11  and  N2_12 
REMARK    7  A    between atoms: C17_22  and  N4_23 
REMARK    8  A    between atoms: N4_23  and  C18_24 
ROOT
HETATM    1  C1  UNL     1      26.635   0.786  52.191  1.00  0.00     0.179 C 
HETATM    2  N1  UNL     1      25.627   1.755  52.436  1.00  0.00    -0.278 NA
HETATM    3  C2  UNL     1      25.430   2.860  51.759  1.00  0.00     0.126 C 
HETATM    4  C3  UNL     1      26.418   2.964  50.687  1.00  0.00     0.087 C 
HETATM    5  C4  UNL     1      26.323   4.069  49.919  1.00  0.00     0.077 C 
HETATM    6  C5  UNL     1      25.473   5.267  49.888  1.00  0.00    -0.005 C 
HETATM    7  C14 UNL     1      24.472   5.762  50.655  1.00  0.00    -0.011 C 
HETATM    8  C15 UNL     1      23.907   5.203  51.865  1.00  0.00     0.058 C 
HETATM    9  C16 UNL     1      22.728   4.350  51.745  1.00  0.00     0.025 C 
HETATM   10  C17 UNL     1      23.070   3.135  52.219  1.00  0.00     0.103 C 
HETATM   11  N5  UNL     1      24.430   2.897  52.713  1.00  0.00    -0.328 N 
HETATM   12  H31 UNL     1      24.002   2.867  53.639  1.00  0.00     0.169 HD
ENDROOT
BRANCH   6  13
HETATM   13  C6  UNL     1      25.830   6.132  48.694  1.00  0.00     0.209 C 
BRANCH  13  14
HETATM   14  O2  UNL     1      26.986   6.834  48.894  1.00  0.00    -0.385 OA
BRANCH  14  15
HETATM   15  C7  UNL     1      27.384   7.688  47.914  1.00  0.00     0.187 C 
BRANCH  15  16
HETATM   16  C8  UNL     1      28.645   7.372  47.196  1.00  0.00     0.143 C 
BRANCH  16  17
HETATM   17  N2  UNL     1      29.774   7.037  47.964  1.00  0.00    -0.407 N 
HETATM   18  C9  UNL     1      30.733   8.020  48.265  1.00  0.00     0.147 C 
HETATM   19  C10 UNL     1      31.828   7.382  49.102  1.00  0.00     0.291 C 
HETATM   20  N3  UNL     1      32.545   6.511  48.189  1.00  0.00     0.087 N 
HETATM   21  C11 UNL     1      33.649   5.909  48.882  1.00  0.00     0.310 C 
HETATM   22  C12 UNL     1      31.703   5.576  47.514  1.00  0.00     0.291 C 
HETATM   23  C13 UNL     1      30.242   5.695  47.863  1.00  0.00     0.147 C 
ENDBRANCH  16  17
ENDBRANCH  15  16
ENDBRANCH  14  15
ENDBRANCH  13  14
ENDBRANCH   6  13
BRANCH   5  24
HETATM   24  O1  UNL     1      27.336   3.973  48.949  1.00  0.00    -0.360 OA
HETATM   25  H5  UNL     1      27.212   4.587  48.133  1.00  0.00     0.217 HD
ENDBRANCH   5  24
BRANCH  10  26
HETATM   26  N4  UNL     1      21.963   2.244  52.136  1.00  0.00    -0.343 N 
HETATM   27  H27 UNL     1      21.429   2.702  51.363  1.00  0.00     0.167 HD
BRANCH  26  28
HETATM   28  C18 UNL     1      21.500   1.058  52.770  1.00  0.00     0.035 A 
HETATM   29  C19 UNL     1      22.398   0.327  53.525  1.00  0.00     0.032 A 
HETATM   30  C20 UNL     1      21.840  -0.799  54.091  1.00  0.00     0.046 A 
HETATM   31  C21 UNL     1      20.536  -1.230  53.972  1.00  0.00     0.138 A 
HETATM   32  F1  UNL     1      20.146  -2.369  54.597  1.00  0.00    -0.204 F 
HETATM   33  C22 UNL     1      19.696  -0.453  53.205  1.00  0.00     0.074 A 
HETATM   34 CL1  UNL     1      18.033  -0.963  53.028  1.00  0.00    -0.081 Cl
HETATM   35  C23 UNL     1      20.177   0.700  52.597  1.00  0.00     0.056 A 
ENDBRANCH  26  28
ENDBRANCH  10  26
TORSDOF 8
ENDMDL
MODEL 9
REMARK VINA RESULT:      -7.5      7.232     12.189
REMARK  8 active torsions:
REMARK  status: ('A' for Active; 'I' for Inactive)
REMARK    1  A    between atoms: C4_5  and  O1_6 
REMARK    2  A    between atoms: C5_7  and  C6_8 
REMARK    3  A    between atoms: C6_8  and  O2_9 
REMARK    4  A    between atoms: O2_9  and  C7_10 
REMARK    5  A    between atoms: C7_10  and  C8_11 
REMARK    6  A    between atoms: C8_11  and  N2_12 
REMARK    7  A    between atoms: C17_22  and  N4_23 
REMARK    8  A    between atoms: N4_23  and  C18_24 
ROOT
HETATM    1  C1  UNL     1      22.700   2.558  50.213  1.00  0.00     0.179 C 
HETATM    2  N1  UNL     1      22.874   1.923  51.469  1.00  0.00    -0.278 NA
HETATM    3  C2  UNL     1      22.015   1.133  52.067  1.00  0.00     0.126 C 
HETATM    4  C3  UNL     1      20.818   0.992  51.240  1.00  0.00     0.087 C 
HETATM    5  C4  UNL     1      19.850   0.204  51.753  1.00  0.00     0.077 C 
HETATM    6  C5  UNL     1      19.655  -0.562  52.992  1.00  0.00    -0.005 C 
HETATM    7  C14 UNL     1      20.355  -0.741  54.138  1.00  0.00    -0.011 C 
HETATM    8  C15 UNL     1      21.620  -0.150  54.520  1.00  0.00     0.058 C 
HETATM    9  C16 UNL     1      22.843  -0.897  54.239  1.00  0.00     0.025 C 
HETATM   10  C17 UNL     1      23.581  -0.143  53.400  1.00  0.00     0.103 C 
HETATM   11  N5  UNL     1      23.079   1.159  52.950  1.00  0.00    -0.328 N 
HETATM   12  H31 UNL     1      23.802   1.555  53.550  1.00  0.00     0.169 HD
ENDROOT
BRANCH   6  13
HETATM   13  C6  UNL     1      18.345  -1.324  52.935  1.00  0.00     0.209 C 
BRANCH  13  14
HETATM   14  O2  UNL     1      17.306  -0.603  53.455  1.00  0.00    -0.385 OA
BRANCH  14  15
HETATM   15  C7  UNL     1      16.147  -0.562  52.744  1.00  0.00     0.187 C 
BRANCH  15  16
HETATM   16  C8  UNL     1      15.664  -1.831  52.143  1.00  0.00     0.143 C 
BRANCH  16  17
HETATM   17  N2  UNL     1      14.280  -1.984  51.952  1.00  0.00    -0.407 N 
HETATM   18  C9  UNL     1      13.506  -0.889  51.531  1.00  0.00     0.147 C 
HETATM   19  C10 UNL     1      12.061  -1.342  51.405  1.00  0.00     0.291 C 
HETATM   20  N3  UNL     1      11.607  -1.542  52.769  1.00  0.00     0.087 N 
HETATM   21  C11 UNL     1      10.220  -1.911  52.754  1.00  0.00     0.310 C 
HETATM   22  C12 UNL     1      12.437  -2.428  53.522  1.00  0.00     0.291 C 
HETATM   23  C13 UNL     1      13.625  -2.957  52.762  1.00  0.00     0.147 C 
ENDBRANCH  16  17
ENDBRANCH  15  16
ENDBRANCH  14  15
ENDBRANCH  13  14
ENDBRANCH   6  13
BRANCH   5  24
HETATM   24  O1  UNL     1      18.806   0.184  50.812  1.00  0.00    -0.360 OA
HETATM   25  H5  UNL     1      19.111   0.191  49.830  1.00  0.00     0.217 HD
ENDBRANCH   5  24
BRANCH  10  26
HETATM   26  N4  UNL     1      24.797  -0.809  53.079  1.00  0.00    -0.343 N 
HETATM   27  H27 UNL     1      24.410  -1.693  52.677  1.00  0.00     0.167 HD
BRANCH  26  28
HETATM   28  C18 UNL     1      26.198  -0.574  53.169  1.00  0.00     0.035 A 
HETATM   29  C19 UNL     1      27.050  -1.655  53.044  1.00  0.00     0.032 A 
HETATM   30  C20 UNL     1      28.380  -1.310  53.146  1.00  0.00     0.046 A 
HETATM   31  C21 UNL     1      28.899  -0.050  53.352  1.00  0.00     0.138 A 
HETATM   32  F1  UNL     1      30.243   0.118  53.430  1.00  0.00    -0.204 F 
HETATM   33  C22 UNL     1      27.992   0.980  53.469  1.00  0.00     0.074 A 
HETATM   34 CL1  UNL     1      28.607   2.596  53.730  1.00  0.00    -0.081 Cl
HETATM   35  C23 UNL     1      26.630   0.721  53.377  1.00  0.00     0.056 A 
ENDBRANCH  26  28
ENDBRANCH  10  26
TORSDOF 8
ENDMDL
