MODEL 1
REMARK VINA RESULT:      -9.0      0.000      0.000
REMARK  9 active torsions:
REMARK  status: ('A' for Active; 'I' for Inactive)
REMARK    1  A    between atoms: N1_1  and  C1_2 
REMARK    2  A    between atoms: C1_2  and  N2_3 
REMARK    3  A    between atoms: C3_6  and  C4_7 
REMARK    4  A    between atoms: C4_7  and  C5_8 
REMARK    5  A    between atoms: C5_8  and  C6_9 
REMARK    6  A    between atoms: C14_17  and  N4_18 
REMARK    7  A    between atoms: C14_17  and  N5_19 
REMARK    8  A    between atoms: N5_19  and  C15_20 
REMARK    9  A    between atoms: C19_24  and  C20_25 
ROOT
HETATM    1  N2  UNL     1      23.709   5.324  50.427  1.00  0.00    -0.242 NA
HETATM    2  C2  UNL     1      24.281   4.210  50.729  1.00  0.00     0.138 A 
HETATM    3  N3  UNL     1      25.621   4.006  51.196  1.00  0.00    -0.344 N 
HETATM    4  C3  UNL     1      25.836   2.614  51.406  1.00  0.00     0.012 A 
HETATM    5  C12 UNL     1      24.712   1.963  51.096  1.00  0.00     0.044 A 
HETATM    6  C13 UNL     1      23.671   2.886  50.657  1.00  0.00     0.055 A 
HETATM    7  C14 UNL     1      22.447   2.636  50.275  1.00  0.00     0.113 C 
HETATM    8  H5  UNL     1      26.345   4.732  51.365  1.00  0.00     0.167 HD
ENDROOT
BRANCH   7   9
HETATM    9  N4  UNL     1      21.608   3.717  49.887  1.00  0.00    -0.385 N 
HETATM   10  H16 UNL     1      21.093   4.512  50.354  1.00  0.00     0.157 HD
HETATM   11  H17 UNL     1      21.540   3.620  48.852  1.00  0.00     0.157 HD
ENDBRANCH   7   9
BRANCH   7  12
HETATM   12  N5  UNL     1      21.927   1.313  50.233  1.00  0.00    -0.342 N 
HETATM   13  H18 UNL     1      22.177   0.898  49.309  1.00  0.00     0.167 HD
BRANCH  12  14
HETATM   14  C15 UNL     1      21.203   0.667  51.249  1.00  0.00     0.034 A 
HETATM   15  C16 UNL     1      19.830   0.607  51.124  1.00  0.00     0.029 A 
HETATM   16  C17 UNL     1      19.158  -0.044  52.158  1.00  0.00     0.003 A 
HETATM   17  C18 UNL     1      19.846  -0.588  53.232  1.00  0.00     0.016 A 
HETATM   18  C19 UNL     1      21.228  -0.497  53.305  1.00  0.00     0.050 A 
HETATM   19  C21 UNL     1      21.946   0.148  52.291  1.00  0.00     0.045 A 
BRANCH  18  20
HETATM   20  C20 UNL     1      22.016  -1.063  54.437  1.00  0.00     0.417 C 
HETATM   21  F1  UNL     1      21.680  -2.409  54.600  1.00  0.00    -0.166 F 
HETATM   22  F2  UNL     1      23.357  -0.967  54.090  1.00  0.00    -0.166 F 
HETATM   23  F3  UNL     1      21.739  -0.422  55.627  1.00  0.00    -0.166 F 
ENDBRANCH  18  20
ENDBRANCH  12  14
ENDBRANCH   7  12
BRANCH   1  24
HETATM   24  C1  UNL     1      24.420   6.575  50.541  1.00  0.00     0.417 C 
BRANCH  24  25
HETATM   25  N1  UNL     1      24.321   7.168  51.855  1.00  0.00     0.097 N 
HETATM   26  H1  UNL     1      23.392   6.989  52.248  1.00  0.00     0.315 HD
HETATM   27  H2  UNL     1      24.691   8.120  51.941  1.00  0.00     0.315 HD
ENDBRANCH  24  25
ENDBRANCH   1  24
BRANCH   4  28
HETATM   28  C4  UNL     1      27.101   1.991  51.890  1.00  0.00     0.062 C 
BRANCH  28  29
HETATM   29  C5  UNL     1      26.879   1.281  53.221  1.00  0.00     0.044 C 
BRANCH  29  30
HETATM   30  C6  UNL     1      27.465  -0.060  53.119  1.00  0.00    -0.058 A 
HETATM   31  C7  UNL     1      26.785  -1.158  52.621  1.00  0.00     0.007 A 
HETATM   32  C8  UNL     1      27.398  -2.391  52.555  1.00  0.00     0.001 A 
HETATM   33  C9  UNL     1      28.687  -2.568  52.977  1.00  0.00     0.000 A 
HETATM   34  C10 UNL     1      29.403  -1.490  53.483  1.00  0.00     0.001 A 
HETATM   35  C11 UNL     1      28.771  -0.249  53.545  1.00  0.00     0.007 A 
ENDBRANCH  29  30
ENDBRANCH  28  29
ENDBRANCH   4  28
TORSDOF 9
ENDMDL
MODEL 2
REMARK VINA RESULT:      -8.6      2.203      5.428
REMARK  9 active torsions:
REMARK  status: ('A' for Active; 'I' for Inactive)
REMARK    1  A    between atoms: N1_1  and  C1_2 
REMARK    2  A    between atoms: C1_2  and  N2_3 
REMARK    3  A    between atoms: C3_6  and  C4_7 
REMARK    4  A    between atoms: C4_7  and  C5_8 
REMARK    5  A    between atoms: C5_8  and  C6_9 
REMARK    6  A    between atoms: C14_17  and  N4_18 
REMARK    7  A    between atoms: C14_17  and  N5_19 
REMARK    8  A    between atoms: N5_19  and  C15_20 
REMARK    9  A    between atoms: C19_24  and  C20_25 
ROOT
HETATM    1  N2  UNL     1      21.560   6.317  50.752  1.00  0.00    -0.242 NA
HETATM    2  C2  UNL     1      21.354   5.148  51.253  1.00  0.00     0.138 A 
HETATM    3  N3  UNL     1      20.177   4.337  51.143  1.00  0.00    -0.344 N 
HETATM    4  C3  UNL     1      20.380   3.119  51.851  1.00  0.00     0.012 A 
HETATM    5  C12 UNL     1      21.605   3.140  52.382  1.00  0.00     0.044 A 
HETATM    6  C13 UNL     1      22.299   4.382  52.059  1.00  0.00     0.055 A 
HETATM    7  C14 UNL     1      23.501   4.772  52.392  1.00  0.00     0.113 C 
HETATM    8  H5  UNL     1      19.299   4.570  50.637  1.00  0.00     0.167 HD
ENDROOT
BRANCH   7   9
HETATM    9  N4  UNL     1      23.962   6.044  51.952  1.00  0.00    -0.385 N 
HETATM   10  H16 UNL     1      24.154   6.530  51.035  1.00  0.00     0.157 HD
HETATM   11  H17 UNL     1      24.130   6.567  52.838  1.00  0.00     0.157 HD
ENDBRANCH   7   9
BRANCH   7  12
HETATM   12  N5  UNL     1      24.362   3.963  53.183  1.00  0.00    -0.342 N 
HETATM   13  H18 UNL     1      24.303   4.299  54.169  1.00  0.00     0.167 HD
BRANCH  12  14
HETATM   14  C15 UNL     1      25.159   2.898  52.730  1.00  0.00     0.034 A 
HETATM   15  C16 UNL     1      25.614   2.943  51.428  1.00  0.00     0.029 A 
HETATM   16  C17 UNL     1      26.400   1.863  51.026  1.00  0.00     0.003 A 
HETATM   17  C18 UNL     1      26.692   0.824  51.896  1.00  0.00     0.016 A 
HETATM   18  C19 UNL     1      26.205   0.832  53.196  1.00  0.00     0.050 A 
HETATM   19  C21 UNL     1      25.412   1.895  53.643  1.00  0.00     0.045 A 
BRANCH  18  20
HETATM   20  C20 UNL     1      26.487  -0.259  54.171  1.00  0.00     0.417 C 
HETATM   21  F1  UNL     1      25.562  -0.191  55.214  1.00  0.00    -0.166 F 
HETATM   22  F2  UNL     1      26.324  -1.462  53.496  1.00  0.00    -0.166 F 
HETATM   23  F3  UNL     1      27.745  -0.141  54.726  1.00  0.00    -0.166 F 
ENDBRANCH  18  20
ENDBRANCH  12  14
ENDBRANCH   7  12
BRANCH   1  24
HETATM   24  C1  UNL     1      20.543   6.975  49.967  1.00  0.00     0.417 C 
BRANCH  24  25
HETATM   25  N1  UNL     1      20.531   8.409  50.139  1.00  0.00     0.097 N 
HETATM   26  H1  UNL     1      20.128   8.856  49.309  1.00  0.00     0.315 HD
HETATM   27  H2  UNL     1      21.388   8.818  50.522  1.00  0.00     0.315 HD
ENDBRANCH  24  25
ENDBRANCH   1  24
BRANCH   4  28
HETATM   28  C4  UNL     1      19.393   2.009  51.976  1.00  0.00     0.062 C 
BRANCH  28  29
HETATM   29  C5  UNL     1      19.978   0.702  51.451  1.00  0.00     0.044 C 
BRANCH  29  30
HETATM   30  C6  UNL     1      20.797   0.115  52.516  1.00  0.00    -0.058 A 
HETATM   31  C7  UNL     1      20.353  -0.066  53.815  1.00  0.00     0.007 A 
HETATM   32  C8  UNL     1      21.177  -0.625  54.767  1.00  0.00     0.001 A 
HETATM   33  C9  UNL     1      22.453  -1.016  54.462  1.00  0.00     0.000 A 
HETATM   34  C10 UNL     1      22.936  -0.851  53.170  1.00  0.00     0.001 A 
HETATM   35  C11 UNL     1      22.091  -0.283  52.217  1.00  0.00     0.007 A 
ENDBRANCH  29  30
ENDBRANCH  28  29
ENDBRANCH   4  28
TORSDOF 9
ENDMDL
MODEL 3
REMARK VINA RESULT:      -8.5      3.193      5.719
REMARK  9 active torsions:
REMARK  status: ('A' for Active; 'I' for Inactive)
REMARK    1  A    between atoms: N1_1  and  C1_2 
REMARK    2  A    between atoms: C1_2  and  N2_3 
REMARK    3  A    between atoms: C3_6  and  C4_7 
REMARK    4  A    between atoms: C4_7  and  C5_8 
REMARK    5  A    between atoms: C5_8  and  C6_9 
REMARK    6  A    between atoms: C14_17  and  N4_18 
REMARK    7  A    between atoms: C14_17  and  N5_19 
REMARK    8  A    between atoms: N5_19  and  C15_20 
REMARK    9  A    between atoms: C19_24  and  C20_25 
ROOT
HETATM    1  N2  UNL     1      27.835   1.633  53.786  1.00  0.00    -0.242 NA
HETATM    2  C2  UNL     1      26.997   1.750  52.815  1.00  0.00     0.138 A 
HETATM    3  N3  UNL     1      27.009   2.711  51.751  1.00  0.00    -0.344 N 
HETATM    4  C3  UNL     1      25.895   2.477  50.897  1.00  0.00     0.012 A 
HETATM    5  C12 UNL     1      25.208   1.437  51.375  1.00  0.00     0.044 A 
HETATM    6  C13 UNL     1      25.827   0.908  52.587  1.00  0.00     0.055 A 
HETATM    7  C14 UNL     1      25.457  -0.094  53.338  1.00  0.00     0.113 C 
HETATM    8  H5  UNL     1      27.704   3.469  51.597  1.00  0.00     0.167 HD
ENDROOT
BRANCH   7   9
HETATM    9  N4  UNL     1      26.233  -0.423  54.484  1.00  0.00    -0.385 N 
HETATM   10  H16 UNL     1      26.891  -1.190  54.788  1.00  0.00     0.157 HD
HETATM   11  H17 UNL     1      26.037   0.357  55.148  1.00  0.00     0.157 HD
ENDBRANCH   7   9
BRANCH   7  12
HETATM   12  N5  UNL     1      24.300  -0.867  53.045  1.00  0.00    -0.342 N 
HETATM   13  H18 UNL     1      24.609  -1.735  52.556  1.00  0.00     0.167 HD
BRANCH  12  14
HETATM   14  C15 UNL     1      22.971  -0.532  53.353  1.00  0.00     0.034 A 
HETATM   15  C16 UNL     1      22.561  -0.659  54.665  1.00  0.00     0.029 A 
HETATM   16  C17 UNL     1      21.234  -0.314  54.918  1.00  0.00     0.003 A 
HETATM   17  C18 UNL     1      20.399   0.125  53.902  1.00  0.00     0.016 A 
HETATM   18  C19 UNL     1      20.866   0.232  52.600  1.00  0.00     0.050 A 
HETATM   19  C21 UNL     1      22.191  -0.103  52.298  1.00  0.00     0.045 A 
BRANCH  18  20
HETATM   20  C20 UNL     1      20.011   0.697  51.472  1.00  0.00     0.417 C 
HETATM   21  F1  UNL     1      20.649   0.405  50.264  1.00  0.00    -0.166 F 
HETATM   22  F2  UNL     1      18.820  -0.014  51.541  1.00  0.00    -0.166 F 
HETATM   23  F3  UNL     1      19.805   2.061  51.510  1.00  0.00    -0.166 F 
ENDBRANCH  18  20
ENDBRANCH  12  14
ENDBRANCH   7  12
BRANCH   1  24
HETATM   24  C1  UNL     1      28.960   2.531  53.904  1.00  0.00     0.417 C 
BRANCH  24  25
HETATM   25  N1  UNL     1      29.859   2.178  54.979  1.00  0.00     0.097 N 
HETATM   26  H1  UNL     1      29.395   1.529  55.622  1.00  0.00     0.315 HD
HETATM   27  H2  UNL     1      30.382   2.956  55.393  1.00  0.00     0.315 HD
ENDBRANCH  24  25
ENDBRANCH   1  24
BRANCH   4  28
HETATM   28  C4  UNL     1      25.554   3.261  49.675  1.00  0.00     0.062 C 
BRANCH  28  29
HETATM   29  C5  UNL     1      25.408   4.742  50.006  1.00  0.00     0.044 C 
BRANCH  29  30
HETATM   30  C6  UNL     1      26.446   5.473  49.273  1.00  0.00    -0.058 A 
HETATM   31  C7  UNL     1      26.367   6.821  48.971  1.00  0.00     0.007 A 
HETATM   32  C8  UNL     1      27.381   7.445  48.277  1.00  0.00     0.001 A 
HETATM   33  C9  UNL     1      28.491   6.757  47.867  1.00  0.00     0.000 A 
HETATM   34  C10 UNL     1      28.608   5.402  48.151  1.00  0.00     0.001 A 
HETATM   35  C11 UNL     1      27.574   4.784  48.854  1.00  0.00     0.007 A 
ENDBRANCH  29  30
ENDBRANCH  28  29
ENDBRANCH   4  28
TORSDOF 9
ENDMDL
MODEL 4
REMARK VINA RESULT:      -8.5      1.442      1.948
REMARK  9 active torsions:
REMARK  status: ('A' for Active; 'I' for Inactive)
REMARK    1  A    between atoms: N1_1  and  C1_2 
REMARK    2  A    between atoms: C1_2  and  N2_3 
REMARK    3  A    between atoms: C3_6  and  C4_7 
REMARK    4  A    between atoms: C4_7  and  C5_8 
REMARK    5  A    between atoms: C5_8  and  C6_9 
REMARK    6  A    between atoms: C14_17  and  N4_18 
REMARK    7  A    between atoms: C14_17  and  N5_19 
REMARK    8  A    between atoms: N5_19  and  C15_20 
REMARK    9  A    between atoms: C19_24  and  C20_25 
ROOT
HETATM    1  N2  UNL     1      24.733   6.496  50.329  1.00  0.00    -0.242 NA
HETATM    2  C2  UNL     1      24.839   5.265  50.695  1.00  0.00     0.138 A 
HETATM    3  N3  UNL     1      25.967   4.394  50.539  1.00  0.00    -0.344 N 
HETATM    4  C3  UNL     1      25.651   3.117  51.085  1.00  0.00     0.012 A 
HETATM    5  C12 UNL     1      24.405   3.160  51.562  1.00  0.00     0.044 A 
HETATM    6  C13 UNL     1      23.808   4.477  51.362  1.00  0.00     0.055 A 
HETATM    7  C14 UNL     1      22.618   4.907  51.688  1.00  0.00     0.113 C 
HETATM    8  H5  UNL     1      26.883   4.623  50.103  1.00  0.00     0.167 HD
ENDROOT
BRANCH   7   9
HETATM    9  N4  UNL     1      22.261   6.250  51.384  1.00  0.00    -0.385 N 
HETATM   10  H16 UNL     1      21.584   6.753  50.750  1.00  0.00     0.157 HD
HETATM   11  H17 UNL     1      22.884   6.817  51.998  1.00  0.00     0.157 HD
ENDBRANCH   7   9
BRANCH   7  12
HETATM   12  N5  UNL     1      21.668   4.072  52.338  1.00  0.00    -0.342 N 
HETATM   13  H18 UNL     1      21.280   4.599  53.150  1.00  0.00     0.167 HD
BRANCH  12  14
HETATM   14  C15 UNL     1      21.309   2.766  51.964  1.00  0.00     0.034 A 
HETATM   15  C16 UNL     1      20.884   2.561  50.668  1.00  0.00     0.029 A 
HETATM   16  C17 UNL     1      20.538   1.248  50.347  1.00  0.00     0.003 A 
HETATM   17  C18 UNL     1      20.625   0.232  51.287  1.00  0.00     0.016 A 
HETATM   18  C19 UNL     1      21.059   0.498  52.577  1.00  0.00     0.050 A 
HETATM   19  C21 UNL     1      21.415   1.801  52.945  1.00  0.00     0.045 A 
BRANCH  18  20
HETATM   20  C20 UNL     1      21.169  -0.555  53.626  1.00  0.00     0.417 C 
HETATM   21  F1  UNL     1      22.286  -1.349  53.361  1.00  0.00    -0.166 F 
HETATM   22  F2  UNL     1      21.348   0.093  54.840  1.00  0.00    -0.166 F 
HETATM   23  F3  UNL     1      20.067  -1.386  53.637  1.00  0.00    -0.166 F 
ENDBRANCH  18  20
ENDBRANCH  12  14
ENDBRANCH   7  12
BRANCH   1  24
HETATM   24  C1  UNL     1      25.829   7.170  49.676  1.00  0.00     0.417 C 
BRANCH  24  25
HETATM   25  N1  UNL     1      26.537   8.081  50.546  1.00  0.00     0.097 N 
HETATM   26  H1  UNL     1      26.404   9.045  50.222  1.00  0.00     0.315 HD
HETATM   27  H2  UNL     1      27.487   7.800  50.805  1.00  0.00     0.315 HD
ENDBRANCH  24  25
ENDBRANCH   1  24
BRANCH   4  28
HETATM   28  C4  UNL     1      26.559   1.935  51.120  1.00  0.00     0.062 C 
BRANCH  28  29
HETATM   29  C5  UNL     1      26.085   0.919  52.152  1.00  0.00     0.044 C 
BRANCH  29  30
HETATM   30  C6  UNL     1      27.268   0.258  52.711  1.00  0.00    -0.058 A 
HETATM   31  C7  UNL     1      27.454  -1.114  52.708  1.00  0.00     0.007 A 
HETATM   32  C8  UNL     1      28.592  -1.669  53.252  1.00  0.00     0.001 A 
HETATM   33  C9  UNL     1      29.568  -0.888  53.810  1.00  0.00     0.000 A 
HETATM   34  C10 UNL     1      29.418   0.493  53.832  1.00  0.00     0.001 A 
HETATM   35  C11 UNL     1      28.261   1.041  53.279  1.00  0.00     0.007 A 
ENDBRANCH  29  30
ENDBRANCH  28  29
ENDBRANCH   4  28
TORSDOF 9
ENDMDL
MODEL 5
REMARK VINA RESULT:      -8.5      3.161      6.983
REMARK  9 active torsions:
REMARK  status: ('A' for Active; 'I' for Inactive)
REMARK    1  A    between atoms: N1_1  and  C1_2 
REMARK    2  A    between atoms: C1_2  and  N2_3 
REMARK    3  A    between atoms: C3_6  and  C4_7 
REMARK    4  A    between atoms: C4_7  and  C5_8 
REMARK    5  A    between atoms: C5_8  and  C6_9 
REMARK    6  A    between atoms: C14_17  and  N4_18 
REMARK    7  A    between atoms: C14_17  and  N5_19 
REMARK    8  A    between atoms: N5_19  and  C15_20 
REMARK    9  A    between atoms: C19_24  and  C20_25 
ROOT
HETATM    1  N2  UNL     1      27.239  -0.000  52.806  1.00  0.00    -0.242 NA
HETATM    2  C2  UNL     1      25.964   0.130  52.942  1.00  0.00     0.138 A 
HETATM    3  N3  UNL     1      25.024  -0.845  53.414  1.00  0.00    -0.344 N 
HETATM    4  C3  UNL     1      23.718  -0.279  53.403  1.00  0.00     0.012 A 
HETATM    5  C12 UNL     1      23.807   0.976  52.955  1.00  0.00     0.044 A 
HETATM    6  C13 UNL     1      25.187   1.327  52.638  1.00  0.00     0.055 A 
HETATM    7  C14 UNL     1      25.674   2.449  52.180  1.00  0.00     0.113 C 
HETATM    8  H5  UNL     1      25.228  -1.817  53.722  1.00  0.00     0.167 HD
ENDROOT
BRANCH   7   9
HETATM    9  N4  UNL     1      27.073   2.552  51.945  1.00  0.00    -0.385 N 
HETATM   10  H16 UNL     1      27.819   3.298  51.986  1.00  0.00     0.157 HD
HETATM   11  H17 UNL     1      27.349   1.587  51.663  1.00  0.00     0.157 HD
ENDBRANCH   7   9
BRANCH   7  12
HETATM   12  N5  UNL     1      24.846   3.573  51.908  1.00  0.00    -0.342 N 
HETATM   13  H18 UNL     1      24.742   4.117  52.792  1.00  0.00     0.167 HD
BRANCH  12  14
HETATM   14  C15 UNL     1      24.264   3.904  50.673  1.00  0.00     0.034 A 
HETATM   15  C16 UNL     1      24.475   5.175  50.180  1.00  0.00     0.029 A 
HETATM   16  C17 UNL     1      23.877   5.453  48.951  1.00  0.00     0.003 A 
HETATM   17  C18 UNL     1      23.123   4.498  48.287  1.00  0.00     0.016 A 
HETATM   18  C19 UNL     1      22.944   3.234  48.831  1.00  0.00     0.050 A 
HETATM   19  C21 UNL     1      23.525   2.910  50.062  1.00  0.00     0.045 A 
BRANCH  18  20
HETATM   20  C20 UNL     1      22.143   2.172  48.160  1.00  0.00     0.417 C 
HETATM   21  F1  UNL     1      22.814   1.751  47.010  1.00  0.00    -0.166 F 
HETATM   22  F2  UNL     1      22.049   1.109  49.047  1.00  0.00    -0.166 F 
HETATM   23  F3  UNL     1      20.903   2.633  47.767  1.00  0.00    -0.166 F 
ENDBRANCH  18  20
ENDBRANCH  12  14
ENDBRANCH   7  12
BRANCH   1  24
HETATM   24  C1  UNL     1      27.896  -1.240  53.144  1.00  0.00     0.417 C 
BRANCH  24  25
HETATM   25  N1  UNL     1      29.072  -1.057  53.962  1.00  0.00     0.097 N 
HETATM   26  H1  UNL     1      29.073  -1.738  54.728  1.00  0.00     0.315 HD
HETATM   27  H2  UNL     1      29.302  -0.086  54.197  1.00  0.00     0.315 HD
ENDBRANCH  24  25
ENDBRANCH   1  24
BRANCH   4  28
HETATM   28  C4  UNL     1      22.465  -0.970  53.821  1.00  0.00     0.062 C 
BRANCH  28  29
HETATM   29  C5  UNL     1      21.391   0.042  54.205  1.00  0.00     0.044 C 
BRANCH  29  30
HETATM   30  C6  UNL     1      20.329  -0.024  53.196  1.00  0.00    -0.058 A 
HETATM   31  C7  UNL     1      20.376   0.651  51.988  1.00  0.00     0.007 A 
HETATM   32  C8  UNL     1      19.340   0.545  51.085  1.00  0.00     0.001 A 
HETATM   33  C9  UNL     1      18.240  -0.225  51.351  1.00  0.00     0.000 A 
HETATM   34  C10 UNL     1      18.157  -0.918  52.552  1.00  0.00     0.001 A 
HETATM   35  C11 UNL     1      19.211  -0.801  53.457  1.00  0.00     0.007 A 
ENDBRANCH  29  30
ENDBRANCH  28  29
ENDBRANCH   4  28
TORSDOF 9
ENDMDL
MODEL 6
REMARK VINA RESULT:      -8.4      4.826      6.264
REMARK  9 active torsions:
REMARK  status: ('A' for Active; 'I' for Inactive)
REMARK    1  A    between atoms: N1_1  and  C1_2 
REMARK    2  A    between atoms: C1_2  and  N2_3 
REMARK    3  A    between atoms: C3_6  and  C4_7 
REMARK    4  A    between atoms: C4_7  and  C5_8 
REMARK    5  A    between atoms: C5_8  and  C6_9 
REMARK    6  A    between atoms: C14_17  and  N4_18 
REMARK    7  A    between atoms: C14_17  and  N5_19 
REMARK    8  A    between atoms: N5_19  and  C15_20 
REMARK    9  A    between atoms: C19_24  and  C20_25 
ROOT
HETATM    1  N2  UNL     1      26.346   7.953  49.648  1.00  0.00    -0.242 NA
HETATM    2  C2  UNL     1      27.023   6.945  49.218  1.00  0.00     0.138 A 
HETATM    3  N3  UNL     1      28.381   6.927  48.758  1.00  0.00    -0.344 N 
HETATM    4  C3  UNL     1      28.728   5.600  48.375  1.00  0.00     0.012 A 
HETATM    5  C12 UNL     1      27.667   4.814  48.574  1.00  0.00     0.044 A 
HETATM    6  C13 UNL     1      26.539   5.572  49.106  1.00  0.00     0.055 A 
HETATM    7  C14 UNL     1      25.341   5.163  49.427  1.00  0.00     0.113 C 
HETATM    8  H5  UNL     1      29.035   7.732  48.700  1.00  0.00     0.167 HD
ENDROOT
BRANCH   7   9
HETATM    9  N4  UNL     1      24.401   6.104  49.932  1.00  0.00    -0.385 N 
HETATM   10  H16 UNL     1      23.353   6.229  49.945  1.00  0.00     0.157 HD
HETATM   11  H17 UNL     1      24.995   6.824  50.396  1.00  0.00     0.157 HD
ENDBRANCH   7   9
BRANCH   7  12
HETATM   12  N5  UNL     1      24.948   3.804  49.287  1.00  0.00    -0.342 N 
HETATM   13  H18 UNL     1      24.818   3.610  48.270  1.00  0.00     0.167 HD
BRANCH  12  14
HETATM   14  C15 UNL     1      24.762   2.876  50.325  1.00  0.00     0.034 A 
HETATM   15  C16 UNL     1      23.489   2.382  50.528  1.00  0.00     0.029 A 
HETATM   16  C17 UNL     1      23.358   1.464  51.571  1.00  0.00     0.003 A 
HETATM   17  C18 UNL     1      24.449   1.088  52.339  1.00  0.00     0.016 A 
HETATM   18  C19 UNL     1      25.706   1.619  52.089  1.00  0.00     0.050 A 
HETATM   19  C21 UNL     1      25.886   2.544  51.054  1.00  0.00     0.045 A 
BRANCH  18  20
HETATM   20  C20 UNL     1      26.911   1.251  52.885  1.00  0.00     0.417 C 
HETATM   21  F1  UNL     1      27.839   2.292  52.819  1.00  0.00    -0.166 F 
HETATM   22  F2  UNL     1      26.498   1.092  54.201  1.00  0.00    -0.166 F 
HETATM   23  F3  UNL     1      27.527   0.118  52.392  1.00  0.00    -0.166 F 
ENDBRANCH  18  20
ENDBRANCH  12  14
ENDBRANCH   7  12
BRANCH   1  24
HETATM   24  C1  UNL     1      26.938   9.268  49.713  1.00  0.00     0.417 C 
BRANCH  24  25
HETATM   25  N1  UNL     1      27.730   9.476  50.904  1.00  0.00     0.097 N 
HETATM   26  H1  UNL     1      28.303  10.319  50.797  1.00  0.00     0.315 HD
HETATM   27  H2  UNL     1      28.188   8.643  51.284  1.00  0.00     0.315 HD
ENDBRANCH  24  25
ENDBRANCH   1  24
BRANCH   4  28
HETATM   28  C4  UNL     1      30.051   5.164  47.843  1.00  0.00     0.062 C 
BRANCH  28  29
HETATM   29  C5  UNL     1      31.175   6.008  48.433  1.00  0.00     0.044 C 
BRANCH  29  30
HETATM   30  C6  UNL     1      32.430   5.269  48.264  1.00  0.00    -0.058 A 
HETATM   31  C7  UNL     1      33.665   5.754  48.658  1.00  0.00     0.007 A 
HETATM   32  C8  UNL     1      34.806   5.005  48.468  1.00  0.00     0.001 A 
HETATM   33  C9  UNL     1      34.756   3.767  47.887  1.00  0.00     0.000 A 
HETATM   34  C10 UNL     1      33.535   3.245  47.478  1.00  0.00     0.001 A 
HETATM   35  C11 UNL     1      32.389   4.014  47.676  1.00  0.00     0.007 A 
ENDBRANCH  29  30
ENDBRANCH  28  29
ENDBRANCH   4  28
TORSDOF 9
ENDMDL
MODEL 7
REMARK VINA RESULT:      -8.2      1.923      5.255
REMARK  9 active torsions:
REMARK  status: ('A' for Active; 'I' for Inactive)
REMARK    1  A    between atoms: N1_1  and  C1_2 
REMARK    2  A    between atoms: C1_2  and  N2_3 
REMARK    3  A    between atoms: C3_6  and  C4_7 
REMARK    4  A    between atoms: C4_7  and  C5_8 
REMARK    5  A    between atoms: C5_8  and  C6_9 
REMARK    6  A    between atoms: C14_17  and  N4_18 
REMARK    7  A    between atoms: C14_17  and  N5_19 
REMARK    8  A    between atoms: N5_19  and  C15_20 
REMARK    9  A    between atoms: C19_24  and  C20_25 
ROOT
HETATM    1  N2  UNL     1      23.843   5.836  50.153  1.00  0.00    -0.242 NA
HETATM    2  C2  UNL     1      23.527   4.621  50.440  1.00  0.00     0.138 A 
HETATM    3  N3  UNL     1      22.222   4.087  50.701  1.00  0.00    -0.344 N 
HETATM    4  C3  UNL     1      22.332   2.695  50.976  1.00  0.00     0.012 A 
HETATM    5  C12 UNL     1      23.620   2.351  50.899  1.00  0.00     0.044 A 
HETATM    6  C13 UNL     1      24.455   3.500  50.565  1.00  0.00     0.055 A 
HETATM    7  C14 UNL     1      25.749   3.567  50.402  1.00  0.00     0.113 C 
HETATM    8  H5  UNL     1      21.320   4.604  50.698  1.00  0.00     0.167 HD
ENDROOT
BRANCH   7   9
HETATM    9  N4  UNL     1      26.341   4.819  50.075  1.00  0.00    -0.385 N 
HETATM   10  H16 UNL     1      27.081   5.184  49.416  1.00  0.00     0.157 HD
HETATM   11  H17 UNL     1      25.854   5.495  50.701  1.00  0.00     0.157 HD
ENDBRANCH   7   9
BRANCH   7  12
HETATM   12  N5  UNL     1      26.585   2.425  50.542  1.00  0.00    -0.342 N 
HETATM   13  H18 UNL     1      26.982   2.201  49.604  1.00  0.00     0.167 HD
BRANCH  12  14
HETATM   14  C15 UNL     1      26.838   1.715  51.727  1.00  0.00     0.034 A 
HETATM   15  C16 UNL     1      27.089   2.442  52.874  1.00  0.00     0.029 A 
HETATM   16  C17 UNL     1      27.334   1.690  54.023  1.00  0.00     0.003 A 
HETATM   17  C18 UNL     1      27.321   0.304  53.991  1.00  0.00     0.016 A 
HETATM   18  C19 UNL     1      27.063  -0.374  52.808  1.00  0.00     0.050 A 
HETATM   19  C21 UNL     1      26.812   0.338  51.630  1.00  0.00     0.045 A 
BRANCH  18  20
HETATM   20  C20 UNL     1      27.038  -1.861  52.719  1.00  0.00     0.417 C 
HETATM   21  F1  UNL     1      26.633  -2.236  51.436  1.00  0.00    -0.166 F 
HETATM   22  F2  UNL     1      28.336  -2.305  52.934  1.00  0.00    -0.166 F 
HETATM   23  F3  UNL     1      26.144  -2.415  53.612  1.00  0.00    -0.166 F 
ENDBRANCH  18  20
ENDBRANCH  12  14
ENDBRANCH   7  12
BRANCH   1  24
HETATM   24  C1  UNL     1      22.830   6.860  50.056  1.00  0.00     0.417 C 
BRANCH  24  25
HETATM   25  N1  UNL     1      22.414   7.372  51.341  1.00  0.00     0.097 N 
HETATM   26  H1  UNL     1      22.918   8.239  51.550  1.00  0.00     0.315 HD
HETATM   27  H2  UNL     1      22.342   6.679  52.093  1.00  0.00     0.315 HD
ENDBRANCH  24  25
ENDBRANCH   1  24
BRANCH   4  28
HETATM   28  C4  UNL     1      21.201   1.777  51.296  1.00  0.00     0.062 C 
BRANCH  28  29
HETATM   29  C5  UNL     1      21.632   0.321  51.165  1.00  0.00     0.044 C 
BRANCH  29  30
HETATM   30  C6  UNL     1      21.971  -0.172  52.503  1.00  0.00    -0.058 A 
HETATM   31  C7  UNL     1      23.266  -0.265  52.982  1.00  0.00     0.007 A 
HETATM   32  C8  UNL     1      23.513  -0.738  54.252  1.00  0.00     0.001 A 
HETATM   33  C9  UNL     1      22.492  -1.129  55.076  1.00  0.00     0.000 A 
HETATM   34  C10 UNL     1      21.178  -1.050  54.633  1.00  0.00     0.001 A 
HETATM   35  C11 UNL     1      20.943  -0.570  53.345  1.00  0.00     0.007 A 
ENDBRANCH  29  30
ENDBRANCH  28  29
ENDBRANCH   4  28
TORSDOF 9
ENDMDL
MODEL 8
REMARK VINA RESULT:      -8.1      3.114      5.662
REMARK  9 active torsions:
REMARK  status: ('A' for Active; 'I' for Inactive)
REMARK    1  A    between atoms: N1_1  and  C1_2 
REMARK    2  A    between atoms: C1_2  and  N2_3 
REMARK    3  A    between atoms: C3_6  and  C4_7 
REMARK    4  A    between atoms: C4_7  and  C5_8 
REMARK    5  A    between atoms: C5_8  and  C6_9 
REMARK    6  A    between atoms: C14_17  and  N4_18 
REMARK    7  A    between atoms: C14_17  and  N5_19 
REMARK    8  A    between atoms: N5_19  and  C15_20 
REMARK    9  A    between atoms: C19_24  and  C20_25 
ROOT
HETATM    1  N2  UNL     1      20.121  -0.317  53.380  1.00  0.00    -0.242 NA
HETATM    2  C2  UNL     1      21.380  -0.042  53.355  1.00  0.00     0.138 A 
HETATM    3  N3  UNL     1      22.475  -0.896  53.711  1.00  0.00    -0.344 N 
HETATM    4  C3  UNL     1      23.697  -0.187  53.535  1.00  0.00     0.012 A 
HETATM    5  C12 UNL     1      23.412   1.041  53.096  1.00  0.00     0.044 A 
HETATM    6  C13 UNL     1      21.972   1.229  52.950  1.00  0.00     0.055 A 
HETATM    7  C14 UNL     1      21.309   2.280  52.550  1.00  0.00     0.113 C 
HETATM    8  H5  UNL     1      22.423  -1.878  54.047  1.00  0.00     0.167 HD
ENDROOT
BRANCH   7   9
HETATM    9  N4  UNL     1      19.889   2.221  52.491  1.00  0.00    -0.385 N 
HETATM   10  H16 UNL     1      19.142   1.484  52.371  1.00  0.00     0.157 HD
HETATM   11  H17 UNL     1      19.594   3.214  52.605  1.00  0.00     0.157 HD
ENDBRANCH   7   9
BRANCH   7  12
HETATM   12  N5  UNL     1      21.964   3.484  52.171  1.00  0.00    -0.342 N 
HETATM   13  H18 UNL     1      21.822   4.181  52.934  1.00  0.00     0.167 HD
BRANCH  12  14
HETATM   14  C15 UNL     1      22.677   3.709  50.981  1.00  0.00     0.034 A 
HETATM   15  C16 UNL     1      21.958   4.043  49.851  1.00  0.00     0.029 A 
HETATM   16  C17 UNL     1      22.712   4.256  48.698  1.00  0.00     0.003 A 
HETATM   17  C18 UNL     1      24.093   4.135  48.710  1.00  0.00     0.016 A 
HETATM   18  C19 UNL     1      24.763   3.796  49.876  1.00  0.00     0.050 A 
HETATM   19  C21 UNL     1      24.048   3.572  51.059  1.00  0.00     0.045 A 
BRANCH  18  20
HETATM   20  C20 UNL     1      26.245   3.652  49.944  1.00  0.00     0.417 C 
HETATM   21  F1  UNL     1      26.836   4.904  49.761  1.00  0.00    -0.166 F 
HETATM   22  F2  UNL     1      26.553   3.184  51.214  1.00  0.00    -0.166 F 
HETATM   23  F3  UNL     1      26.727   2.821  48.953  1.00  0.00    -0.166 F 
ENDBRANCH  18  20
ENDBRANCH  12  14
ENDBRANCH   7  12
BRANCH   1  24
HETATM   24  C1  UNL     1      19.657  -1.617  53.801  1.00  0.00     0.417 C 
BRANCH  24  25
HETATM   25  N1  UNL     1      18.216  -1.715  53.858  1.00  0.00     0.097 N 
HETATM   26  H1  UNL     1      17.794  -0.868  53.465  1.00  0.00     0.315 HD
HETATM   27  H2  UNL     1      17.830  -2.065  54.740  1.00  0.00     0.315 HD
ENDBRANCH  24  25
ENDBRANCH   1  24
BRANCH   4  28
HETATM   28  C4  UNL     1      25.063  -0.726  53.797  1.00  0.00     0.062 C 
BRANCH  28  29
HETATM   29  C5  UNL     1      25.923  -0.652  52.541  1.00  0.00     0.044 C 
BRANCH  29  30
HETATM   30  C6  UNL     1      27.329  -0.660  52.956  1.00  0.00    -0.058 A 
HETATM   31  C7  UNL     1      28.019   0.473  53.350  1.00  0.00     0.007 A 
HETATM   32  C8  UNL     1      29.342   0.393  53.728  1.00  0.00     0.001 A 
HETATM   33  C9  UNL     1      30.012  -0.801  53.725  1.00  0.00     0.000 A 
HETATM   34  C10 UNL     1      29.354  -1.961  53.336  1.00  0.00     0.001 A 
HETATM   35  C11 UNL     1      28.016  -1.865  52.955  1.00  0.00     0.007 A 
ENDBRANCH  29  30
ENDBRANCH  28  29
ENDBRANCH   4  28
TORSDOF 9
ENDMDL
MODEL 9
REMARK VINA RESULT:      -7.9      4.012      8.153
REMARK  9 active torsions:
REMARK  status: ('A' for Active; 'I' for Inactive)
REMARK    1  A    between atoms: N1_1  and  C1_2 
REMARK    2  A    between atoms: C1_2  and  N2_3 
REMARK    3  A    between atoms: C3_6  and  C4_7 
REMARK    4  A    between atoms: C4_7  and  C5_8 
REMARK    5  A    between atoms: C5_8  and  C6_9 
REMARK    6  A    between atoms: C14_17  and  N4_18 
REMARK    7  A    between atoms: C14_17  and  N5_19 
REMARK    8  A    between atoms: N5_19  and  C15_20 
REMARK    9  A    between atoms: C19_24  and  C20_25 
ROOT
HETATM    1  N2  UNL     1      26.654   1.054  53.782  1.00  0.00    -0.242 NA
HETATM    2  C2  UNL     1      25.503   0.981  53.209  1.00  0.00     0.138 A 
HETATM    3  N3  UNL     1      24.392   0.148  53.567  1.00  0.00    -0.344 N 
HETATM    4  C3  UNL     1      23.318   0.387  52.663  1.00  0.00     0.012 A 
HETATM    5  C12 UNL     1      23.708   1.311  51.781  1.00  0.00     0.044 A 
HETATM    6  C13 UNL     1      25.075   1.748  52.044  1.00  0.00     0.055 A 
HETATM    7  C14 UNL     1      25.801   2.628  51.408  1.00  0.00     0.113 C 
HETATM    8  H5  UNL     1      24.343  -0.531  54.353  1.00  0.00     0.167 HD
ENDROOT
BRANCH   7   9
HETATM    9  N4  UNL     1      27.126   2.887  51.858  1.00  0.00    -0.385 N 
HETATM   10  H16 UNL     1      27.842   2.427  52.482  1.00  0.00     0.157 HD
HETATM   11  H17 UNL     1      27.371   3.791  51.400  1.00  0.00     0.157 HD
ENDBRANCH   7   9
BRANCH   7  12
HETATM   12  N5  UNL     1      25.308   3.335  50.277  1.00  0.00    -0.342 N 
HETATM   13  H18 UNL     1      24.533   2.774  49.860  1.00  0.00     0.167 HD
BRANCH  12  14
HETATM   14  C15 UNL     1      25.773   4.570  49.795  1.00  0.00     0.034 A 
HETATM   15  C16 UNL     1      26.883   4.565  48.975  1.00  0.00     0.029 A 
HETATM   16  C17 UNL     1      27.305   5.816  48.524  1.00  0.00     0.003 A 
HETATM   17  C18 UNL     1      26.637   6.974  48.889  1.00  0.00     0.016 A 
HETATM   18  C19 UNL     1      25.525   6.918  49.717  1.00  0.00     0.050 A 
HETATM   19  C21 UNL     1      25.065   5.686  50.195  1.00  0.00     0.045 A 
BRANCH  18  20
HETATM   20  C20 UNL     1      24.771   8.132  50.140  1.00  0.00     0.417 C 
HETATM   21  F1  UNL     1      24.017   7.829  51.276  1.00  0.00    -0.166 F 
HETATM   22  F2  UNL     1      25.709   9.104  50.463  1.00  0.00    -0.166 F 
HETATM   23  F3  UNL     1      23.894   8.559  49.164  1.00  0.00    -0.166 F 
ENDBRANCH  18  20
ENDBRANCH  12  14
ENDBRANCH   7  12
BRANCH   1  24
HETATM   24  C1  UNL     1      26.960   0.240  54.935  1.00  0.00     0.417 C 
BRANCH  24  25
HETATM   25  N1  UNL     1      28.270  -0.366  54.872  1.00  0.00     0.097 N 
HETATM   26  H1  UNL     1      28.218  -1.340  55.189  1.00  0.00     0.315 HD
HETATM   27  H2  UNL     1      29.040   0.204  55.233  1.00  0.00     0.315 HD
ENDBRANCH  24  25
ENDBRANCH   1  24
BRANCH   4  28
HETATM   28  C4  UNL     1      21.985  -0.280  52.698  1.00  0.00     0.062 C 
BRANCH  28  29
HETATM   29  C5  UNL     1      20.892   0.714  53.071  1.00  0.00     0.044 C 
BRANCH  29  30
HETATM   30  C6  UNL     1      19.649   0.284  52.422  1.00  0.00    -0.058 A 
HETATM   31  C7  UNL     1      18.764  -0.620  52.983  1.00  0.00     0.007 A 
HETATM   32  C8  UNL     1      17.614  -0.981  52.316  1.00  0.00     0.001 A 
HETATM   33  C9  UNL     1      17.311  -0.462  51.086  1.00  0.00     0.000 A 
HETATM   34  C10 UNL     1      18.174   0.449  50.490  1.00  0.00     0.001 A 
HETATM   35  C11 UNL     1      19.335   0.805  51.176  1.00  0.00     0.007 A 
ENDBRANCH  29  30
ENDBRANCH  28  29
ENDBRANCH   4  28
TORSDOF 9
ENDMDL
