MODEL 1
REMARK VINA RESULT:      -9.4      0.000      0.000
REMARK  6 active torsions:
REMARK  status: ('A' for Active; 'I' for Inactive)
REMARK    1  A    between atoms: N1_2  and  C2_3 
REMARK    2  A    between atoms: C2_3  and  C3_4 
REMARK    3  A    between atoms: C4_5  and  C5_6 
REMARK       I    between atoms: C5_6  and  N2_8 
REMARK    4  A    between atoms: N2_8  and  C6_9 
REMARK    5  A    between atoms: C12_18  and  N6_19 
REMARK    6  A    between atoms: N6_19  and  C13_20 
ROOT
HETATM    1  C6  UNL     1      24.633  -0.737  54.508  1.00  0.00     0.053 A 
HETATM    2  C7  UNL     1      23.862  -1.384  55.460  1.00  0.00     0.148 A 
HETATM    3  N3  UNL     1      22.530  -1.473  55.379  1.00  0.00    -0.238 NA
HETATM    4  C8  UNL     1      21.825  -0.942  54.367  1.00  0.00     0.161 A 
HETATM    5  N4  UNL     1      20.485  -1.061  54.334  1.00  0.00    -0.239 NA
HETATM    6  C9  UNL     1      19.740  -0.545  53.339  1.00  0.00     0.144 A 
HETATM    7  C10 UNL     1      20.433   0.118  52.343  1.00  0.00     0.089 A 
HETATM    8  C11 UNL     1      19.648   0.677  51.269  1.00  0.00     0.103 C 
HETATM    9  N5  UNL     1      19.010   1.115  50.385  1.00  0.00    -0.191 NA
HETATM   10  C12 UNL     1      21.801   0.268  52.328  1.00  0.00     0.069 A 
HETATM   11  C19 UNL     1      22.501  -0.279  53.370  1.00  0.00     0.042 A 
HETATM   12  C20 UNL     1      23.873  -0.209  53.489  1.00  0.00     0.048 A 
ENDROOT
BRANCH  10  13
HETATM   13  N6  UNL     1      22.481   0.950  51.303  1.00  0.00    -0.354 N 
HETATM   14  H12 UNL     1      22.593   0.328  50.497  1.00  0.00     0.166 HD
BRANCH  13  15
HETATM   15  C13 UNL     1      22.950   2.291  51.349  1.00  0.00     0.033 A 
HETATM   16  C14 UNL     1      22.304   3.206  52.148  1.00  0.00     0.029 A 
HETATM   17  C15 UNL     1      22.753   4.496  52.194  1.00  0.00     0.004 A 
HETATM   18  C16 UNL     1      23.862   4.884  51.433  1.00  0.00     0.019 A 
HETATM   19  C17 UNL     1      24.465   3.920  50.653  1.00  0.00     0.013 A 
HETATM   20 BR1  UNL     1      25.993   4.378  49.581  1.00  0.00    -0.051 Br
HETATM   21  C18 UNL     1      24.043   2.598  50.576  1.00  0.00     0.048 A 
ENDBRANCH  13  15
ENDBRANCH  10  13
BRANCH   1  22
HETATM   22  N2  UNL     1      26.025  -0.657  54.614  1.00  0.00    -0.322 N 
HETATM   23  C5  UNL     1      26.969   0.389  54.738  1.00  0.00     0.245 C 
HETATM   24  O1  UNL     1      26.378   1.518  54.753  1.00  0.00    -0.268 OA
HETATM   25  H9  UNL     1      26.509  -1.603  54.600  1.00  0.00     0.169 HD
BRANCH  23  26
HETATM   26  C4  UNL     1      28.402   0.185  54.833  1.00  0.00     0.072 C 
HETATM   27  C3  UNL     1      29.379  -0.524  54.245  1.00  0.00     0.008 C 
BRANCH  27  28
HETATM   28  C2  UNL     1      29.695  -1.494  53.206  1.00  0.00     0.296 C 
BRANCH  28  29
HETATM   29  N1  UNL     1      28.968  -2.753  53.335  1.00  0.00     0.082 N 
HETATM   30  C1  UNL     1      27.718  -2.662  52.610  1.00  0.00     0.307 C 
HETATM   31  H4  UNL     1      28.715  -2.885  54.343  1.00  0.00     0.315 HD
ENDBRANCH  28  29
ENDBRANCH  27  28
ENDBRANCH  23  26
ENDBRANCH   1  22
TORSDOF 6
ENDMDL
MODEL 2
REMARK VINA RESULT:      -8.9      3.172      6.422
REMARK  6 active torsions:
REMARK  status: ('A' for Active; 'I' for Inactive)
REMARK    1  A    between atoms: N1_2  and  C2_3 
REMARK    2  A    between atoms: C2_3  and  C3_4 
REMARK    3  A    between atoms: C4_5  and  C5_6 
REMARK       I    between atoms: C5_6  and  N2_8 
REMARK    4  A    between atoms: N2_8  and  C6_9 
REMARK    5  A    between atoms: C12_18  and  N6_19 
REMARK    6  A    between atoms: N6_19  and  C13_20 
ROOT
HETATM    1  C6  UNL     1      23.999   2.968  49.824  1.00  0.00     0.053 A 
HETATM    2  C7  UNL     1      22.874   2.648  49.080  1.00  0.00     0.148 A 
HETATM    3  N3  UNL     1      21.941   1.790  49.505  1.00  0.00    -0.238 NA
HETATM    4  C8  UNL     1      22.014   1.164  50.691  1.00  0.00     0.161 A 
HETATM    5  N4  UNL     1      21.046   0.310  51.070  1.00  0.00    -0.239 NA
HETATM    6  C9  UNL     1      21.079  -0.339  52.249  1.00  0.00     0.144 A 
HETATM    7  C10 UNL     1      22.170  -0.076  53.056  1.00  0.00     0.089 A 
HETATM    8  C11 UNL     1      22.220  -0.763  54.324  1.00  0.00     0.103 C 
HETATM    9  N5  UNL     1      22.250  -1.308  55.365  1.00  0.00    -0.191 NA
HETATM   10  C12 UNL     1      23.186   0.789  52.717  1.00  0.00     0.069 A 
HETATM   11  C19 UNL     1      23.094   1.416  51.504  1.00  0.00     0.042 A 
HETATM   12  C20 UNL     1      24.034   2.306  51.030  1.00  0.00     0.048 A 
ENDROOT
BRANCH  10  13
HETATM   13  N6  UNL     1      24.286   1.037  53.558  1.00  0.00    -0.354 N 
HETATM   14  H12 UNL     1      24.012   1.698  54.290  1.00  0.00     0.166 HD
BRANCH  13  15
HETATM   15  C13 UNL     1      25.586   0.474  53.434  1.00  0.00     0.033 A 
HETATM   16  C14 UNL     1      25.726  -0.798  52.927  1.00  0.00     0.029 A 
HETATM   17  C15 UNL     1      26.974  -1.342  52.808  1.00  0.00     0.004 A 
HETATM   18  C16 UNL     1      28.102  -0.611  53.199  1.00  0.00     0.019 A 
HETATM   19  C17 UNL     1      27.894   0.658  53.699  1.00  0.00     0.013 A 
HETATM   20 BR1  UNL     1      29.395   1.721  54.255  1.00  0.00    -0.051 Br
HETATM   21  C18 UNL     1      26.645   1.250  53.837  1.00  0.00     0.048 A 
ENDBRANCH  13  15
ENDBRANCH  10  13
BRANCH   1  22
HETATM   22  N2  UNL     1      24.962   3.869  49.358  1.00  0.00    -0.322 N 
HETATM   23  C5  UNL     1      26.374   3.940  49.388  1.00  0.00     0.245 C 
HETATM   24  O1  UNL     1      26.856   2.926  49.990  1.00  0.00    -0.268 OA
HETATM   25  H9  UNL     1      24.551   4.712  48.858  1.00  0.00     0.169 HD
BRANCH  23  26
HETATM   26  C4  UNL     1      27.146   5.023  48.808  1.00  0.00     0.072 C 
HETATM   27  C3  UNL     1      27.125   6.362  48.714  1.00  0.00     0.008 C 
BRANCH  27  28
HETATM   28  C2  UNL     1      26.408   7.577  49.074  1.00  0.00     0.296 C 
BRANCH  28  29
HETATM   29  N1  UNL     1      26.745   8.090  50.398  1.00  0.00     0.082 N 
HETATM   30  C1  UNL     1      27.460   9.341  50.260  1.00  0.00     0.307 C 
HETATM   31  H4  UNL     1      27.410   7.419  50.850  1.00  0.00     0.315 HD
ENDBRANCH  28  29
ENDBRANCH  27  28
ENDBRANCH  23  26
ENDBRANCH   1  22
TORSDOF 6
ENDMDL
MODEL 3
REMARK VINA RESULT:      -8.5      2.875      5.642
REMARK  6 active torsions:
REMARK  status: ('A' for Active; 'I' for Inactive)
REMARK    1  A    between atoms: N1_2  and  C2_3 
REMARK    2  A    between atoms: C2_3  and  C3_4 
REMARK    3  A    between atoms: C4_5  and  C5_6 
REMARK       I    between atoms: C5_6  and  N2_8 
REMARK    4  A    between atoms: N2_8  and  C6_9 
REMARK    5  A    between atoms: C12_18  and  N6_19 
REMARK    6  A    between atoms: N6_19  and  C13_20 
ROOT
HETATM    1  C6  UNL     1      26.831   2.162  52.193  1.00  0.00     0.053 A 
HETATM    2  C7  UNL     1      27.699   1.937  53.250  1.00  0.00     0.148 A 
HETATM    3  N3  UNL     1      27.395   1.147  54.286  1.00  0.00    -0.238 NA
HETATM    4  C8  UNL     1      26.221   0.505  54.390  1.00  0.00     0.161 A 
HETATM    5  N4  UNL     1      25.966  -0.278  55.455  1.00  0.00    -0.239 NA
HETATM    6  C9  UNL     1      24.803  -0.941  55.600  1.00  0.00     0.144 A 
HETATM    7  C10 UNL     1      23.878  -0.772  54.586  1.00  0.00     0.089 A 
HETATM    8  C11 UNL     1      22.626  -1.476  54.727  1.00  0.00     0.103 C 
HETATM    9  N5  UNL     1      21.615  -2.065  54.833  1.00  0.00    -0.191 NA
HETATM   10  C12 UNL     1      24.088   0.016  53.477  1.00  0.00     0.069 A 
HETATM   11  C19 UNL     1      25.291   0.664  53.390  1.00  0.00     0.042 A 
HETATM   12  C20 UNL     1      25.642   1.485  52.340  1.00  0.00     0.048 A 
ENDROOT
BRANCH  10  13
HETATM   13  N6  UNL     1      23.128   0.170  52.461  1.00  0.00    -0.354 N 
HETATM   14  H12 UNL     1      23.275  -0.544  51.743  1.00  0.00     0.166 HD
BRANCH  13  15
HETATM   15  C13 UNL     1      22.103   1.155  52.412  1.00  0.00     0.033 A 
HETATM   16  C14 UNL     1      20.798   0.784  52.640  1.00  0.00     0.029 A 
HETATM   17  C15 UNL     1      19.811   1.728  52.593  1.00  0.00     0.004 A 
HETATM   18  C16 UNL     1      20.126   3.063  52.314  1.00  0.00     0.019 A 
HETATM   19  C17 UNL     1      21.452   3.370  52.093  1.00  0.00     0.013 A 
HETATM   20 BR1  UNL     1      21.960   5.182  51.704  1.00  0.00    -0.051 Br
HETATM   21  C18 UNL     1      22.487   2.444  52.132  1.00  0.00     0.048 A 
ENDBRANCH  13  15
ENDBRANCH  10  13
BRANCH   1  22
HETATM   22  N2  UNL     1      27.172   2.991  51.120  1.00  0.00    -0.322 N 
HETATM   23  C5  UNL     1      26.484   3.546  50.016  1.00  0.00     0.245 C 
HETATM   24  O1  UNL     1      25.262   3.184  50.029  1.00  0.00    -0.268 OA
HETATM   25  H9  UNL     1      28.193   3.288  51.117  1.00  0.00     0.169 HD
BRANCH  23  26
HETATM   26  C4  UNL     1      27.100   4.403  49.021  1.00  0.00     0.072 C 
HETATM   27  C3  UNL     1      27.133   5.696  48.659  1.00  0.00     0.008 C 
BRANCH  27  28
HETATM   28  C2  UNL     1      26.640   7.034  48.953  1.00  0.00     0.296 C 
BRANCH  28  29
HETATM   29  N1  UNL     1      26.377   7.267  50.369  1.00  0.00     0.082 N 
HETATM   30  C1  UNL     1      24.957   7.144  50.621  1.00  0.00     0.307 C 
HETATM   31  H4  UNL     1      26.631   8.259  50.591  1.00  0.00     0.315 HD
ENDBRANCH  28  29
ENDBRANCH  27  28
ENDBRANCH  23  26
ENDBRANCH   1  22
TORSDOF 6
ENDMDL
MODEL 4
REMARK VINA RESULT:      -8.2      2.331      6.449
REMARK  6 active torsions:
REMARK  status: ('A' for Active; 'I' for Inactive)
REMARK    1  A    between atoms: N1_2  and  C2_3 
REMARK    2  A    between atoms: C2_3  and  C3_4 
REMARK    3  A    between atoms: C4_5  and  C5_6 
REMARK       I    between atoms: C5_6  and  N2_8 
REMARK    4  A    between atoms: N2_8  and  C6_9 
REMARK    5  A    between atoms: C12_18  and  N6_19 
REMARK    6  A    between atoms: N6_19  and  C13_20 
ROOT
HETATM    1  C6  UNL     1      22.082  -0.517  53.277  1.00  0.00     0.053 A 
HETATM    2  C7  UNL     1      22.337  -1.263  54.418  1.00  0.00     0.148 A 
HETATM    3  N3  UNL     1      23.522  -1.263  55.037  1.00  0.00    -0.238 NA
HETATM    4  C8  UNL     1      24.569  -0.541  54.606  1.00  0.00     0.161 A 
HETATM    5  N4  UNL     1      25.740  -0.578  55.268  1.00  0.00    -0.239 NA
HETATM    6  C9  UNL     1      26.814   0.131  54.872  1.00  0.00     0.144 A 
HETATM    7  C10 UNL     1      26.645   0.906  53.739  1.00  0.00     0.089 A 
HETATM    8  C11 UNL     1      27.787   1.671  53.301  1.00  0.00     0.103 C 
HETATM    9  N5  UNL     1      28.713   2.309  52.957  1.00  0.00    -0.191 NA
HETATM   10  C12 UNL     1      25.470   0.980  53.026  1.00  0.00     0.069 A 
HETATM   11  C19 UNL     1      24.416   0.234  53.480  1.00  0.00     0.042 A 
HETATM   12  C20 UNL     1      23.180   0.208  52.871  1.00  0.00     0.048 A 
ENDROOT
BRANCH  10  13
HETATM   13  N6  UNL     1      25.327   1.776  51.876  1.00  0.00    -0.354 N 
HETATM   14  H12 UNL     1      25.931   1.414  51.134  1.00  0.00     0.166 HD
BRANCH  13  15
HETATM   15  C13 UNL     1      24.483   2.913  51.736  1.00  0.00     0.033 A 
HETATM   16  C14 UNL     1      24.169   3.662  52.848  1.00  0.00     0.029 A 
HETATM   17  C15 UNL     1      23.358   4.754  52.717  1.00  0.00     0.004 A 
HETATM   18  C16 UNL     1      22.850   5.107  51.461  1.00  0.00     0.019 A 
HETATM   19  C17 UNL     1      23.201   4.316  50.388  1.00  0.00     0.013 A 
HETATM   20 BR1  UNL     1      22.541   4.739  48.634  1.00  0.00    -0.051 Br
HETATM   21  C18 UNL     1      24.022   3.198  50.475  1.00  0.00     0.048 A 
ENDBRANCH  13  15
ENDBRANCH  10  13
BRANCH   1  22
HETATM   22  N2  UNL     1      20.834  -0.532  52.647  1.00  0.00    -0.322 N 
HETATM   23  C5  UNL     1      19.833   0.427  52.371  1.00  0.00     0.245 C 
HETATM   24  O1  UNL     1      20.180   1.570  52.815  1.00  0.00    -0.268 OA
HETATM   25  H9  UNL     1      20.553  -1.489  52.280  1.00  0.00     0.169 HD
BRANCH  23  26
HETATM   26  C4  UNL     1      18.593   0.133  51.677  1.00  0.00     0.072 C 
HETATM   27  C3  UNL     1      17.441  -0.529  51.871  1.00  0.00     0.008 C 
BRANCH  27  28
HETATM   28  C2  UNL     1      16.669  -1.341  52.801  1.00  0.00     0.296 C 
BRANCH  28  29
HETATM   29  N1  UNL     1      17.481  -2.022  53.804  1.00  0.00     0.082 N 
HETATM   30  C1  UNL     1      17.364  -3.453  53.626  1.00  0.00     0.307 C 
HETATM   31  H4  UNL     1      17.083  -1.809  54.749  1.00  0.00     0.315 HD
ENDBRANCH  28  29
ENDBRANCH  27  28
ENDBRANCH  23  26
ENDBRANCH   1  22
TORSDOF 6
ENDMDL
MODEL 5
REMARK VINA RESULT:      -8.1      4.408      7.405
REMARK  6 active torsions:
REMARK  status: ('A' for Active; 'I' for Inactive)
REMARK    1  A    between atoms: N1_2  and  C2_3 
REMARK    2  A    between atoms: C2_3  and  C3_4 
REMARK    3  A    between atoms: C4_5  and  C5_6 
REMARK       I    between atoms: C5_6  and  N2_8 
REMARK    4  A    between atoms: N2_8  and  C6_9 
REMARK    5  A    between atoms: C12_18  and  N6_19 
REMARK    6  A    between atoms: N6_19  and  C13_20 
ROOT
HETATM    1  C6  UNL     1      25.678   5.458  50.047  1.00  0.00     0.053 A 
HETATM    2  C7  UNL     1      24.511   6.132  50.370  1.00  0.00     0.148 A 
HETATM    3  N3  UNL     1      23.511   5.568  51.057  1.00  0.00    -0.238 NA
HETATM    4  C8  UNL     1      23.552   4.299  51.492  1.00  0.00     0.161 A 
HETATM    5  N4  UNL     1      22.517   3.781  52.178  1.00  0.00    -0.239 NA
HETATM    6  C9  UNL     1      22.516   2.514  52.634  1.00  0.00     0.144 A 
HETATM    7  C10 UNL     1      23.647   1.769  52.355  1.00  0.00     0.089 A 
HETATM    8  C11 UNL     1      23.661   0.409  52.837  1.00  0.00     0.103 C 
HETATM    9  N5  UNL     1      23.680  -0.693  53.246  1.00  0.00    -0.191 NA
HETATM   10  C12 UNL     1      24.732   2.249  51.659  1.00  0.00     0.069 A 
HETATM   11  C19 UNL     1      24.670   3.545  51.221  1.00  0.00     0.042 A 
HETATM   12  C20 UNL     1      25.679   4.162  50.513  1.00  0.00     0.048 A 
ENDROOT
BRANCH  10  13
HETATM   13  N6  UNL     1      25.870   1.468  51.388  1.00  0.00    -0.354 N 
HETATM   14  H12 UNL     1      25.790   1.063  50.452  1.00  0.00     0.166 HD
BRANCH  13  15
HETATM   15  C13 UNL     1      26.973   1.256  52.260  1.00  0.00     0.033 A 
HETATM   16  C14 UNL     1      27.511   2.323  52.942  1.00  0.00     0.029 A 
HETATM   17  C15 UNL     1      28.572   2.122  53.780  1.00  0.00     0.004 A 
HETATM   18  C16 UNL     1      29.108   0.839  53.943  1.00  0.00     0.019 A 
HETATM   19  C17 UNL     1      28.524  -0.187  53.231  1.00  0.00     0.013 A 
HETATM   20 BR1  UNL     1      29.206  -1.976  53.404  1.00  0.00    -0.051 Br
HETATM   21  C18 UNL     1      27.446  -0.029  52.370  1.00  0.00     0.048 A 
ENDBRANCH  13  15
ENDBRANCH  10  13
BRANCH   1  22
HETATM   22  N2  UNL     1      26.710   6.068  49.329  1.00  0.00    -0.322 N 
HETATM   23  C5  UNL     1      27.824   5.617  48.583  1.00  0.00     0.245 C 
HETATM   24  O1  UNL     1      27.871   4.344  48.585  1.00  0.00    -0.268 OA
HETATM   25  H9  UNL     1      26.663   7.130  49.334  1.00  0.00     0.169 HD
BRANCH  23  26
HETATM   26  C4  UNL     1      28.767   6.496  47.918  1.00  0.00     0.072 C 
HETATM   27  C3  UNL     1      29.116   7.792  47.886  1.00  0.00     0.008 C 
BRANCH  27  28
HETATM   28  C2  UNL     1      28.846   9.117  48.425  1.00  0.00     0.296 C 
BRANCH  28  29
HETATM   29  N1  UNL     1      28.791   9.161  49.882  1.00  0.00     0.082 N 
HETATM   30  C1  UNL     1      27.417   9.334  50.306  1.00  0.00     0.307 C 
HETATM   31  H4  UNL     1      29.308  10.013  50.205  1.00  0.00     0.315 HD
ENDBRANCH  28  29
ENDBRANCH  27  28
ENDBRANCH  23  26
ENDBRANCH   1  22
TORSDOF 6
ENDMDL
MODEL 6
REMARK VINA RESULT:      -8.1      3.837      6.255
REMARK  6 active torsions:
REMARK  status: ('A' for Active; 'I' for Inactive)
REMARK    1  A    between atoms: N1_2  and  C2_3 
REMARK    2  A    between atoms: C2_3  and  C3_4 
REMARK    3  A    between atoms: C4_5  and  C5_6 
REMARK       I    between atoms: C5_6  and  N2_8 
REMARK    4  A    between atoms: N2_8  and  C6_9 
REMARK    5  A    between atoms: C12_18  and  N6_19 
REMARK    6  A    between atoms: N6_19  and  C13_20 
ROOT
HETATM    1  C6  UNL     1      25.910   2.956  51.430  1.00  0.00     0.053 A 
HETATM    2  C7  UNL     1      27.059   2.236  51.718  1.00  0.00     0.148 A 
HETATM    3  N3  UNL     1      27.051   1.117  52.451  1.00  0.00    -0.238 NA
HETATM    4  C8  UNL     1      25.928   0.595  52.971  1.00  0.00     0.161 A 
HETATM    5  N4  UNL     1      25.976  -0.534  53.701  1.00  0.00    -0.239 NA
HETATM    6  C9  UNL     1      24.876  -1.091  54.240  1.00  0.00     0.144 A 
HETATM    7  C10 UNL     1      23.683  -0.435  53.999  1.00  0.00     0.089 A 
HETATM    8  C11 UNL     1      22.494  -1.020  54.569  1.00  0.00     0.103 C 
HETATM    9  N5  UNL     1      21.524  -1.508  55.018  1.00  0.00    -0.191 NA
HETATM   10  C12 UNL     1      23.578   0.721  53.259  1.00  0.00     0.069 A 
HETATM   11  C19 UNL     1      24.734   1.238  52.739  1.00  0.00     0.042 A 
HETATM   12  C20 UNL     1      24.784   2.387  51.980  1.00  0.00     0.048 A 
ENDROOT
BRANCH  10  13
HETATM   13  N6  UNL     1      22.350   1.368  53.030  1.00  0.00    -0.354 N 
HETATM   14  H12 UNL     1      22.206   2.086  53.745  1.00  0.00     0.166 HD
BRANCH  13  15
HETATM   15  C13 UNL     1      21.434   1.091  51.978  1.00  0.00     0.033 A 
HETATM   16  C14 UNL     1      21.829   1.275  50.672  1.00  0.00     0.029 A 
HETATM   17  C15 UNL     1      20.950   1.010  49.659  1.00  0.00     0.004 A 
HETATM   18  C16 UNL     1      19.658   0.556  49.949  1.00  0.00     0.019 A 
HETATM   19  C17 UNL     1      19.324   0.393  51.277  1.00  0.00     0.013 A 
HETATM   20 BR1  UNL     1      17.568  -0.228  51.751  1.00  0.00    -0.051 Br
HETATM   21  C18 UNL     1      20.184   0.649  52.337  1.00  0.00     0.048 A 
ENDBRANCH  13  15
ENDBRANCH  10  13
BRANCH   1  22
HETATM   22  N2  UNL     1      25.943   4.123  50.660  1.00  0.00    -0.322 N 
HETATM   23  C5  UNL     1      26.568   4.520  49.456  1.00  0.00     0.245 C 
HETATM   24  O1  UNL     1      27.262   3.562  48.981  1.00  0.00    -0.268 OA
HETATM   25  H9  UNL     1      25.362   4.917  51.064  1.00  0.00     0.169 HD
BRANCH  23  26
HETATM   26  C4  UNL     1      26.427   5.835  48.860  1.00  0.00     0.072 C 
HETATM   27  C3  UNL     1      27.188   6.829  48.375  1.00  0.00     0.008 C 
BRANCH  27  28
HETATM   28  C2  UNL     1      28.549   7.277  48.116  1.00  0.00     0.296 C 
BRANCH  28  29
HETATM   29  N1  UNL     1      29.556   6.601  48.927  1.00  0.00     0.082 N 
HETATM   30  C1  UNL     1      30.296   5.673  48.098  1.00  0.00     0.307 C 
HETATM   31  H4  UNL     1      29.064   6.024  49.649  1.00  0.00     0.315 HD
ENDBRANCH  28  29
ENDBRANCH  27  28
ENDBRANCH  23  26
ENDBRANCH   1  22
TORSDOF 6
ENDMDL
MODEL 7
REMARK VINA RESULT:      -8.0      3.306      5.980
REMARK  6 active torsions:
REMARK  status: ('A' for Active; 'I' for Inactive)
REMARK    1  A    between atoms: N1_2  and  C2_3 
REMARK    2  A    between atoms: C2_3  and  C3_4 
REMARK    3  A    between atoms: C4_5  and  C5_6 
REMARK       I    between atoms: C5_6  and  N2_8 
REMARK    4  A    between atoms: N2_8  and  C6_9 
REMARK    5  A    between atoms: C12_18  and  N6_19 
REMARK    6  A    between atoms: N6_19  and  C13_20 
ROOT
HETATM    1  C6  UNL     1      26.052   2.756  51.602  1.00  0.00     0.053 A 
HETATM    2  C7  UNL     1      27.103   1.996  52.091  1.00  0.00     0.148 A 
HETATM    3  N3  UNL     1      26.924   0.928  52.877  1.00  0.00    -0.238 NA
HETATM    4  C8  UNL     1      25.710   0.502  53.260  1.00  0.00     0.161 A 
HETATM    5  N4  UNL     1      25.588  -0.579  54.052  1.00  0.00    -0.239 NA
HETATM    6  C9  UNL     1      24.391  -1.042  54.460  1.00  0.00     0.144 A 
HETATM    7  C10 UNL     1      23.286  -0.339  54.016  1.00  0.00     0.089 A 
HETATM    8  C11 UNL     1      21.996  -0.823  54.444  1.00  0.00     0.103 C 
HETATM    9  N5  UNL     1      20.944  -1.228  54.779  1.00  0.00    -0.191 NA
HETATM   10  C12 UNL     1      23.355   0.771  53.205  1.00  0.00     0.069 A 
HETATM   11  C19 UNL     1      24.602   1.191  52.827  1.00  0.00     0.042 A 
HETATM   12  C20 UNL     1      24.827   2.284  52.018  1.00  0.00     0.048 A 
ENDROOT
BRANCH  10  13
HETATM   13  N6  UNL     1      22.214   1.467  52.769  1.00  0.00    -0.354 N 
HETATM   14  H12 UNL     1      21.720   1.853  53.578  1.00  0.00     0.166 HD
BRANCH  13  15
HETATM   15  C13 UNL     1      21.788   1.627  51.421  1.00  0.00     0.033 A 
HETATM   16  C14 UNL     1      21.651   0.516  50.619  1.00  0.00     0.029 A 
HETATM   17  C15 UNL     1      21.242   0.667  49.324  1.00  0.00     0.004 A 
HETATM   18  C16 UNL     1      20.964   1.942  48.817  1.00  0.00     0.019 A 
HETATM   19  C17 UNL     1      21.121   3.013  49.671  1.00  0.00     0.013 A 
HETATM   20 BR1  UNL     1      20.757   4.793  49.045  1.00  0.00    -0.051 Br
HETATM   21  C18 UNL     1      21.533   2.907  50.993  1.00  0.00     0.048 A 
ENDBRANCH  13  15
ENDBRANCH  10  13
BRANCH   1  22
HETATM   22  N2  UNL     1      26.263   3.868  50.781  1.00  0.00    -0.322 N 
HETATM   23  C5  UNL     1      26.755   4.076  49.472  1.00  0.00     0.245 C 
HETATM   24  O1  UNL     1      27.075   2.964  48.938  1.00  0.00    -0.268 OA
HETATM   25  H9  UNL     1      25.993   4.791  51.235  1.00  0.00     0.169 HD
BRANCH  23  26
HETATM   26  C4  UNL     1      26.870   5.379  48.843  1.00  0.00     0.072 C 
HETATM   27  C3  UNL     1      26.513   6.656  49.056  1.00  0.00     0.008 C 
BRANCH  27  28
HETATM   28  C2  UNL     1      25.833   7.574  49.957  1.00  0.00     0.296 C 
BRANCH  28  29
HETATM   29  N1  UNL     1      26.737   8.382  50.768  1.00  0.00     0.082 N 
HETATM   30  C1  UNL     1      27.480   9.280  49.909  1.00  0.00     0.307 C 
HETATM   31  H4  UNL     1      27.442   7.745  51.209  1.00  0.00     0.315 HD
ENDBRANCH  28  29
ENDBRANCH  27  28
ENDBRANCH  23  26
ENDBRANCH   1  22
TORSDOF 6
ENDMDL
MODEL 8
REMARK VINA RESULT:      -7.4      2.714      6.992
REMARK  6 active torsions:
REMARK  status: ('A' for Active; 'I' for Inactive)
REMARK    1  A    between atoms: N1_2  and  C2_3 
REMARK    2  A    between atoms: C2_3  and  C3_4 
REMARK    3  A    between atoms: C4_5  and  C5_6 
REMARK       I    between atoms: C5_6  and  N2_8 
REMARK    4  A    between atoms: N2_8  and  C6_9 
REMARK    5  A    between atoms: C12_18  and  N6_19 
REMARK    6  A    between atoms: N6_19  and  C13_20 
ROOT
HETATM    1  C6  UNL     1      21.447   0.511  52.930  1.00  0.00     0.053 A 
HETATM    2  C7  UNL     1      21.711  -0.803  53.283  1.00  0.00     0.148 A 
HETATM    3  N3  UNL     1      22.930  -1.233  53.631  1.00  0.00    -0.238 NA
HETATM    4  C8  UNL     1      24.003  -0.426  53.667  1.00  0.00     0.161 A 
HETATM    5  N4  UNL     1      25.206  -0.910  54.024  1.00  0.00    -0.239 NA
HETATM    6  C9  UNL     1      26.307  -0.137  54.074  1.00  0.00     0.144 A 
HETATM    7  C10 UNL     1      26.132   1.192  53.737  1.00  0.00     0.089 A 
HETATM    8  C11 UNL     1      27.303   2.033  53.786  1.00  0.00     0.103 C 
HETATM    9  N5  UNL     1      28.254   2.722  53.844  1.00  0.00    -0.191 NA
HETATM   10  C12 UNL     1      24.924   1.738  53.365  1.00  0.00     0.069 A 
HETATM   11  C19 UNL     1      23.843   0.899  53.333  1.00  0.00     0.042 A 
HETATM   12  C20 UNL     1      22.573   1.302  52.981  1.00  0.00     0.048 A 
ENDROOT
BRANCH  10  13
HETATM   13  N6  UNL     1      24.774   3.094  53.026  1.00  0.00    -0.354 N 
HETATM   14  H12 UNL     1      24.785   3.661  53.878  1.00  0.00     0.166 HD
BRANCH  13  15
HETATM   15  C13 UNL     1      24.629   3.624  51.714  1.00  0.00     0.033 A 
HETATM   16  C14 UNL     1      25.300   3.033  50.668  1.00  0.00     0.029 A 
HETATM   17  C15 UNL     1      25.163   3.540  49.406  1.00  0.00     0.004 A 
HETATM   18  C16 UNL     1      24.345   4.654  49.180  1.00  0.00     0.019 A 
HETATM   19  C17 UNL     1      23.701   5.200  50.270  1.00  0.00     0.013 A 
HETATM   20 BR1  UNL     1      22.562   6.730  50.036  1.00  0.00    -0.051 Br
HETATM   21  C18 UNL     1      23.811   4.718  51.568  1.00  0.00     0.048 A 
ENDBRANCH  13  15
ENDBRANCH  10  13
BRANCH   1  22
HETATM   22  N2  UNL     1      20.165   0.936  52.570  1.00  0.00    -0.322 N 
HETATM   23  C5  UNL     1      19.503   1.231  51.356  1.00  0.00     0.245 C 
HETATM   24  O1  UNL     1      20.292   1.057  50.370  1.00  0.00    -0.268 OA
HETATM   25  H9  UNL     1      19.515   1.079  53.399  1.00  0.00     0.169 HD
BRANCH  23  26
HETATM   26  C4  UNL     1      18.123   1.666  51.266  1.00  0.00     0.072 C 
HETATM   27  C3  UNL     1      17.402   2.799  51.260  1.00  0.00     0.008 C 
BRANCH  27  28
HETATM   28  C2  UNL     1      17.456   4.252  51.330  1.00  0.00     0.296 C 
BRANCH  28  29
HETATM   29  N1  UNL     1      17.691   4.896  50.042  1.00  0.00     0.082 N 
HETATM   30  C1  UNL     1      19.116   5.020  49.819  1.00  0.00     0.307 C 
HETATM   31  H4  UNL     1      17.314   5.872  50.089  1.00  0.00     0.315 HD
ENDBRANCH  28  29
ENDBRANCH  27  28
ENDBRANCH  23  26
ENDBRANCH   1  22
TORSDOF 6
ENDMDL
MODEL 9
REMARK VINA RESULT:      -7.3      4.846      7.299
REMARK  6 active torsions:
REMARK  status: ('A' for Active; 'I' for Inactive)
REMARK    1  A    between atoms: N1_2  and  C2_3 
REMARK    2  A    between atoms: C2_3  and  C3_4 
REMARK    3  A    between atoms: C4_5  and  C5_6 
REMARK       I    between atoms: C5_6  and  N2_8 
REMARK    4  A    between atoms: N2_8  and  C6_9 
REMARK    5  A    between atoms: C12_18  and  N6_19 
REMARK    6  A    between atoms: N6_19  and  C13_20 
ROOT
HETATM    1  C6  UNL     1      25.987   6.108  49.704  1.00  0.00     0.053 A 
HETATM    2  C7  UNL     1      25.219   7.233  49.960  1.00  0.00     0.148 A 
HETATM    3  N3  UNL     1      24.012   7.175  50.534  1.00  0.00    -0.238 NA
HETATM    4  C8  UNL     1      23.440   6.020  50.910  1.00  0.00     0.161 A 
HETATM    5  N4  UNL     1      22.223   6.018  51.482  1.00  0.00    -0.239 NA
HETATM    6  C9  UNL     1      21.613   4.884  51.875  1.00  0.00     0.144 A 
HETATM    7  C10 UNL     1      22.313   3.712  51.657  1.00  0.00     0.089 A 
HETATM    8  C11 UNL     1      21.672   2.488  52.072  1.00  0.00     0.103 C 
HETATM    9  N5  UNL     1      21.158   1.492  52.429  1.00  0.00    -0.191 NA
HETATM   10  C12 UNL     1      23.559   3.658  51.076  1.00  0.00     0.069 A 
HETATM   11  C19 UNL     1      24.124   4.846  50.698  1.00  0.00     0.042 A 
HETATM   12  C20 UNL     1      25.365   4.948  50.105  1.00  0.00     0.048 A 
ENDROOT
BRANCH  10  13
HETATM   13  N6  UNL     1      24.248   2.450  50.865  1.00  0.00    -0.354 N 
HETATM   14  H12 UNL     1      24.112   2.145  49.897  1.00  0.00     0.166 HD
BRANCH  13  15
HETATM   15  C13 UNL     1      25.022   1.741  51.825  1.00  0.00     0.033 A 
HETATM   16  C14 UNL     1      24.535   0.566  52.350  1.00  0.00     0.029 A 
HETATM   17  C15 UNL     1      25.276  -0.117  53.274  1.00  0.00     0.004 A 
HETATM   18  C16 UNL     1      26.521   0.376  53.682  1.00  0.00     0.019 A 
HETATM   19  C17 UNL     1      26.952   1.558  53.118  1.00  0.00     0.013 A 
HETATM   20 BR1  UNL     1      28.651   2.295  53.629  1.00  0.00    -0.051 Br
HETATM   21  C18 UNL     1      26.233   2.285  52.177  1.00  0.00     0.048 A 
ENDBRANCH  13  15
ENDBRANCH  10  13
BRANCH   1  22
HETATM   22  N2  UNL     1      27.247   6.194  49.104  1.00  0.00    -0.322 N 
HETATM   23  C5  UNL     1      27.779   6.835  47.961  1.00  0.00     0.245 C 
HETATM   24  O1  UNL     1      26.865   7.481  47.352  1.00  0.00    -0.268 OA
HETATM   25  H9  UNL     1      28.003   5.652  49.619  1.00  0.00     0.169 HD
BRANCH  23  26
HETATM   26  C4  UNL     1      29.170   6.756  47.557  1.00  0.00     0.072 C 
HETATM   27  C3  UNL     1      30.371   7.236  47.916  1.00  0.00     0.008 C 
BRANCH  27  28
HETATM   28  C2  UNL     1      31.089   8.085  48.856  1.00  0.00     0.296 C 
BRANCH  28  29
HETATM   29  N1  UNL     1      31.506   7.396  50.072  1.00  0.00     0.082 N 
HETATM   30  C1  UNL     1      31.958   6.062  49.738  1.00  0.00     0.307 C 
HETATM   31  H4  UNL     1      30.667   7.277  50.687  1.00  0.00     0.315 HD
ENDBRANCH  28  29
ENDBRANCH  27  28
ENDBRANCH  23  26
ENDBRANCH   1  22
TORSDOF 6
ENDMDL
