MODEL 1
REMARK VINA RESULT:      -8.4      0.000      0.000
REMARK  7 active torsions:
REMARK  status: ('A' for Active; 'I' for Inactive)
REMARK    1  A    between atoms: O1_2  and  C2_3 
REMARK    2  A    between atoms: C4_5  and  N1_6 
REMARK    3  A    between atoms: N1_6  and  C5_7 
REMARK    4  A    between atoms: C8_10  and  O2_11 
REMARK    5  A    between atoms: O2_11  and  C9_12 
REMARK    6  A    between atoms: C17_22  and  N3_23 
REMARK       I    between atoms: N3_23  and  C18_24 
REMARK    7  A    between atoms: C18_24  and  C19_26 
ROOT
HETATM    1  N1  UNL     1      25.123   3.707  50.981  1.00  0.00    -0.340 N 
HETATM    2  H4  UNL     1      24.132   3.812  50.671  1.00  0.00     0.167 HD
ENDROOT
BRANCH   1   3
HETATM    3  C4  UNL     1      25.431   2.756  51.992  1.00  0.00     0.143 C 
HETATM    4  C3  UNL     1      24.555   2.512  52.952  1.00  0.00     0.056 C 
HETATM    5  C2  UNL     1      24.144   1.254  52.993  1.00  0.00     0.068 C 
HETATM    6  C21 UNL     1      25.125   0.162  52.873  1.00  0.00     0.144 C 
HETATM    7  C17 UNL     1      26.478   0.735  52.560  1.00  0.00     0.115 C 
HETATM    8  N2  UNL     1      26.629   1.968  52.141  1.00  0.00    -0.216 NA
BRANCH   5   9
HETATM    9  O1  UNL     1      22.804   1.042  53.148  1.00  0.00    -0.359 OA
HETATM   10  C1  UNL     1      22.100  -0.100  52.751  1.00  0.00     0.209 C 
ENDBRANCH   5   9
BRANCH   7  11
HETATM   11  N3  UNL     1      27.592  -0.136  52.743  1.00  0.00    -0.315 N 
HETATM   12  C18 UNL     1      28.417   0.026  53.908  1.00  0.00     0.222 C 
HETATM   13  O3  UNL     1      28.123   0.938  54.728  1.00  0.00    -0.273 OA
HETATM   14  H13 UNL     1      27.799  -0.878  52.037  1.00  0.00     0.170 HD
BRANCH  12  15
HETATM   15  C19 UNL     1      29.556  -0.919  54.026  1.00  0.00     0.098 C 
HETATM   16  C20 UNL     1      29.318  -2.185  53.244  1.00  0.00     0.014 C 
ENDBRANCH  12  15
ENDBRANCH   7  11
ENDBRANCH   1   3
BRANCH   1  17
HETATM   17  C5  UNL     1      25.745   4.673  50.142  1.00  0.00     0.033 A 
HETATM   18  C6  UNL     1      25.353   5.984  49.988  1.00  0.00     0.032 A 
HETATM   19  C7  UNL     1      26.067   6.787  49.134  1.00  0.00     0.039 A 
HETATM   20  C8  UNL     1      27.151   6.283  48.449  1.00  0.00     0.076 A 
HETATM   21  C15 UNL     1      27.588   4.960  48.573  1.00  0.00     0.039 A 
HETATM   22  C16 UNL     1      26.844   4.162  49.449  1.00  0.00     0.032 A 
BRANCH  20  23
HETATM   23  O2  UNL     1      27.918   7.045  47.567  1.00  0.00    -0.311 OA
BRANCH  23  24
HETATM   24  C9  UNL     1      29.133   7.583  47.936  1.00  0.00     0.079 A 
HETATM   25  C10 UNL     1      30.233   7.082  47.267  1.00  0.00     0.037 A 
HETATM   26  C11 UNL     1      31.513   7.534  47.540  1.00  0.00     0.006 A 
HETATM   27  C12 UNL     1      31.742   8.514  48.502  1.00  0.00     0.042 A 
HETATM   28  C13 UNL     1      30.614   8.985  49.144  1.00  0.00     0.119 A 
HETATM   29  F1  UNL     1      30.795   9.942  50.090  1.00  0.00    -0.206 F 
HETATM   30  C14 UNL     1      29.330   8.552  48.890  1.00  0.00     0.079 A 
ENDBRANCH  23  24
ENDBRANCH  20  23
ENDBRANCH   1  17
TORSDOF 7
ENDMDL
MODEL 2
REMARK VINA RESULT:      -8.2      6.189     10.960
REMARK  7 active torsions:
REMARK  status: ('A' for Active; 'I' for Inactive)
REMARK    1  A    between atoms: O1_2  and  C2_3 
REMARK    2  A    between atoms: C4_5  and  N1_6 
REMARK    3  A    between atoms: N1_6  and  C5_7 
REMARK    4  A    between atoms: C8_10  and  O2_11 
REMARK    5  A    between atoms: O2_11  and  C9_12 
REMARK    6  A    between atoms: C17_22  and  N3_23 
REMARK       I    between atoms: N3_23  and  C18_24 
REMARK    7  A    between atoms: C18_24  and  C19_26 
ROOT
HETATM    1  N1  UNL     1      22.434   0.787  51.111  1.00  0.00    -0.340 N 
HETATM    2  H4  UNL     1      22.378   0.397  50.144  1.00  0.00     0.167 HD
ENDROOT
BRANCH   1   3
HETATM    3  C4  UNL     1      23.625   1.447  51.517  1.00  0.00     0.143 C 
HETATM    4  C3  UNL     1      23.750   2.750  51.332  1.00  0.00     0.056 C 
HETATM    5  C2  UNL     1      23.920   3.436  52.451  1.00  0.00     0.068 C 
HETATM    6  C21 UNL     1      24.866   2.947  53.469  1.00  0.00     0.144 C 
HETATM    7  C17 UNL     1      25.380   1.594  53.069  1.00  0.00     0.115 C 
HETATM    8  N2  UNL     1      24.794   0.876  52.141  1.00  0.00    -0.216 NA
BRANCH   5   9
HETATM    9  O1  UNL     1      23.191   4.581  52.596  1.00  0.00    -0.359 OA
HETATM   10  C1  UNL     1      22.945   5.532  51.599  1.00  0.00     0.209 C 
ENDBRANCH   5   9
BRANCH   7  11
HETATM   11  N3  UNL     1      26.541   1.130  53.752  1.00  0.00    -0.315 N 
HETATM   12  C18 UNL     1      27.834   1.569  53.305  1.00  0.00     0.222 C 
HETATM   13  O3  UNL     1      27.892   2.353  52.319  1.00  0.00    -0.273 OA
HETATM   14  H13 UNL     1      26.446   0.479  54.566  1.00  0.00     0.170 HD
BRANCH  12  15
HETATM   15  C19 UNL     1      28.992   1.041  54.069  1.00  0.00     0.098 C 
HETATM   16  C20 UNL     1      29.308  -0.384  53.697  1.00  0.00     0.014 C 
ENDBRANCH  12  15
ENDBRANCH   7  11
ENDBRANCH   1   3
BRANCH   1  17
HETATM   17  C5  UNL     1      21.146   0.425  51.596  1.00  0.00     0.033 A 
HETATM   18  C6  UNL     1      19.959   0.545  50.909  1.00  0.00     0.032 A 
HETATM   19  C7  UNL     1      18.800   0.147  51.527  1.00  0.00     0.039 A 
HETATM   20  C8  UNL     1      18.834  -0.361  52.807  1.00  0.00     0.076 A 
HETATM   21  C15 UNL     1      20.014  -0.503  53.545  1.00  0.00     0.039 A 
HETATM   22  C16 UNL     1      21.181  -0.090  52.892  1.00  0.00     0.032 A 
BRANCH  20  23
HETATM   23  O2  UNL     1      17.693  -0.784  53.491  1.00  0.00    -0.311 OA
BRANCH  23  24
HETATM   24  C9  UNL     1      17.072  -1.980  53.203  1.00  0.00     0.079 A 
HETATM   25  C10 UNL     1      15.941  -1.891  52.417  1.00  0.00     0.037 A 
HETATM   26  C11 UNL     1      15.222  -3.017  52.053  1.00  0.00     0.006 A 
HETATM   27  C12 UNL     1      15.612  -4.287  52.467  1.00  0.00     0.042 A 
HETATM   28  C13 UNL     1      16.748  -4.328  53.251  1.00  0.00     0.119 A 
HETATM   29  F1  UNL     1      17.161  -5.549  53.676  1.00  0.00    -0.206 F 
HETATM   30  C14 UNL     1      17.481  -3.223  53.626  1.00  0.00     0.079 A 
ENDBRANCH  23  24
ENDBRANCH  20  23
ENDBRANCH   1  17
TORSDOF 7
ENDMDL
MODEL 3
REMARK VINA RESULT:      -8.1      4.011      8.718
REMARK  7 active torsions:
REMARK  status: ('A' for Active; 'I' for Inactive)
REMARK    1  A    between atoms: O1_2  and  C2_3 
REMARK    2  A    between atoms: C4_5  and  N1_6 
REMARK    3  A    between atoms: N1_6  and  C5_7 
REMARK    4  A    between atoms: C8_10  and  O2_11 
REMARK    5  A    between atoms: O2_11  and  C9_12 
REMARK    6  A    between atoms: C17_22  and  N3_23 
REMARK       I    between atoms: N3_23  and  C18_24 
REMARK    7  A    between atoms: C18_24  and  C19_26 
ROOT
HETATM    1  N1  UNL     1      27.837   5.938  48.216  1.00  0.00    -0.340 N 
HETATM    2  H4  UNL     1      27.162   6.470  47.623  1.00  0.00     0.167 HD
ENDROOT
BRANCH   1   3
HETATM    3  C4  UNL     1      29.230   6.175  48.053  1.00  0.00     0.143 C 
HETATM    4  C3  UNL     1      29.671   7.411  47.891  1.00  0.00     0.056 C 
HETATM    5  C2  UNL     1      30.511   7.806  48.834  1.00  0.00     0.068 C 
HETATM    6  C21 UNL     1      31.591   6.906  49.274  1.00  0.00     0.144 C 
HETATM    7  C17 UNL     1      31.423   5.564  48.619  1.00  0.00     0.115 C 
HETATM    8  N2  UNL     1      30.303   5.212  48.037  1.00  0.00    -0.216 NA
BRANCH   5   9
HETATM    9  O1  UNL     1      30.320   9.055  49.353  1.00  0.00    -0.359 OA
HETATM   10  C1  UNL     1      29.135   9.796  49.299  1.00  0.00     0.209 C 
ENDBRANCH   5   9
BRANCH   7  11
HETATM   11  N3  UNL     1      32.550   4.693  48.664  1.00  0.00    -0.315 N 
HETATM   12  C18 UNL     1      33.528   4.765  47.614  1.00  0.00     0.222 C 
HETATM   13  O3  UNL     1      33.351   5.602  46.687  1.00  0.00    -0.273 OA
HETATM   14  H13 UNL     1      32.657   4.014  49.452  1.00  0.00     0.170 HD
BRANCH  12  15
HETATM   15  C19 UNL     1      34.671   3.826  47.734  1.00  0.00     0.098 C 
HETATM   16  C20 UNL     1      35.051   3.230  46.403  1.00  0.00     0.014 C 
ENDBRANCH  12  15
ENDBRANCH   7  11
ENDBRANCH   1   3
BRANCH   1  17
HETATM   17  C5  UNL     1      26.928   5.153  48.977  1.00  0.00     0.033 A 
HETATM   18  C6  UNL     1      26.990   3.789  49.159  1.00  0.00     0.032 A 
HETATM   19  C7  UNL     1      26.027   3.185  49.928  1.00  0.00     0.039 A 
HETATM   20  C8  UNL     1      25.024   3.936  50.502  1.00  0.00     0.076 A 
HETATM   21  C15 UNL     1      24.919   5.322  50.348  1.00  0.00     0.039 A 
HETATM   22  C16 UNL     1      25.913   5.913  49.560  1.00  0.00     0.032 A 
BRANCH  20  23
HETATM   23  O2  UNL     1      24.016   3.383  51.295  1.00  0.00    -0.311 OA
BRANCH  23  24
HETATM   24  C9  UNL     1      24.237   2.278  52.088  1.00  0.00     0.079 A 
HETATM   25  C10 UNL     1      25.326   2.360  52.934  1.00  0.00     0.037 A 
HETATM   26  C11 UNL     1      25.661   1.320  53.785  1.00  0.00     0.006 A 
HETATM   27  C12 UNL     1      24.912   0.147  53.821  1.00  0.00     0.042 A 
HETATM   28  C13 UNL     1      23.834   0.110  52.958  1.00  0.00     0.119 A 
HETATM   29  F1  UNL     1      23.078  -1.017  52.963  1.00  0.00    -0.206 F 
HETATM   30  C14 UNL     1      23.479   1.131  52.103  1.00  0.00     0.079 A 
ENDBRANCH  23  24
ENDBRANCH  20  23
ENDBRANCH   1  17
TORSDOF 7
ENDMDL
MODEL 4
REMARK VINA RESULT:      -7.9      4.311      8.901
REMARK  7 active torsions:
REMARK  status: ('A' for Active; 'I' for Inactive)
REMARK    1  A    between atoms: O1_2  and  C2_3 
REMARK    2  A    between atoms: C4_5  and  N1_6 
REMARK    3  A    between atoms: N1_6  and  C5_7 
REMARK    4  A    between atoms: C8_10  and  O2_11 
REMARK    5  A    between atoms: O2_11  and  C9_12 
REMARK    6  A    between atoms: C17_22  and  N3_23 
REMARK       I    between atoms: N3_23  and  C18_24 
REMARK    7  A    between atoms: C18_24  and  C19_26 
ROOT
HETATM    1  N1  UNL     1      27.827   5.963  48.152  1.00  0.00    -0.340 N 
HETATM    2  H4  UNL     1      27.183   6.278  47.393  1.00  0.00     0.167 HD
ENDROOT
BRANCH   1   3
HETATM    3  C4  UNL     1      29.198   6.331  48.086  1.00  0.00     0.143 C 
HETATM    4  C3  UNL     1      29.531   7.598  47.905  1.00  0.00     0.056 C 
HETATM    5  C2  UNL     1      30.251   8.107  48.892  1.00  0.00     0.068 C 
HETATM    6  C21 UNL     1      31.373   7.334  49.450  1.00  0.00     0.144 C 
HETATM    7  C17 UNL     1      31.388   5.960  48.843  1.00  0.00     0.115 C 
HETATM    8  N2  UNL     1      30.356   5.479  48.192  1.00  0.00    -0.216 NA
BRANCH   5   9
HETATM    9  O1  UNL     1      29.901   9.348  49.341  1.00  0.00    -0.359 OA
HETATM   10  C1  UNL     1      30.594  10.538  49.096  1.00  0.00     0.209 C 
ENDBRANCH   5   9
BRANCH   7  11
HETATM   11  N3  UNL     1      32.586   5.207  49.011  1.00  0.00    -0.315 N 
HETATM   12  C18 UNL     1      33.647   5.363  48.054  1.00  0.00     0.222 C 
HETATM   13  O3  UNL     1      33.476   6.166  47.097  1.00  0.00    -0.273 OA
HETATM   14  H13 UNL     1      32.684   4.552  49.820  1.00  0.00     0.170 HD
BRANCH  12  15
HETATM   15  C19 UNL     1      34.860   4.544  48.299  1.00  0.00     0.098 C 
HETATM   16  C20 UNL     1      34.708   3.142  47.769  1.00  0.00     0.014 C 
ENDBRANCH  12  15
ENDBRANCH   7  11
ENDBRANCH   1   3
BRANCH   1  17
HETATM   17  C5  UNL     1      26.910   5.243  48.967  1.00  0.00     0.033 A 
HETATM   18  C6  UNL     1      26.985   3.906  49.286  1.00  0.00     0.032 A 
HETATM   19  C7  UNL     1      26.013   3.366  50.089  1.00  0.00     0.039 A 
HETATM   20  C8  UNL     1      24.986   4.154  50.563  1.00  0.00     0.076 A 
HETATM   21  C15 UNL     1      24.866   5.516  50.269  1.00  0.00     0.039 A 
HETATM   22  C16 UNL     1      25.870   6.042  49.447  1.00  0.00     0.032 A 
BRANCH  20  23
HETATM   23  O2  UNL     1      23.967   3.667  51.383  1.00  0.00    -0.311 OA
BRANCH  23  24
HETATM   24  C9  UNL     1      23.137   2.642  50.983  1.00  0.00     0.079 A 
HETATM   25  C10 UNL     1      22.802   1.730  51.964  1.00  0.00     0.037 A 
HETATM   26  C11 UNL     1      21.975   0.652  51.698  1.00  0.00     0.006 A 
HETATM   27  C12 UNL     1      21.448   0.444  50.426  1.00  0.00     0.042 A 
HETATM   28  C13 UNL     1      21.810   1.380  49.478  1.00  0.00     0.119 A 
HETATM   29  F1  UNL     1      21.316   1.213  48.225  1.00  0.00    -0.206 F 
HETATM   30  C14 UNL     1      22.630   2.462  49.718  1.00  0.00     0.079 A 
ENDBRANCH  23  24
ENDBRANCH  20  23
ENDBRANCH   1  17
TORSDOF 7
ENDMDL
MODEL 5
REMARK VINA RESULT:      -7.9      3.719      9.216
REMARK  7 active torsions:
REMARK  status: ('A' for Active; 'I' for Inactive)
REMARK    1  A    between atoms: O1_2  and  C2_3 
REMARK    2  A    between atoms: C4_5  and  N1_6 
REMARK    3  A    between atoms: N1_6  and  C5_7 
REMARK    4  A    between atoms: C8_10  and  O2_11 
REMARK    5  A    between atoms: O2_11  and  C9_12 
REMARK    6  A    between atoms: C17_22  and  N3_23 
REMARK       I    between atoms: N3_23  and  C18_24 
REMARK    7  A    between atoms: C18_24  and  C19_26 
ROOT
HETATM    1  N1  UNL     1      26.142   4.508  50.381  1.00  0.00    -0.340 N 
HETATM    2  H4  UNL     1      25.644   5.182  51.003  1.00  0.00     0.167 HD
ENDROOT
BRANCH   1   3
HETATM    3  C4  UNL     1      26.831   5.005  49.241  1.00  0.00     0.143 C 
HETATM    4  C3  UNL     1      26.306   5.991  48.534  1.00  0.00     0.056 C 
HETATM    5  C2  UNL     1      27.060   7.078  48.489  1.00  0.00     0.068 C 
HETATM    6  C21 UNL     1      28.506   6.952  48.240  1.00  0.00     0.144 C 
HETATM    7  C17 UNL     1      28.889   5.500  48.229  1.00  0.00     0.115 C 
HETATM    8  N2  UNL     1      28.096   4.570  48.703  1.00  0.00    -0.216 NA
BRANCH   5   9
HETATM    9  O1  UNL     1      26.435   8.277  48.682  1.00  0.00    -0.359 OA
HETATM   10  C1  UNL     1      26.420   9.350  47.784  1.00  0.00     0.209 C 
ENDBRANCH   5   9
BRANCH   7  11
HETATM   11  N3  UNL     1      30.164   5.186  47.674  1.00  0.00    -0.315 N 
HETATM   12  C18 UNL     1      31.327   5.259  48.515  1.00  0.00     0.222 C 
HETATM   13  O3  UNL     1      31.174   5.600  49.719  1.00  0.00    -0.273 OA
HETATM   14  H13 UNL     1      30.244   4.908  46.669  1.00  0.00     0.170 HD
BRANCH  12  15
HETATM   15  C19 UNL     1      32.615   4.917  47.862  1.00  0.00     0.098 C 
HETATM   16  C20 UNL     1      32.630   3.497  47.359  1.00  0.00     0.014 C 
ENDBRANCH  12  15
ENDBRANCH   7  11
ENDBRANCH   1   3
BRANCH   1  17
HETATM   17  C5  UNL     1      25.853   3.291  51.058  1.00  0.00     0.033 A 
HETATM   18  C6  UNL     1      26.530   2.101  50.910  1.00  0.00     0.032 A 
HETATM   19  C7  UNL     1      26.119   1.016  51.644  1.00  0.00     0.039 A 
HETATM   20  C8  UNL     1      25.051   1.125  52.508  1.00  0.00     0.076 A 
HETATM   21  C15 UNL     1      24.333   2.311  52.693  1.00  0.00     0.039 A 
HETATM   22  C16 UNL     1      24.772   3.402  51.934  1.00  0.00     0.032 A 
BRANCH  20  23
HETATM   23  O2  UNL     1      24.584   0.062  53.282  1.00  0.00    -0.311 OA
BRANCH  23  24
HETATM   24  C9  UNL     1      23.241  -0.232  53.381  1.00  0.00     0.079 A 
HETATM   25  C10 UNL     1      22.852  -0.851  54.553  1.00  0.00     0.037 A 
HETATM   26  C11 UNL     1      21.532  -1.201  54.783  1.00  0.00     0.006 A 
HETATM   27  C12 UNL     1      20.542  -0.942  53.838  1.00  0.00     0.042 A 
HETATM   28  C13 UNL     1      20.977  -0.323  52.683  1.00  0.00     0.119 A 
HETATM   29  F1  UNL     1      20.042  -0.053  51.737  1.00  0.00    -0.206 F 
HETATM   30  C14 UNL     1      22.284   0.036  52.431  1.00  0.00     0.079 A 
ENDBRANCH  23  24
ENDBRANCH  20  23
ENDBRANCH   1  17
TORSDOF 7
ENDMDL
MODEL 6
REMARK VINA RESULT:      -7.8      2.922      4.611
REMARK  7 active torsions:
REMARK  status: ('A' for Active; 'I' for Inactive)
REMARK    1  A    between atoms: O1_2  and  C2_3 
REMARK    2  A    between atoms: C4_5  and  N1_6 
REMARK    3  A    between atoms: N1_6  and  C5_7 
REMARK    4  A    between atoms: C8_10  and  O2_11 
REMARK    5  A    between atoms: O2_11  and  C9_12 
REMARK    6  A    between atoms: C17_22  and  N3_23 
REMARK       I    between atoms: N3_23  and  C18_24 
REMARK    7  A    between atoms: C18_24  and  C19_26 
ROOT
HETATM    1  N1  UNL     1      26.559   3.018  50.053  1.00  0.00    -0.340 N 
HETATM    2  H4  UNL     1      27.165   2.576  49.326  1.00  0.00     0.167 HD
ENDROOT
BRANCH   1   3
HETATM    3  C4  UNL     1      26.093   2.223  51.135  1.00  0.00     0.143 C 
HETATM    4  C3  UNL     1      26.953   1.745  52.018  1.00  0.00     0.056 C 
HETATM    5  C2  UNL     1      26.736   2.161  53.256  1.00  0.00     0.068 C 
HETATM    6  C21 UNL     1      25.365   2.165  53.793  1.00  0.00     0.144 C 
HETATM    7  C17 UNL     1      24.397   1.807  52.702  1.00  0.00     0.115 C 
HETATM    8  N2  UNL     1      24.738   1.832  51.437  1.00  0.00    -0.216 NA
BRANCH   5   9
HETATM    9  O1  UNL     1      27.823   2.569  53.974  1.00  0.00    -0.359 OA
HETATM   10  C1  UNL     1      29.111   2.028  53.897  1.00  0.00     0.209 C 
ENDBRANCH   5   9
BRANCH   7  11
HETATM   11  N3  UNL     1      23.084   1.437  53.117  1.00  0.00    -0.315 N 
HETATM   12  C18 UNL     1      22.825   0.067  53.467  1.00  0.00     0.222 C 
HETATM   13  O3  UNL     1      23.775  -0.759  53.393  1.00  0.00    -0.273 OA
HETATM   14  H13 UNL     1      22.327   2.156  53.164  1.00  0.00     0.170 HD
BRANCH  12  15
HETATM   15  C19 UNL     1      21.435  -0.237  53.888  1.00  0.00     0.098 C 
HETATM   16  C20 UNL     1      21.289  -1.660  54.360  1.00  0.00     0.014 C 
ENDBRANCH  12  15
ENDBRANCH   7  11
ENDBRANCH   1   3
BRANCH   1  17
HETATM   17  C5  UNL     1      26.494   4.345  49.543  1.00  0.00     0.033 A 
HETATM   18  C6  UNL     1      25.451   5.227  49.712  1.00  0.00     0.032 A 
HETATM   19  C7  UNL     1      25.549   6.476  49.151  1.00  0.00     0.039 A 
HETATM   20  C8  UNL     1      26.673   6.830  48.436  1.00  0.00     0.076 A 
HETATM   21  C15 UNL     1      27.758   5.970  48.238  1.00  0.00     0.039 A 
HETATM   22  C16 UNL     1      27.632   4.703  48.820  1.00  0.00     0.032 A 
BRANCH  20  23
HETATM   23  O2  UNL     1      26.836   8.082  47.842  1.00  0.00    -0.311 OA
BRANCH  23  24
HETATM   24  C9  UNL     1      26.579   8.292  46.504  1.00  0.00     0.079 A 
HETATM   25  C10 UNL     1      27.683   8.572  45.723  1.00  0.00     0.037 A 
HETATM   26  C11 UNL     1      27.566   8.804  44.363  1.00  0.00     0.006 A 
HETATM   27  C12 UNL     1      26.328   8.765  43.727  1.00  0.00     0.042 A 
HETATM   28  C13 UNL     1      25.254   8.481  44.548  1.00  0.00     0.119 A 
HETATM   29  F1  UNL     1      24.028   8.434  43.966  1.00  0.00    -0.206 F 
HETATM   30  C14 UNL     1      25.344   8.246  45.903  1.00  0.00     0.079 A 
ENDBRANCH  23  24
ENDBRANCH  20  23
ENDBRANCH   1  17
TORSDOF 7
ENDMDL
MODEL 7
REMARK VINA RESULT:      -7.8      1.819      4.280
REMARK  7 active torsions:
REMARK  status: ('A' for Active; 'I' for Inactive)
REMARK    1  A    between atoms: O1_2  and  C2_3 
REMARK    2  A    between atoms: C4_5  and  N1_6 
REMARK    3  A    between atoms: N1_6  and  C5_7 
REMARK    4  A    between atoms: C8_10  and  O2_11 
REMARK    5  A    between atoms: O2_11  and  C9_12 
REMARK    6  A    between atoms: C17_22  and  N3_23 
REMARK       I    between atoms: N3_23  and  C18_24 
REMARK    7  A    between atoms: C18_24  and  C19_26 
ROOT
HETATM    1  N1  UNL     1      24.763   3.648  50.826  1.00  0.00    -0.340 N 
HETATM    2  H4  UNL     1      24.204   4.440  51.214  1.00  0.00     0.167 HD
ENDROOT
BRANCH   1   3
HETATM    3  C4  UNL     1      24.429   2.320  51.205  1.00  0.00     0.143 C 
HETATM    4  C3  UNL     1      25.321   1.570  51.829  1.00  0.00     0.056 C 
HETATM    5  C2  UNL     1      24.938   1.174  53.033  1.00  0.00     0.068 C 
HETATM    6  C21 UNL     1      23.573   0.658  53.231  1.00  0.00     0.144 C 
HETATM    7  C17 UNL     1      22.782   0.831  51.966  1.00  0.00     0.115 C 
HETATM    8  N2  UNL     1      23.185   1.620  50.999  1.00  0.00    -0.216 NA
BRANCH   5   9
HETATM    9  O1  UNL     1      25.855   1.271  54.040  1.00  0.00    -0.359 OA
HETATM   10  C1  UNL     1      26.542   0.206  54.632  1.00  0.00     0.209 C 
ENDBRANCH   5   9
BRANCH   7  11
HETATM   11  N3  UNL     1      21.568   0.090  51.872  1.00  0.00    -0.315 N 
HETATM   12  C18 UNL     1      20.342   0.707  52.297  1.00  0.00     0.222 C 
HETATM   13  O3  UNL     1      20.387   1.887  52.740  1.00  0.00    -0.273 OA
HETATM   14  H13 UNL     1      21.578  -0.887  51.499  1.00  0.00     0.170 HD
BRANCH  12  15
HETATM   15  C19 UNL     1      19.123  -0.130  52.167  1.00  0.00     0.098 C 
HETATM   16  C20 UNL     1      18.249   0.324  51.026  1.00  0.00     0.014 C 
ENDBRANCH  12  15
ENDBRANCH   7  11
ENDBRANCH   1   3
BRANCH   1  17
HETATM   17  C5  UNL     1      25.685   4.372  50.020  1.00  0.00     0.033 A 
HETATM   18  C6  UNL     1      26.802   3.855  49.402  1.00  0.00     0.032 A 
HETATM   19  C7  UNL     1      27.589   4.697  48.656  1.00  0.00     0.039 A 
HETATM   20  C8  UNL     1      27.260   6.029  48.533  1.00  0.00     0.076 A 
HETATM   21  C15 UNL     1      26.136   6.601  49.140  1.00  0.00     0.039 A 
HETATM   22  C16 UNL     1      25.351   5.722  49.895  1.00  0.00     0.032 A 
BRANCH  20  23
HETATM   23  O2  UNL     1      28.016   6.936  47.790  1.00  0.00    -0.311 OA
BRANCH  23  24
HETATM   24  C9  UNL     1      29.188   7.476  48.275  1.00  0.00     0.079 A 
HETATM   25  C10 UNL     1      30.312   6.686  48.132  1.00  0.00     0.037 A 
HETATM   26  C11 UNL     1      31.554   7.108  48.575  1.00  0.00     0.006 A 
HETATM   27  C12 UNL     1      31.720   8.348  49.185  1.00  0.00     0.042 A 
HETATM   28  C13 UNL     1      30.570   9.103  49.307  1.00  0.00     0.119 A 
HETATM   29  F1  UNL     1      30.689  10.320  49.897  1.00  0.00    -0.206 F 
HETATM   30  C14 UNL     1      29.323   8.707  48.873  1.00  0.00     0.079 A 
ENDBRANCH  23  24
ENDBRANCH  20  23
ENDBRANCH   1  17
TORSDOF 7
ENDMDL
MODEL 8
REMARK VINA RESULT:      -7.7      5.478     11.508
REMARK  7 active torsions:
REMARK  status: ('A' for Active; 'I' for Inactive)
REMARK    1  A    between atoms: O1_2  and  C2_3 
REMARK    2  A    between atoms: C4_5  and  N1_6 
REMARK    3  A    between atoms: N1_6  and  C5_7 
REMARK    4  A    between atoms: C8_10  and  O2_11 
REMARK    5  A    between atoms: O2_11  and  C9_12 
REMARK    6  A    between atoms: C17_22  and  N3_23 
REMARK       I    between atoms: N3_23  and  C18_24 
REMARK    7  A    between atoms: C18_24  and  C19_26 
ROOT
HETATM    1  N1  UNL     1      22.766   0.323  51.813  1.00  0.00    -0.340 N 
HETATM    2  H4  UNL     1      22.770  -0.256  50.944  1.00  0.00     0.167 HD
ENDROOT
BRANCH   1   3
HETATM    3  C4  UNL     1      23.895   1.138  52.100  1.00  0.00     0.143 C 
HETATM    4  C3  UNL     1      24.937   0.619  52.727  1.00  0.00     0.056 C 
HETATM    5  C2  UNL     1      26.061   0.671  52.029  1.00  0.00     0.068 C 
HETATM    6  C21 UNL     1      26.424   1.911  51.322  1.00  0.00     0.144 C 
HETATM    7  C17 UNL     1      25.295   2.896  51.423  1.00  0.00     0.115 C 
HETATM    8  N2  UNL     1      24.090   2.533  51.792  1.00  0.00    -0.216 NA
BRANCH   5   9
HETATM    9  O1  UNL     1      26.832  -0.457  52.008  1.00  0.00    -0.359 OA
HETATM   10  C1  UNL     1      26.648  -1.594  52.801  1.00  0.00     0.209 C 
ENDBRANCH   5   9
BRANCH   7  11
HETATM   11  N3  UNL     1      25.602   4.248  51.094  1.00  0.00    -0.315 N 
HETATM   12  C18 UNL     1      25.404   4.699  49.745  1.00  0.00     0.222 C 
HETATM   13  O3  UNL     1      24.962   3.876  48.898  1.00  0.00    -0.273 OA
HETATM   14  H13 UNL     1      25.967   4.896  51.830  1.00  0.00     0.170 HD
BRANCH  12  15
HETATM   15  C19 UNL     1      25.747   6.119  49.484  1.00  0.00     0.098 C 
HETATM   16  C20 UNL     1      26.861   6.252  48.478  1.00  0.00     0.014 C 
ENDBRANCH  12  15
ENDBRANCH   7  11
ENDBRANCH   1   3
BRANCH   1  17
HETATM   17  C5  UNL     1      21.490  -0.028  52.335  1.00  0.00     0.033 A 
HETATM   18  C6  UNL     1      21.254  -0.699  53.514  1.00  0.00     0.032 A 
HETATM   19  C7  UNL     1      19.956  -0.959  53.873  1.00  0.00     0.039 A 
HETATM   20  C8  UNL     1      18.916  -0.553  53.064  1.00  0.00     0.076 A 
HETATM   21  C15 UNL     1      19.105   0.132  51.860  1.00  0.00     0.039 A 
HETATM   22  C16 UNL     1      20.438   0.384  51.517  1.00  0.00     0.032 A 
BRANCH  20  23
HETATM   23  O2  UNL     1      17.575  -0.786  53.372  1.00  0.00    -0.311 OA
BRANCH  23  24
HETATM   24  C9  UNL     1      16.973  -2.002  53.131  1.00  0.00     0.079 A 
HETATM   25  C10 UNL     1      15.838  -1.960  52.346  1.00  0.00     0.037 A 
HETATM   26  C11 UNL     1      15.136  -3.110  52.027  1.00  0.00     0.006 A 
HETATM   27  C12 UNL     1      15.547  -4.357  52.487  1.00  0.00     0.042 A 
HETATM   28  C13 UNL     1      16.686  -4.351  53.268  1.00  0.00     0.119 A 
HETATM   29  F1  UNL     1      17.120  -5.549  53.737  1.00  0.00    -0.206 F 
HETATM   30  C14 UNL     1      17.402  -3.221  53.599  1.00  0.00     0.079 A 
ENDBRANCH  23  24
ENDBRANCH  20  23
ENDBRANCH   1  17
TORSDOF 7
ENDMDL
MODEL 9
REMARK VINA RESULT:      -7.6      2.496      2.938
REMARK  7 active torsions:
REMARK  status: ('A' for Active; 'I' for Inactive)
REMARK    1  A    between atoms: O1_2  and  C2_3 
REMARK    2  A    between atoms: C4_5  and  N1_6 
REMARK    3  A    between atoms: N1_6  and  C5_7 
REMARK    4  A    between atoms: C8_10  and  O2_11 
REMARK    5  A    between atoms: O2_11  and  C9_12 
REMARK    6  A    between atoms: C17_22  and  N3_23 
REMARK       I    between atoms: N3_23  and  C18_24 
REMARK    7  A    between atoms: C18_24  and  C19_26 
ROOT
HETATM    1  N1  UNL     1      24.528   5.387  50.821  1.00  0.00    -0.340 N 
HETATM    2  H4  UNL     1      24.125   6.320  51.062  1.00  0.00     0.167 HD
ENDROOT
BRANCH   1   3
HETATM    3  C4  UNL     1      23.911   4.217  51.341  1.00  0.00     0.143 C 
HETATM    4  C3  UNL     1      22.642   3.966  51.069  1.00  0.00     0.056 C 
HETATM    5  C2  UNL     1      22.450   2.830  50.417  1.00  0.00     0.068 C 
HETATM    6  C21 UNL     1      23.154   1.612  50.852  1.00  0.00     0.144 C 
HETATM    7  C17 UNL     1      24.133   1.958  51.937  1.00  0.00     0.115 C 
HETATM    8  N2  UNL     1      24.497   3.195  52.174  1.00  0.00    -0.216 NA
BRANCH   5   9
HETATM    9  O1  UNL     1      21.588   2.859  49.358  1.00  0.00    -0.359 OA
HETATM   10  C1  UNL     1      21.196   1.760  48.586  1.00  0.00     0.209 C 
ENDBRANCH   5   9
BRANCH   7  11
HETATM   11  N3  UNL     1      24.647   0.867  52.697  1.00  0.00    -0.315 N 
HETATM   12  C18 UNL     1      25.955   0.358  52.387  1.00  0.00     0.222 C 
HETATM   13  O3  UNL     1      26.601   0.899  51.449  1.00  0.00    -0.273 OA
HETATM   14  H13 UNL     1      24.076   0.450  53.467  1.00  0.00     0.170 HD
BRANCH  12  15
HETATM   15  C19 UNL     1      26.417  -0.777  53.224  1.00  0.00     0.098 C 
HETATM   16  C20 UNL     1      27.918  -0.797  53.364  1.00  0.00     0.014 C 
ENDBRANCH  12  15
ENDBRANCH   7  11
ENDBRANCH   1   3
BRANCH   1  17
HETATM   17  C5  UNL     1      25.615   5.796  49.999  1.00  0.00     0.033 A 
HETATM   18  C6  UNL     1      25.972   7.096  49.715  1.00  0.00     0.032 A 
HETATM   19  C7  UNL     1      27.053   7.316  48.900  1.00  0.00     0.039 A 
HETATM   20  C8  UNL     1      27.761   6.253  48.381  1.00  0.00     0.076 A 
HETATM   21  C15 UNL     1      27.439   4.917  48.641  1.00  0.00     0.039 A 
HETATM   22  C16 UNL     1      26.332   4.720  49.475  1.00  0.00     0.032 A 
BRANCH  20  23
HETATM   23  O2  UNL     1      28.869   6.409  47.547  1.00  0.00    -0.311 OA
BRANCH  23  24
HETATM   24  C9  UNL     1      30.155   6.204  47.998  1.00  0.00     0.079 A 
HETATM   25  C10 UNL     1      30.691   7.227  48.755  1.00  0.00     0.037 A 
HETATM   26  C11 UNL     1      31.974   7.150  49.270  1.00  0.00     0.006 A 
HETATM   27  C12 UNL     1      32.777   6.035  49.045  1.00  0.00     0.042 A 
HETATM   28  C13 UNL     1      32.199   5.038  48.284  1.00  0.00     0.119 A 
HETATM   29  F1  UNL     1      32.950   3.932  48.042  1.00  0.00    -0.206 F 
HETATM   30  C14 UNL     1      30.925   5.090  47.761  1.00  0.00     0.079 A 
ENDBRANCH  23  24
ENDBRANCH  20  23
ENDBRANCH   1  17
TORSDOF 7
ENDMDL
