MODEL 1
REMARK VINA RESULT:      -8.0      0.000      0.000
REMARK  8 active torsions:
REMARK  status: ('A' for Active; 'I' for Inactive)
REMARK    1  A    between atoms: C2_2  and  C3_3 
REMARK    2  A    between atoms: C3_3  and  N2_16 
REMARK    3  A    between atoms: C4_4  and  C5_5 
REMARK    4  A    between atoms: C5_5  and  N1_6 
REMARK       I    between atoms: N1_6  and  C6_7 
REMARK    5  A    between atoms: C6_7  and  C7_9 
REMARK    6  A    between atoms: N2_16  and  C13_17 
REMARK    7  A    between atoms: N3_18  and  C14_19 
REMARK    8  A    between atoms: C15_20  and  C16_21 
ROOT
HETATM    1  C3  UNL     1      22.921   3.382  49.540  1.00  0.00     0.007 C 
HETATM    2  C4  UNL     1      23.894   2.764  50.232  1.00  0.00     0.017 C 
ENDROOT
BRANCH   1   3
HETATM    3  C2  UNL     1      22.513   2.763  48.281  1.00  0.00     0.052 C 
HETATM    4  C1  UNL     1      21.755   1.463  48.513  1.00  0.00     0.011 C 
ENDBRANCH   1   3
BRANCH   1   5
HETATM    5  N2  UNL     1      22.678   4.460  50.415  1.00  0.00    -0.354 N 
HETATM    6  H14 UNL     1      23.351   5.031  50.981  1.00  0.00     0.166 HD
BRANCH   5   7
HETATM    7  C13 UNL     1      21.321   4.842  50.559  1.00  0.00     0.206 C 
HETATM    8  N3  UNL     1      20.452   4.396  51.369  1.00  0.00    -0.256 NA
BRANCH   8   9
HETATM    9  C14 UNL     1      20.762   3.386  52.298  1.00  0.00     0.120 C 
HETATM   10  C15 UNL     1      20.153   2.198  52.154  1.00  0.00     0.052 C 
BRANCH  10  11
HETATM   11  C16 UNL     1      20.253   0.952  52.943  1.00  0.00     0.074 A 
HETATM   12  N4  UNL     1      19.612  -0.034  53.478  1.00  0.00    -0.228 NA
HETATM   13  C17 UNL     1      20.793  -0.625  53.990  1.00  0.00     0.162 A 
HETATM   14  N5  UNL     1      21.332  -1.638  54.686  1.00  0.00    -0.241 NA
HETATM   15  C21 UNL     1      21.520   0.418  53.430  1.00  0.00     0.041 A 
HETATM   16  C18 UNL     1      22.664  -1.717  54.899  1.00  0.00     0.119 A 
HETATM   17  C19 UNL     1      23.457  -0.721  54.376  1.00  0.00     0.020 A 
HETATM   18  C20 UNL     1      22.894   0.316  53.661  1.00  0.00     0.019 A 
ENDBRANCH  10  11
ENDBRANCH   8   9
ENDBRANCH   5   7
ENDBRANCH   1   5
BRANCH   2  19
HETATM   19  C5  UNL     1      24.670   2.935  51.514  1.00  0.00     0.152 C 
BRANCH  19  20
HETATM   20  N1  UNL     1      25.585   1.869  51.768  1.00  0.00    -0.353 N 
HETATM   21  C6  UNL     1      26.280   1.564  52.966  1.00  0.00     0.251 C 
HETATM   22  O1  UNL     1      26.072   2.334  53.955  1.00  0.00    -0.268 OA
HETATM   23  H9  UNL     1      25.827   1.168  51.005  1.00  0.00     0.163 HD
BRANCH  21  24
HETATM   24  C7  UNL     1      27.198   0.448  53.138  1.00  0.00     0.032 A 
HETATM   25  C8  UNL     1      28.419   0.506  53.734  1.00  0.00     0.020 A 
HETATM   26  C9  UNL     1      29.289  -0.551  53.898  1.00  0.00     0.043 A 
HETATM   27  C10 UNL     1      28.910  -1.794  53.422  1.00  0.00     0.116 A 
HETATM   28  F1  UNL     1      29.772  -2.822  53.590  1.00  0.00    -0.206 F 
HETATM   29  C11 UNL     1      27.680  -1.899  52.811  1.00  0.00     0.043 A 
HETATM   30  C12 UNL     1      26.854  -0.805  52.678  1.00  0.00     0.020 A 
ENDBRANCH  21  24
ENDBRANCH  19  20
ENDBRANCH   2  19
TORSDOF 8
ENDMDL
MODEL 2
REMARK VINA RESULT:      -7.9      1.531      2.117
REMARK  8 active torsions:
REMARK  status: ('A' for Active; 'I' for Inactive)
REMARK    1  A    between atoms: C2_2  and  C3_3 
REMARK    2  A    between atoms: C3_3  and  N2_16 
REMARK    3  A    between atoms: C4_4  and  C5_5 
REMARK    4  A    between atoms: C5_5  and  N1_6 
REMARK       I    between atoms: N1_6  and  C6_7 
REMARK    5  A    between atoms: C6_7  and  C7_9 
REMARK    6  A    between atoms: N2_16  and  C13_17 
REMARK    7  A    between atoms: N3_18  and  C14_19 
REMARK    8  A    between atoms: C15_20  and  C16_21 
ROOT
HETATM    1  C3  UNL     1      24.604   4.914  49.562  1.00  0.00     0.007 C 
HETATM    2  C4  UNL     1      25.102   4.291  50.644  1.00  0.00     0.017 C 
ENDROOT
BRANCH   1   3
HETATM    3  C2  UNL     1      25.524   5.766  48.811  1.00  0.00     0.052 C 
HETATM    4  C1  UNL     1      26.940   5.207  48.818  1.00  0.00     0.011 C 
ENDBRANCH   1   3
BRANCH   1   5
HETATM    5  N2  UNL     1      23.284   4.423  49.612  1.00  0.00    -0.354 N 
HETATM    6  H14 UNL     1      22.556   4.528  50.359  1.00  0.00     0.166 HD
BRANCH   5   7
HETATM    7  C13 UNL     1      22.863   3.674  48.485  1.00  0.00     0.206 C 
HETATM    8  N3  UNL     1      22.457   2.473  48.436  1.00  0.00    -0.256 NA
BRANCH   8   9
HETATM    9  C14 UNL     1      22.368   1.679  49.593  1.00  0.00     0.120 C 
HETATM   10  C15 UNL     1      21.145   1.441  50.094  1.00  0.00     0.052 C 
BRANCH  10  11
HETATM   11  C16 UNL     1      20.712   0.663  51.274  1.00  0.00     0.074 A 
HETATM   12  N4  UNL     1      19.715   0.140  51.908  1.00  0.00    -0.228 NA
HETATM   13  C17 UNL     1      20.540  -0.375  52.937  1.00  0.00     0.162 A 
HETATM   14  N5  UNL     1      20.603  -1.066  54.086  1.00  0.00    -0.241 NA
HETATM   15  C21 UNL     1      21.639   0.172  52.288  1.00  0.00     0.041 A 
HETATM   16  C18 UNL     1      21.780  -1.287  54.712  1.00  0.00     0.119 A 
HETATM   17  C19 UNL     1      22.920  -0.777  54.132  1.00  0.00     0.020 A 
HETATM   18  C20 UNL     1      22.844  -0.068  52.951  1.00  0.00     0.019 A 
ENDBRANCH  10  11
ENDBRANCH   8   9
ENDBRANCH   5   7
ENDBRANCH   1   5
BRANCH   2  19
HETATM   19  C5  UNL     1      24.647   3.350  51.732  1.00  0.00     0.152 C 
BRANCH  19  20
HETATM   20  N1  UNL     1      25.485   2.203  51.874  1.00  0.00    -0.353 N 
HETATM   21  C6  UNL     1      26.180   1.752  53.025  1.00  0.00     0.251 C 
HETATM   22  O1  UNL     1      26.050   2.450  54.079  1.00  0.00    -0.268 OA
HETATM   23  H9  UNL     1      25.659   1.553  51.051  1.00  0.00     0.163 HD
BRANCH  21  24
HETATM   24  C7  UNL     1      27.016   0.562  53.083  1.00  0.00     0.032 A 
HETATM   25  C8  UNL     1      28.317   0.521  53.478  1.00  0.00     0.020 A 
HETATM   26  C9  UNL     1      29.109  -0.606  53.533  1.00  0.00     0.043 A 
HETATM   27  C10 UNL     1      28.556  -1.817  53.157  1.00  0.00     0.116 A 
HETATM   28  F1  UNL     1      29.343  -2.914  53.216  1.00  0.00    -0.206 F 
HETATM   29  C11 UNL     1      27.240  -1.823  52.750  1.00  0.00     0.043 A 
HETATM   30  C12 UNL     1      26.499  -0.663  52.717  1.00  0.00     0.020 A 
ENDBRANCH  21  24
ENDBRANCH  19  20
ENDBRANCH   2  19
TORSDOF 8
ENDMDL
MODEL 3
REMARK VINA RESULT:      -7.9      2.689      5.536
REMARK  8 active torsions:
REMARK  status: ('A' for Active; 'I' for Inactive)
REMARK    1  A    between atoms: C2_2  and  C3_3 
REMARK    2  A    between atoms: C3_3  and  N2_16 
REMARK    3  A    between atoms: C4_4  and  C5_5 
REMARK    4  A    between atoms: C5_5  and  N1_6 
REMARK       I    between atoms: N1_6  and  C6_7 
REMARK    5  A    between atoms: C6_7  and  C7_9 
REMARK    6  A    between atoms: N2_16  and  C13_17 
REMARK    7  A    between atoms: N3_18  and  C14_19 
REMARK    8  A    between atoms: C15_20  and  C16_21 
ROOT
HETATM    1  C3  UNL     1      21.736   1.276  51.137  1.00  0.00     0.007 C 
HETATM    2  C4  UNL     1      21.904   0.348  52.094  1.00  0.00     0.017 C 
ENDROOT
BRANCH   1   3
HETATM    3  C2  UNL     1      21.161   0.822  49.872  1.00  0.00     0.052 C 
HETATM    4  C1  UNL     1      21.868   1.446  48.677  1.00  0.00     0.011 C 
ENDBRANCH   1   3
BRANCH   1   5
HETATM    5  N2  UNL     1      22.222   2.402  51.832  1.00  0.00    -0.354 N 
HETATM    6  H14 UNL     1      23.039   2.489  52.481  1.00  0.00     0.166 HD
BRANCH   5   7
HETATM    7  C13 UNL     1      21.505   3.608  51.628  1.00  0.00     0.206 C 
HETATM    8  N3  UNL     1      21.945   4.745  51.276  1.00  0.00    -0.256 NA
BRANCH   8   9
HETATM    9  C14 UNL     1      23.312   4.958  51.024  1.00  0.00     0.120 C 
HETATM   10  C15 UNL     1      23.931   4.113  50.184  1.00  0.00     0.052 C 
BRANCH  10  11
HETATM   11  C16 UNL     1      25.331   4.057  49.715  1.00  0.00     0.074 A 
HETATM   12  N4  UNL     1      26.374   3.316  49.533  1.00  0.00    -0.228 NA
HETATM   13  C17 UNL     1      27.140   4.388  49.014  1.00  0.00     0.162 A 
HETATM   14  N5  UNL     1      28.320   4.787  48.512  1.00  0.00    -0.241 NA
HETATM   15  C21 UNL     1      26.042   5.220  49.193  1.00  0.00     0.041 A 
HETATM   16  C18 UNL     1      28.530   6.067  48.135  1.00  0.00     0.119 A 
HETATM   17  C19 UNL     1      27.489   6.956  48.281  1.00  0.00     0.020 A 
HETATM   18  C20 UNL     1      26.280   6.538  48.796  1.00  0.00     0.019 A 
ENDBRANCH  10  11
ENDBRANCH   8   9
ENDBRANCH   5   7
ENDBRANCH   1   5
BRANCH   2  19
HETATM   19  C5  UNL     1      22.419   0.245  53.509  1.00  0.00     0.152 C 
BRANCH  19  20
HETATM   20  N1  UNL     1      23.780  -0.176  53.586  1.00  0.00    -0.353 N 
HETATM   21  C6  UNL     1      24.957   0.608  53.478  1.00  0.00     0.251 C 
HETATM   22  O1  UNL     1      24.795   1.854  53.286  1.00  0.00    -0.268 OA
HETATM   23  H9  UNL     1      24.024  -1.199  53.744  1.00  0.00     0.163 HD
BRANCH  21  24
HETATM   24  C7  UNL     1      26.315   0.093  53.572  1.00  0.00     0.032 A 
HETATM   25  C8  UNL     1      26.838  -0.915  52.823  1.00  0.00     0.020 A 
HETATM   26  C9  UNL     1      28.125  -1.403  52.911  1.00  0.00     0.043 A 
HETATM   27  C10 UNL     1      28.981  -0.835  53.837  1.00  0.00     0.116 A 
HETATM   28  F1  UNL     1      30.239  -1.322  53.914  1.00  0.00    -0.206 F 
HETATM   29  C11 UNL     1      28.494   0.190  54.618  1.00  0.00     0.043 A 
HETATM   30  C12 UNL     1      27.197   0.635  54.482  1.00  0.00     0.020 A 
ENDBRANCH  21  24
ENDBRANCH  19  20
ENDBRANCH   2  19
TORSDOF 8
ENDMDL
MODEL 4
REMARK VINA RESULT:      -7.8      2.832      5.723
REMARK  8 active torsions:
REMARK  status: ('A' for Active; 'I' for Inactive)
REMARK    1  A    between atoms: C2_2  and  C3_3 
REMARK    2  A    between atoms: C3_3  and  N2_16 
REMARK    3  A    between atoms: C4_4  and  C5_5 
REMARK    4  A    between atoms: C5_5  and  N1_6 
REMARK       I    between atoms: N1_6  and  C6_7 
REMARK    5  A    between atoms: C6_7  and  C7_9 
REMARK    6  A    between atoms: N2_16  and  C13_17 
REMARK    7  A    between atoms: N3_18  and  C14_19 
REMARK    8  A    between atoms: C15_20  and  C16_21 
ROOT
HETATM    1  C3  UNL     1      24.437   4.276  49.950  1.00  0.00     0.007 C 
HETATM    2  C4  UNL     1      23.956   3.330  49.125  1.00  0.00     0.017 C 
ENDROOT
BRANCH   1   3
HETATM    3  C2  UNL     1      25.821   4.694  49.738  1.00  0.00     0.052 C 
HETATM    4  C1  UNL     1      26.730   3.506  49.455  1.00  0.00     0.011 C 
ENDBRANCH   1   3
BRANCH   1   5
HETATM    5  N2  UNL     1      23.287   4.490  50.735  1.00  0.00    -0.354 N 
HETATM    6  H14 UNL     1      22.276   4.337  50.502  1.00  0.00     0.166 HD
BRANCH   5   7
HETATM    7  C13 UNL     1      23.517   4.989  52.042  1.00  0.00     0.206 C 
HETATM    8  N3  UNL     1      23.865   4.354  53.084  1.00  0.00    -0.256 NA
BRANCH   8   9
HETATM    9  C14 UNL     1      24.082   2.965  53.061  1.00  0.00     0.120 C 
HETATM   10  C15 UNL     1      25.353   2.533  53.036  1.00  0.00     0.052 C 
BRANCH  10  11
HETATM   11  C16 UNL     1      25.916   1.166  53.008  1.00  0.00     0.074 A 
HETATM   12  N4  UNL     1      25.675  -0.090  52.823  1.00  0.00    -0.228 NA
HETATM   13  C17 UNL     1      27.020  -0.462  53.065  1.00  0.00     0.162 A 
HETATM   14  N5  UNL     1      27.913  -1.461  53.145  1.00  0.00    -0.241 NA
HETATM   15  C21 UNL     1      27.322   0.878  53.272  1.00  0.00     0.041 A 
HETATM   16  C18 UNL     1      29.210  -1.226  53.442  1.00  0.00     0.119 A 
HETATM   17  C19 UNL     1      29.591   0.078  53.662  1.00  0.00     0.020 A 
HETATM   18  C20 UNL     1      28.666   1.099  53.577  1.00  0.00     0.019 A 
ENDBRANCH  10  11
ENDBRANCH   8   9
ENDBRANCH   5   7
ENDBRANCH   1   5
BRANCH   2  19
HETATM   19  C5  UNL     1      22.681   2.559  48.889  1.00  0.00     0.152 C 
BRANCH  19  20
HETATM   20  N1  UNL     1      22.391   1.616  49.919  1.00  0.00    -0.353 N 
HETATM   21  C6  UNL     1      21.415   1.697  50.946  1.00  0.00     0.251 C 
HETATM   22  O1  UNL     1      20.695   2.744  50.965  1.00  0.00    -0.268 OA
HETATM   23  H9  UNL     1      22.937   0.706  49.991  1.00  0.00     0.163 HD
BRANCH  21  24
HETATM   24  C7  UNL     1      21.185   0.680  51.961  1.00  0.00     0.032 A 
HETATM   25  C8  UNL     1      19.980   0.355  52.503  1.00  0.00     0.020 A 
HETATM   26  C9  UNL     1      19.760  -0.608  53.465  1.00  0.00     0.043 A 
HETATM   27  C10 UNL     1      20.846  -1.324  53.938  1.00  0.00     0.116 A 
HETATM   28  F1  UNL     1      20.618  -2.265  54.880  1.00  0.00    -0.206 F 
HETATM   29  C11 UNL     1      22.086  -1.028  53.417  1.00  0.00     0.043 A 
HETATM   30  C12 UNL     1      22.242  -0.053  52.456  1.00  0.00     0.020 A 
ENDBRANCH  21  24
ENDBRANCH  19  20
ENDBRANCH   2  19
TORSDOF 8
ENDMDL
MODEL 5
REMARK VINA RESULT:      -7.8      2.168      3.038
REMARK  8 active torsions:
REMARK  status: ('A' for Active; 'I' for Inactive)
REMARK    1  A    between atoms: C2_2  and  C3_3 
REMARK    2  A    between atoms: C3_3  and  N2_16 
REMARK    3  A    between atoms: C4_4  and  C5_5 
REMARK    4  A    between atoms: C5_5  and  N1_6 
REMARK       I    between atoms: N1_6  and  C6_7 
REMARK    5  A    between atoms: C6_7  and  C7_9 
REMARK    6  A    between atoms: N2_16  and  C13_17 
REMARK    7  A    between atoms: N3_18  and  C14_19 
REMARK    8  A    between atoms: C15_20  and  C16_21 
ROOT
HETATM    1  C3  UNL     1      26.147   5.637  49.086  1.00  0.00     0.007 C 
HETATM    2  C4  UNL     1      26.330   4.462  49.713  1.00  0.00     0.017 C 
ENDROOT
BRANCH   1   3
HETATM    3  C2  UNL     1      27.304   6.201  48.394  1.00  0.00     0.052 C 
HETATM    4  C1  UNL     1      28.479   5.232  48.381  1.00  0.00     0.011 C 
ENDBRANCH   1   3
BRANCH   1   5
HETATM    5  N2  UNL     1      24.784   5.836  49.380  1.00  0.00    -0.354 N 
HETATM    6  H14 UNL     1      23.935   5.374  48.975  1.00  0.00     0.166 HD
BRANCH   5   7
HETATM    7  C13 UNL     1      24.504   6.805  50.376  1.00  0.00     0.206 C 
HETATM    8  N3  UNL     1      23.487   6.900  51.129  1.00  0.00    -0.256 NA
BRANCH   8   9
HETATM    9  C14 UNL     1      22.431   5.975  51.058  1.00  0.00     0.120 C 
HETATM   10  C15 UNL     1      22.392   5.001  51.982  1.00  0.00     0.052 C 
BRANCH  10  11
HETATM   11  C16 UNL     1      21.437   3.891  52.186  1.00  0.00     0.074 A 
HETATM   12  N4  UNL     1      20.198   3.554  52.328  1.00  0.00    -0.228 NA
HETATM   13  C17 UNL     1      20.507   2.177  52.454  1.00  0.00     0.162 A 
HETATM   14  N5  UNL     1      20.038   0.932  52.631  1.00  0.00    -0.241 NA
HETATM   15  C21 UNL     1      21.850   2.497  52.305  1.00  0.00     0.041 A 
HETATM   16  C18 UNL     1      20.867  -0.133  52.679  1.00  0.00     0.119 A 
HETATM   17  C19 UNL     1      22.217   0.098  52.539  1.00  0.00     0.020 A 
HETATM   18  C20 UNL     1      22.689   1.382  52.356  1.00  0.00     0.019 A 
ENDBRANCH  10  11
ENDBRANCH   8   9
ENDBRANCH   5   7
ENDBRANCH   1   5
BRANCH   2  19
HETATM   19  C5  UNL     1      25.544   3.472  50.537  1.00  0.00     0.152 C 
BRANCH  19  20
HETATM   20  N1  UNL     1      26.320   2.354  50.969  1.00  0.00    -0.353 N 
HETATM   21  C6  UNL     1      26.434   1.807  52.272  1.00  0.00     0.251 C 
HETATM   22  O1  UNL     1      25.763   2.376  53.190  1.00  0.00    -0.268 OA
HETATM   23  H9  UNL     1      26.917   1.809  50.278  1.00  0.00     0.163 HD
BRANCH  21  24
HETATM   24  C7  UNL     1      27.251   0.656  52.626  1.00  0.00     0.032 A 
HETATM   25  C8  UNL     1      28.482   0.700  53.205  1.00  0.00     0.020 A 
HETATM   26  C9  UNL     1      29.256  -0.390  53.541  1.00  0.00     0.043 A 
HETATM   27  C10 UNL     1      28.762  -1.655  53.273  1.00  0.00     0.116 A 
HETATM   28  F1  UNL     1      29.531  -2.715  53.607  1.00  0.00    -0.206 F 
HETATM   29  C11 UNL     1      27.520  -1.747  52.686  1.00  0.00     0.043 A 
HETATM   30  C12 UNL     1      26.792  -0.619  52.375  1.00  0.00     0.020 A 
ENDBRANCH  21  24
ENDBRANCH  19  20
ENDBRANCH   2  19
TORSDOF 8
ENDMDL
MODEL 6
REMARK VINA RESULT:      -7.7      1.705      2.588
REMARK  8 active torsions:
REMARK  status: ('A' for Active; 'I' for Inactive)
REMARK    1  A    between atoms: C2_2  and  C3_3 
REMARK    2  A    between atoms: C3_3  and  N2_16 
REMARK    3  A    between atoms: C4_4  and  C5_5 
REMARK    4  A    between atoms: C5_5  and  N1_6 
REMARK       I    between atoms: N1_6  and  C6_7 
REMARK    5  A    between atoms: C6_7  and  C7_9 
REMARK    6  A    between atoms: N2_16  and  C13_17 
REMARK    7  A    between atoms: N3_18  and  C14_19 
REMARK    8  A    between atoms: C15_20  and  C16_21 
ROOT
HETATM    1  C3  UNL     1      21.130   4.057  50.987  1.00  0.00     0.007 C 
HETATM    2  C4  UNL     1      22.052   4.674  51.746  1.00  0.00     0.017 C 
ENDROOT
BRANCH   1   3
HETATM    3  C2  UNL     1      19.777   3.969  51.534  1.00  0.00     0.052 C 
HETATM    4  C1  UNL     1      18.730   4.395  50.514  1.00  0.00     0.011 C 
ENDBRANCH   1   3
BRANCH   1   5
HETATM    5  N2  UNL     1      21.935   3.738  49.875  1.00  0.00    -0.354 N 
HETATM    6  H14 UNL     1      22.884   4.095  49.609  1.00  0.00     0.166 HD
BRANCH   5   7
HETATM    7  C13 UNL     1      21.392   2.789  48.974  1.00  0.00     0.206 C 
HETATM    8  N3  UNL     1      21.262   1.535  49.122  1.00  0.00    -0.256 NA
BRANCH   8   9
HETATM    9  C14 UNL     1      21.676   0.887  50.299  1.00  0.00     0.120 C 
HETATM   10  C15 UNL     1      20.728   0.530  51.181  1.00  0.00     0.052 C 
BRANCH  10  11
HETATM   11  C16 UNL     1      20.823  -0.152  52.489  1.00  0.00     0.074 A 
HETATM   12  N4  UNL     1      20.177  -0.731  53.447  1.00  0.00    -0.228 NA
HETATM   13  C17 UNL     1      21.357  -0.992  54.187  1.00  0.00     0.162 A 
HETATM   14  N5  UNL     1      21.892  -1.522  55.298  1.00  0.00    -0.241 NA
HETATM   15  C21 UNL     1      22.089  -0.378  53.179  1.00  0.00     0.041 A 
HETATM   16  C18 UNL     1      23.223  -1.493  55.523  1.00  0.00     0.119 A 
HETATM   17  C19 UNL     1      24.021  -0.900  54.570  1.00  0.00     0.020 A 
HETATM   18  C20 UNL     1      23.462  -0.359  53.430  1.00  0.00     0.019 A 
ENDBRANCH  10  11
ENDBRANCH   8   9
ENDBRANCH   5   7
ENDBRANCH   1   5
BRANCH   2  19
HETATM   19  C5  UNL     1      23.515   5.037  51.698  1.00  0.00     0.152 C 
BRANCH  19  20
HETATM   20  N1  UNL     1      24.365   4.035  52.254  1.00  0.00    -0.353 N 
HETATM   21  C6  UNL     1      25.010   2.956  51.597  1.00  0.00     0.251 C 
HETATM   22  O1  UNL     1      24.815   2.854  50.345  1.00  0.00    -0.268 OA
HETATM   23  H9  UNL     1      24.591   4.031  53.293  1.00  0.00     0.163 HD
BRANCH  21  24
HETATM   24  C7  UNL     1      25.867   1.976  52.246  1.00  0.00     0.032 A 
HETATM   25  C8  UNL     1      26.408   0.875  51.656  1.00  0.00     0.020 A 
HETATM   26  C9  UNL     1      27.221  -0.054  52.270  1.00  0.00     0.043 A 
HETATM   27  C10 UNL     1      27.529   0.125  53.607  1.00  0.00     0.116 A 
HETATM   28  F1  UNL     1      28.327  -0.793  54.197  1.00  0.00    -0.206 F 
HETATM   29  C11 UNL     1      27.004   1.227  54.245  1.00  0.00     0.043 A 
HETATM   30  C12 UNL     1      26.197   2.121  53.576  1.00  0.00     0.020 A 
ENDBRANCH  21  24
ENDBRANCH  19  20
ENDBRANCH   2  19
TORSDOF 8
ENDMDL
MODEL 7
REMARK VINA RESULT:      -7.7      3.943      6.816
REMARK  8 active torsions:
REMARK  status: ('A' for Active; 'I' for Inactive)
REMARK    1  A    between atoms: C2_2  and  C3_3 
REMARK    2  A    between atoms: C3_3  and  N2_16 
REMARK    3  A    between atoms: C4_4  and  C5_5 
REMARK    4  A    between atoms: C5_5  and  N1_6 
REMARK       I    between atoms: N1_6  and  C6_7 
REMARK    5  A    between atoms: C6_7  and  C7_9 
REMARK    6  A    between atoms: N2_16  and  C13_17 
REMARK    7  A    between atoms: N3_18  and  C14_19 
REMARK    8  A    between atoms: C15_20  and  C16_21 
ROOT
HETATM    1  C3  UNL     1      27.952   0.667  52.978  1.00  0.00     0.007 C 
HETATM    2  C4  UNL     1      27.529   1.842  52.482  1.00  0.00     0.017 C 
ENDROOT
BRANCH   1   3
HETATM    3  C2  UNL     1      29.142   0.699  53.826  1.00  0.00     0.052 C 
HETATM    4  C1  UNL     1      29.347   2.070  54.454  1.00  0.00     0.011 C 
ENDBRANCH   1   3
BRANCH   1   5
HETATM    5  N2  UNL     1      26.965  -0.174  52.427  1.00  0.00    -0.354 N 
HETATM    6  H14 UNL     1      26.527  -0.161  51.474  1.00  0.00     0.166 HD
BRANCH   5   7
HETATM    7  C13 UNL     1      26.483  -1.200  53.279  1.00  0.00     0.206 C 
HETATM    8  N3  UNL     1      25.400  -1.241  53.939  1.00  0.00    -0.256 NA
BRANCH   8   9
HETATM    9  C14 UNL     1      24.473  -0.184  53.898  1.00  0.00     0.120 C 
HETATM   10  C15 UNL     1      23.228  -0.463  53.480  1.00  0.00     0.052 C 
BRANCH  10  11
HETATM   11  C16 UNL     1      22.039   0.400  53.322  1.00  0.00     0.074 A 
HETATM   12  N4  UNL     1      20.778   0.546  53.566  1.00  0.00    -0.228 NA
HETATM   13  C17 UNL     1      20.718   1.800  52.910  1.00  0.00     0.162 A 
HETATM   14  N5  UNL     1      19.955   2.843  52.547  1.00  0.00    -0.241 NA
HETATM   15  C21 UNL     1      22.073   1.682  52.626  1.00  0.00     0.041 A 
HETATM   16  C18 UNL     1      20.466   3.885  51.857  1.00  0.00     0.119 A 
HETATM   17  C19 UNL     1      21.805   3.845  51.535  1.00  0.00     0.020 A 
HETATM   18  C20 UNL     1      22.582   2.770  51.913  1.00  0.00     0.019 A 
ENDBRANCH  10  11
ENDBRANCH   8   9
ENDBRANCH   5   7
ENDBRANCH   1   5
BRANCH   2  19
HETATM   19  C5  UNL     1      26.428   2.383  51.603  1.00  0.00     0.152 C 
BRANCH  19  20
HETATM   20  N1  UNL     1      26.830   3.505  50.819  1.00  0.00    -0.353 N 
HETATM   21  C6  UNL     1      26.183   4.075  49.693  1.00  0.00     0.251 C 
HETATM   22  O1  UNL     1      25.100   3.525  49.319  1.00  0.00    -0.268 OA
HETATM   23  H9  UNL     1      27.722   4.036  51.049  1.00  0.00     0.163 HD
BRANCH  21  24
HETATM   24  C7  UNL     1      26.664   5.230  48.949  1.00  0.00     0.032 A 
HETATM   25  C8  UNL     1      25.918   6.304  48.574  1.00  0.00     0.020 A 
HETATM   26  C9  UNL     1      26.374   7.398  47.870  1.00  0.00     0.043 A 
HETATM   27  C10 UNL     1      27.706   7.432  47.498  1.00  0.00     0.116 A 
HETATM   28  F1  UNL     1      28.141   8.510  46.808  1.00  0.00    -0.206 F 
HETATM   29  C11 UNL     1      28.500   6.364  47.856  1.00  0.00     0.043 A 
HETATM   30  C12 UNL     1      27.985   5.298  48.562  1.00  0.00     0.020 A 
ENDBRANCH  21  24
ENDBRANCH  19  20
ENDBRANCH   2  19
TORSDOF 8
ENDMDL
MODEL 8
REMARK VINA RESULT:      -7.6      3.177      5.644
REMARK  8 active torsions:
REMARK  status: ('A' for Active; 'I' for Inactive)
REMARK    1  A    between atoms: C2_2  and  C3_3 
REMARK    2  A    between atoms: C3_3  and  N2_16 
REMARK    3  A    between atoms: C4_4  and  C5_5 
REMARK    4  A    between atoms: C5_5  and  N1_6 
REMARK       I    between atoms: N1_6  and  C6_7 
REMARK    5  A    between atoms: C6_7  and  C7_9 
REMARK    6  A    between atoms: N2_16  and  C13_17 
REMARK    7  A    between atoms: N3_18  and  C14_19 
REMARK    8  A    between atoms: C15_20  and  C16_21 
ROOT
HETATM    1  C3  UNL     1      20.444   1.394  51.791  1.00  0.00     0.007 C 
HETATM    2  C4  UNL     1      21.575   2.098  51.611  1.00  0.00     0.017 C 
ENDROOT
BRANCH   1   3
HETATM    3  C2  UNL     1      19.533   1.305  50.652  1.00  0.00     0.052 C 
HETATM    4  C1  UNL     1      20.284   1.360  49.328  1.00  0.00     0.011 C 
ENDBRANCH   1   3
BRANCH   1   5
HETATM    5  N2  UNL     1      20.644   0.993  53.128  1.00  0.00    -0.354 N 
HETATM    6  H14 UNL     1      21.093   1.507  53.923  1.00  0.00     0.166 HD
BRANCH   5   7
HETATM    7  C13 UNL     1      20.169  -0.300  53.460  1.00  0.00     0.206 C 
HETATM    8  N3  UNL     1      20.696  -1.170  54.220  1.00  0.00    -0.256 NA
BRANCH   8   9
HETATM    9  C14 UNL     1      21.916  -0.929  54.877  1.00  0.00     0.120 C 
HETATM   10  C15 UNL     1      23.041  -0.989  54.146  1.00  0.00     0.052 C 
BRANCH  10  11
HETATM   11  C16 UNL     1      24.457  -0.792  54.521  1.00  0.00     0.074 A 
HETATM   12  N4  UNL     1      25.351  -0.925  55.444  1.00  0.00    -0.228 NA
HETATM   13  C17 UNL     1      26.378  -0.377  54.636  1.00  0.00     0.162 A 
HETATM   14  N5  UNL     1      27.672  -0.034  54.543  1.00  0.00    -0.241 NA
HETATM   15  C21 UNL     1      25.448  -0.216  53.617  1.00  0.00     0.041 A 
HETATM   16  C18 UNL     1      28.178   0.511  53.416  1.00  0.00     0.119 A 
HETATM   17  C19 UNL     1      27.320   0.704  52.356  1.00  0.00     0.020 A 
HETATM   18  C20 UNL     1      25.991   0.347  52.461  1.00  0.00     0.019 A 
ENDBRANCH  10  11
ENDBRANCH   8   9
ENDBRANCH   5   7
ENDBRANCH   1   5
BRANCH   2  19
HETATM   19  C5  UNL     1      22.805   2.504  52.384  1.00  0.00     0.152 C 
BRANCH  19  20
HETATM   20  N1  UNL     1      23.859   2.993  51.555  1.00  0.00    -0.353 N 
HETATM   21  C6  UNL     1      24.080   4.315  51.093  1.00  0.00     0.251 C 
HETATM   22  O1  UNL     1      23.237   5.194  51.455  1.00  0.00    -0.268 OA
HETATM   23  H9  UNL     1      24.616   2.338  51.197  1.00  0.00     0.163 HD
BRANCH  21  24
HETATM   24  C7  UNL     1      25.190   4.729  50.247  1.00  0.00     0.032 A 
HETATM   25  C8  UNL     1      25.417   5.991  49.790  1.00  0.00     0.020 A 
HETATM   26  C9  UNL     1      26.468   6.383  48.990  1.00  0.00     0.043 A 
HETATM   27  C10 UNL     1      27.390   5.428  48.599  1.00  0.00     0.116 A 
HETATM   28  F1  UNL     1      28.415   5.826  47.815  1.00  0.00    -0.206 F 
HETATM   29  C11 UNL     1      27.199   4.136  49.038  1.00  0.00     0.043 A 
HETATM   30  C12 UNL     1      26.128   3.805  49.839  1.00  0.00     0.020 A 
ENDBRANCH  21  24
ENDBRANCH  19  20
ENDBRANCH   2  19
TORSDOF 8
ENDMDL
MODEL 9
REMARK VINA RESULT:      -7.6      3.581      6.168
REMARK  8 active torsions:
REMARK  status: ('A' for Active; 'I' for Inactive)
REMARK    1  A    between atoms: C2_2  and  C3_3 
REMARK    2  A    between atoms: C3_3  and  N2_16 
REMARK    3  A    between atoms: C4_4  and  C5_5 
REMARK    4  A    between atoms: C5_5  and  N1_6 
REMARK       I    between atoms: N1_6  and  C6_7 
REMARK    5  A    between atoms: C6_7  and  C7_9 
REMARK    6  A    between atoms: N2_16  and  C13_17 
REMARK    7  A    between atoms: N3_18  and  C14_19 
REMARK    8  A    between atoms: C15_20  and  C16_21 
ROOT
HETATM    1  C3  UNL     1      21.463   2.286  51.374  1.00  0.00     0.007 C 
HETATM    2  C4  UNL     1      22.264   3.211  51.932  1.00  0.00     0.017 C 
ENDROOT
BRANCH   1   3
HETATM    3  C2  UNL     1      20.141   2.734  50.941  1.00  0.00     0.052 C 
HETATM    4  C1  UNL     1      19.531   1.780  49.923  1.00  0.00     0.011 C 
ENDBRANCH   1   3
BRANCH   1   5
HETATM    5  N2  UNL     1      22.328   1.176  51.439  1.00  0.00    -0.354 N 
HETATM    6  H14 UNL     1      23.262   1.025  50.988  1.00  0.00     0.166 HD
BRANCH   5   7
HETATM    7  C13 UNL     1      21.880   0.092  52.234  1.00  0.00     0.206 C 
HETATM    8  N3  UNL     1      22.565  -0.732  52.914  1.00  0.00    -0.256 NA
BRANCH   8   9
HETATM    9  C14 UNL     1      23.968  -0.657  52.963  1.00  0.00     0.120 C 
HETATM   10  C15 UNL     1      24.523   0.013  53.986  1.00  0.00     0.052 C 
BRANCH  10  11
HETATM   11  C16 UNL     1      25.937   0.275  54.326  1.00  0.00     0.074 A 
HETATM   12  N4  UNL     1      26.761   1.004  55.003  1.00  0.00    -0.228 NA
HETATM   13  C17 UNL     1      27.895   0.306  54.521  1.00  0.00     0.162 A 
HETATM   14  N5  UNL     1      29.232   0.186  54.538  1.00  0.00    -0.241 NA
HETATM   15  C21 UNL     1      27.044  -0.501  53.777  1.00  0.00     0.041 A 
HETATM   16  C18 UNL     1      29.865  -0.758  53.809  1.00  0.00     0.119 A 
HETATM   17  C19 UNL     1      29.092  -1.600  53.042  1.00  0.00     0.020 A 
HETATM   18  C20 UNL     1      27.718  -1.470  53.031  1.00  0.00     0.019 A 
ENDBRANCH  10  11
ENDBRANCH   8   9
ENDBRANCH   5   7
ENDBRANCH   1   5
BRANCH   2  19
HETATM   19  C5  UNL     1      23.646   3.318  52.527  1.00  0.00     0.152 C 
BRANCH  19  20
HETATM   20  N1  UNL     1      24.551   4.074  51.723  1.00  0.00    -0.353 N 
HETATM   21  C6  UNL     1      25.008   3.802  50.409  1.00  0.00     0.251 C 
HETATM   22  O1  UNL     1      24.564   2.746  49.859  1.00  0.00    -0.268 OA
HETATM   23  H9  UNL     1      24.980   4.975  52.092  1.00  0.00     0.163 HD
BRANCH  21  24
HETATM   24  C7  UNL     1      25.936   4.635  49.658  1.00  0.00     0.032 A 
HETATM   25  C8  UNL     1      27.139   4.240  49.162  1.00  0.00     0.020 A 
HETATM   26  C9  UNL     1      28.018   5.028  48.450  1.00  0.00     0.043 A 
HETATM   27  C10 UNL     1      27.670   6.345  48.206  1.00  0.00     0.116 A 
HETATM   28  F1  UNL     1      28.539   7.108  47.507  1.00  0.00    -0.206 F 
HETATM   29  C11 UNL     1      26.459   6.789  48.690  1.00  0.00     0.043 A 
HETATM   30  C12 UNL     1      25.622   5.951  49.395  1.00  0.00     0.020 A 
ENDBRANCH  21  24
ENDBRANCH  19  20
ENDBRANCH   2  19
TORSDOF 8
ENDMDL
