MODEL 1
REMARK VINA RESULT:      -9.0      0.000      0.000
REMARK  4 active torsions:
REMARK  status: ('A' for Active; 'I' for Inactive)
REMARK    1  A    between atoms: C1_2  and  C2_3 
REMARK       I    between atoms: C1_2  and  N2_12 
REMARK    2  A    between atoms: C3_4  and  C4_5 
REMARK    3  A    between atoms: C4_5  and  N1_6 
REMARK    4  A    between atoms: N2_12  and  C9_13 
ROOT
HETATM    1  C9  UNL     1      22.383   1.811  50.545  1.00  0.00     0.049 A 
HETATM    2  C10 UNL     1      21.197   1.346  50.027  1.00  0.00     0.023 A 
HETATM    3  C11 UNL     1      20.923   0.718  51.160  1.00  0.00     0.081 A 
HETATM    4  C12 UNL     1      19.662   0.281  51.279  1.00  0.00    -0.036 A 
HETATM    5  C13 UNL     1      18.590  -0.332  51.949  1.00  0.00     0.027 A 
HETATM    6  C14 UNL     1      19.053  -0.714  53.238  1.00  0.00     0.112 A 
HETATM    7  N3  UNL     1      20.342  -0.352  53.383  1.00  0.00    -0.282 NA
HETATM    8  C15 UNL     1      21.039   0.261  52.424  1.00  0.00     0.128 A 
HETATM    9  C16 UNL     1      22.246   0.712  53.013  1.00  0.00     0.029 A 
HETATM   10  C17 UNL     1      22.176   1.193  51.746  1.00  0.00     0.136 A 
HETATM   11  O3  UNL     1      23.364   1.821  52.296  1.00  0.00    -0.331 OA
HETATM   12  C18 UNL     1      22.987   3.228  52.665  1.00  0.00     0.335 A 
HETATM   13  C19 UNL     1      21.897   3.689  52.020  1.00  0.00     0.112 A 
HETATM   14  F1  UNL     1      22.498   4.590  52.898  1.00  0.00    -0.334 F 
HETATM   15  C20 UNL     1      20.765   4.238  51.351  1.00  0.00     0.041 C 
HETATM   16  C21 UNL     1      19.713   3.598  50.772  1.00  0.00     0.026 C 
HETATM   17  C22 UNL     1      18.785   2.518  50.298  1.00  0.00     0.034 C 
HETATM   18 CL1  UNL     1      17.456   3.154  49.276  1.00  0.00    -0.084 Cl
HETATM   19  C23 UNL     1      18.699   1.150  50.441  1.00  0.00     0.032 C 
ENDROOT
BRANCH   1  20
HETATM   20  N2  UNL     1      23.430   2.588  49.975  1.00  0.00    -0.324 N 
HETATM   21  C1  UNL     1      24.407   3.370  49.390  1.00  0.00     0.245 C 
HETATM   22  O1  UNL     1      23.688   4.094  48.621  1.00  0.00    -0.268 OA
HETATM   23  H13 UNL     1      23.925   1.932  50.657  1.00  0.00     0.169 HD
BRANCH  21  24
HETATM   24  C2  UNL     1      25.861   3.285  49.678  1.00  0.00     0.072 C 
HETATM   25  C3  UNL     1      26.671   2.932  50.678  1.00  0.00    -0.002 C 
BRANCH  25  26
HETATM   26  C4  UNL     1      26.687   2.431  52.042  1.00  0.00     0.144 C 
BRANCH  26  27
HETATM   27  N1  UNL     1      27.347   1.166  52.249  1.00  0.00    -0.405 N 
HETATM   28  C5  UNL     1      28.237   1.092  53.348  1.00  0.00     0.143 C 
HETATM   29  C6  UNL     1      28.310  -0.380  53.756  1.00  0.00     0.187 C 
HETATM   30  O2  UNL     1      27.036  -0.674  54.283  1.00  0.00    -0.388 OA
HETATM   31  C7  UNL     1      26.080  -0.698  53.272  1.00  0.00     0.187 C 
HETATM   32  C8  UNL     1      26.483   0.036  52.043  1.00  0.00     0.143 C 
ENDBRANCH  26  27
ENDBRANCH  25  26
ENDBRANCH  21  24
ENDBRANCH   1  20
TORSDOF 4
ENDMDL
MODEL 2
REMARK VINA RESULT:      -9.0      2.698      4.512
REMARK  4 active torsions:
REMARK  status: ('A' for Active; 'I' for Inactive)
REMARK    1  A    between atoms: C1_2  and  C2_3 
REMARK       I    between atoms: C1_2  and  N2_12 
REMARK    2  A    between atoms: C3_4  and  C4_5 
REMARK    3  A    between atoms: C4_5  and  N1_6 
REMARK    4  A    between atoms: N2_12  and  C9_13 
ROOT
HETATM    1  C9  UNL     1      23.348   1.740  51.090  1.00  0.00     0.049 A 
HETATM    2  C10 UNL     1      22.099   1.182  50.950  1.00  0.00     0.023 A 
HETATM    3  C11 UNL     1      22.263   0.482  52.063  1.00  0.00     0.081 A 
HETATM    4  C12 UNL     1      21.151  -0.083  52.551  1.00  0.00    -0.036 A 
HETATM    5  C13 UNL     1      20.411  -0.828  53.485  1.00  0.00     0.027 A 
HETATM    6  C14 UNL     1      21.301  -1.216  54.523  1.00  0.00     0.112 A 
HETATM    7  N3  UNL     1      22.533  -0.735  54.270  1.00  0.00    -0.282 NA
HETATM    8  C15 UNL     1      22.824  -0.015  53.185  1.00  0.00     0.128 A 
HETATM    9  C16 UNL     1      24.118   0.529  53.382  1.00  0.00     0.029 A 
HETATM   10  C17 UNL     1      23.596   1.054  52.245  1.00  0.00     0.136 A 
HETATM   11  O3  UNL     1      24.845   1.772  52.425  1.00  0.00    -0.331 OA
HETATM   12  C18 UNL     1      24.500   3.118  52.998  1.00  0.00     0.335 A 
HETATM   13  C19 UNL     1      23.225   3.496  52.775  1.00  0.00     0.112 A 
HETATM   14  F1  UNL     1      24.007   4.413  53.475  1.00  0.00    -0.334 F 
HETATM   15  C20 UNL     1      21.896   3.958  52.550  1.00  0.00     0.041 C 
HETATM   16  C21 UNL     1      20.767   3.241  52.298  1.00  0.00     0.026 C 
HETATM   17  C22 UNL     1      19.824   2.096  52.072  1.00  0.00     0.034 C 
HETATM   18 CL1  UNL     1      18.187   2.640  51.583  1.00  0.00    -0.084 Cl
HETATM   19  C23 UNL     1      19.899   0.721  52.135  1.00  0.00     0.032 C 
ENDROOT
BRANCH   1  20
HETATM   20  N2  UNL     1      24.084   2.641  50.271  1.00  0.00    -0.324 N 
HETATM   21  C1  UNL     1      24.748   3.537  49.456  1.00  0.00     0.245 C 
HETATM   22  O1  UNL     1      23.755   4.144  48.928  1.00  0.00    -0.268 OA
HETATM   23  H13 UNL     1      24.830   2.069  50.777  1.00  0.00     0.169 HD
BRANCH  21  24
HETATM   24  C2  UNL     1      26.222   3.654  49.332  1.00  0.00     0.072 C 
HETATM   25  C3  UNL     1      27.137   4.569  49.003  1.00  0.00    -0.002 C 
BRANCH  25  26
HETATM   26  C4  UNL     1      27.303   5.950  48.582  1.00  0.00     0.144 C 
BRANCH  26  27
HETATM   27  N1  UNL     1      26.160   6.811  48.754  1.00  0.00    -0.405 N 
HETATM   28  C5  UNL     1      25.835   7.167  50.086  1.00  0.00     0.143 C 
HETATM   29  C6  UNL     1      25.079   8.495  50.013  1.00  0.00     0.187 C 
HETATM   30  O2  UNL     1      26.039   9.437  49.594  1.00  0.00    -0.388 OA
HETATM   31  C7  UNL     1      26.387   9.226  48.264  1.00  0.00     0.187 C 
HETATM   32  C8  UNL     1      26.083   7.855  47.771  1.00  0.00     0.143 C 
ENDBRANCH  26  27
ENDBRANCH  25  26
ENDBRANCH  21  24
ENDBRANCH   1  20
TORSDOF 4
ENDMDL
MODEL 3
REMARK VINA RESULT:      -8.8      3.107      4.444
REMARK  4 active torsions:
REMARK  status: ('A' for Active; 'I' for Inactive)
REMARK    1  A    between atoms: C1_2  and  C2_3 
REMARK       I    between atoms: C1_2  and  N2_12 
REMARK    2  A    between atoms: C3_4  and  C4_5 
REMARK    3  A    between atoms: C4_5  and  N1_6 
REMARK    4  A    between atoms: N2_12  and  C9_13 
ROOT
HETATM    1  C9  UNL     1      23.290   1.933  50.942  1.00  0.00     0.049 A 
HETATM    2  C10 UNL     1      22.030   1.416  50.749  1.00  0.00     0.023 A 
HETATM    3  C11 UNL     1      22.138   0.684  51.847  1.00  0.00     0.081 A 
HETATM    4  C12 UNL     1      20.994   0.141  52.285  1.00  0.00    -0.036 A 
HETATM    5  C13 UNL     1      20.203  -0.604  53.176  1.00  0.00     0.027 A 
HETATM    6  C14 UNL     1      21.048  -1.046  54.231  1.00  0.00     0.112 A 
HETATM    7  N3  UNL     1      22.301  -0.595  54.030  1.00  0.00    -0.282 NA
HETATM    8  C15 UNL     1      22.648   0.142  52.973  1.00  0.00     0.128 A 
HETATM    9  C16 UNL     1      23.950   0.642  53.225  1.00  0.00     0.029 A 
HETATM   10  C17 UNL     1      23.481   1.211  52.086  1.00  0.00     0.136 A 
HETATM   11  O3  UNL     1      24.744   1.886  52.324  1.00  0.00    -0.331 OA
HETATM   12  C18 UNL     1      24.420   3.228  52.921  1.00  0.00     0.335 A 
HETATM   13  C19 UNL     1      23.165   3.649  52.668  1.00  0.00     0.112 A 
HETATM   14  F1  UNL     1      23.951   4.524  53.416  1.00  0.00    -0.334 F 
HETATM   15  C20 UNL     1      21.857   4.156  52.414  1.00  0.00     0.041 C 
HETATM   16  C21 UNL     1      20.717   3.481  52.107  1.00  0.00     0.026 C 
HETATM   17  C22 UNL     1      19.749   2.370  51.822  1.00  0.00     0.034 C 
HETATM   18 CL1  UNL     1      18.145   2.976  51.297  1.00  0.00    -0.084 Cl
HETATM   19  C23 UNL     1      19.781   0.993  51.852  1.00  0.00     0.032 C 
ENDROOT
BRANCH   1  20
HETATM   20  N2  UNL     1      24.078   2.832  50.170  1.00  0.00    -0.324 N 
HETATM   21  C1  UNL     1      24.794   3.729  49.402  1.00  0.00     0.245 C 
HETATM   22  O1  UNL     1      23.838   4.409  48.896  1.00  0.00    -0.268 OA
HETATM   23  H13 UNL     1      24.790   2.200  50.654  1.00  0.00     0.169 HD
BRANCH  21  24
HETATM   24  C2  UNL     1      26.274   3.775  49.293  1.00  0.00     0.072 C 
HETATM   25  C3  UNL     1      27.233   4.640  48.956  1.00  0.00    -0.002 C 
BRANCH  25  26
HETATM   26  C4  UNL     1      27.467   6.003  48.508  1.00  0.00     0.144 C 
BRANCH  26  27
HETATM   27  N1  UNL     1      28.641   6.215  47.699  1.00  0.00    -0.405 N 
HETATM   28  C5  UNL     1      28.746   7.475  47.061  1.00  0.00     0.143 C 
HETATM   29  C6  UNL     1      30.236   7.723  46.822  1.00  0.00     0.187 C 
HETATM   30  O2  UNL     1      30.784   7.905  48.108  1.00  0.00    -0.388 OA
HETATM   31  C7  UNL     1      30.796   6.704  48.811  1.00  0.00     0.187 C 
HETATM   32  C8  UNL     1      29.840   5.691  48.291  1.00  0.00     0.143 C 
ENDBRANCH  26  27
ENDBRANCH  25  26
ENDBRANCH  21  24
ENDBRANCH   1  20
TORSDOF 4
ENDMDL
MODEL 4
REMARK VINA RESULT:      -8.7      3.115      4.871
REMARK  4 active torsions:
REMARK  status: ('A' for Active; 'I' for Inactive)
REMARK    1  A    between atoms: C1_2  and  C2_3 
REMARK       I    between atoms: C1_2  and  N2_12 
REMARK    2  A    between atoms: C3_4  and  C4_5 
REMARK    3  A    between atoms: C4_5  and  N1_6 
REMARK    4  A    between atoms: N2_12  and  C9_13 
ROOT
HETATM    1  C9  UNL     1      23.965   1.868  51.096  1.00  0.00     0.049 A 
HETATM    2  C10 UNL     1      22.788   1.661  50.413  1.00  0.00     0.023 A 
HETATM    3  C11 UNL     1      22.292   0.975  51.431  1.00  0.00     0.081 A 
HETATM    4  C12 UNL     1      20.974   0.743  51.375  1.00  0.00    -0.036 A 
HETATM    5  C13 UNL     1      19.750   0.251  51.859  1.00  0.00     0.027 A 
HETATM    6  C14 UNL     1      19.998  -0.334  53.132  1.00  0.00     0.112 A 
HETATM    7  N3  UNL     1      21.303  -0.208  53.443  1.00  0.00    -0.282 NA
HETATM    8  C15 UNL     1      22.191   0.376  52.637  1.00  0.00     0.128 A 
HETATM    9  C16 UNL     1      23.378   0.558  53.389  1.00  0.00     0.029 A 
HETATM   10  C17 UNL     1      23.528   1.172  52.188  1.00  0.00     0.136 A 
HETATM   11  O3  UNL     1      24.728   1.534  52.921  1.00  0.00    -0.331 OA
HETATM   12  C18 UNL     1      24.533   2.939  53.419  1.00  0.00     0.335 A 
HETATM   13  C19 UNL     1      23.608   3.638  52.732  1.00  0.00     0.112 A 
HETATM   14  F1  UNL     1      24.236   4.331  53.765  1.00  0.00    -0.334 F 
HETATM   15  C20 UNL     1      22.658   4.434  52.027  1.00  0.00     0.041 C 
HETATM   16  C21 UNL     1      21.594   4.040  51.277  1.00  0.00     0.026 C 
HETATM   17  C22 UNL     1      20.571   3.183  50.590  1.00  0.00     0.034 C 
HETATM   18 CL1  UNL     1      19.482   4.133  49.527  1.00  0.00    -0.084 Cl
HETATM   19  C23 UNL     1      20.258   1.841  50.558  1.00  0.00     0.032 C 
ENDROOT
BRANCH   1  20
HETATM   20  N2  UNL     1      25.177   2.514  50.727  1.00  0.00    -0.324 N 
HETATM   21  C1  UNL     1      26.380   3.115  50.412  1.00  0.00     0.245 C 
HETATM   22  O1  UNL     1      27.136   2.589  51.299  1.00  0.00    -0.268 OA
HETATM   23  H13 UNL     1      24.454   2.883  50.033  1.00  0.00     0.169 HD
BRANCH  21  24
HETATM   24  C2  UNL     1      26.592   4.086  49.309  1.00  0.00     0.072 C 
HETATM   25  C3  UNL     1      26.396   5.381  49.056  1.00  0.00    -0.002 C 
BRANCH  25  26
HETATM   26  C4  UNL     1      25.892   6.617  49.631  1.00  0.00     0.144 C 
BRANCH  26  27
HETATM   27  N1  UNL     1      26.208   7.829  48.917  1.00  0.00    -0.405 N 
HETATM   28  C5  UNL     1      25.257   8.875  49.000  1.00  0.00     0.143 C 
HETATM   29  C6  UNL     1      26.017  10.179  48.755  1.00  0.00     0.187 C 
HETATM   30  O2  UNL     1      26.846  10.333  49.885  1.00  0.00    -0.388 OA
HETATM   31  C7  UNL     1      27.870   9.392  49.874  1.00  0.00     0.187 C 
HETATM   32  C8  UNL     1      27.590   8.205  49.022  1.00  0.00     0.143 C 
ENDBRANCH  26  27
ENDBRANCH  25  26
ENDBRANCH  21  24
ENDBRANCH   1  20
TORSDOF 4
ENDMDL
MODEL 5
REMARK VINA RESULT:      -8.6      2.520      4.799
REMARK  4 active torsions:
REMARK  status: ('A' for Active; 'I' for Inactive)
REMARK    1  A    between atoms: C1_2  and  C2_3 
REMARK       I    between atoms: C1_2  and  N2_12 
REMARK    2  A    between atoms: C3_4  and  C4_5 
REMARK    3  A    between atoms: C4_5  and  N1_6 
REMARK    4  A    between atoms: N2_12  and  C9_13 
ROOT
HETATM    1  C9  UNL     1      22.981   2.050  50.781  1.00  0.00     0.049 A 
HETATM    2  C10 UNL     1      21.926   1.168  50.765  1.00  0.00     0.023 A 
HETATM    3  C11 UNL     1      22.345   0.611  51.891  1.00  0.00     0.081 A 
HETATM    4  C12 UNL     1      21.463  -0.201  52.489  1.00  0.00    -0.036 A 
HETATM    5  C13 UNL     1      21.016  -1.056  53.510  1.00  0.00     0.027 A 
HETATM    6  C14 UNL     1      22.043  -1.123  54.492  1.00  0.00     0.112 A 
HETATM    7  N3  UNL     1      23.078  -0.345  54.121  1.00  0.00    -0.282 NA
HETATM    8  C15 UNL     1      23.092   0.356  52.986  1.00  0.00     0.128 A 
HETATM    9  C16 UNL     1      24.198   1.239  53.057  1.00  0.00     0.029 A 
HETATM   10  C17 UNL     1      23.481   1.531  51.942  1.00  0.00     0.136 A 
HETATM   11  O3  UNL     1      24.495   2.569  51.991  1.00  0.00    -0.331 OA
HETATM   12  C18 UNL     1      23.832   3.806  52.530  1.00  0.00     0.335 A 
HETATM   13  C19 UNL     1      22.492   3.811  52.392  1.00  0.00     0.112 A 
HETATM   14  F1  UNL     1      23.037   4.948  52.987  1.00  0.00    -0.334 F 
HETATM   15  C20 UNL     1      21.075   3.884  52.253  1.00  0.00     0.041 C 
HETATM   16  C21 UNL     1      20.171   2.875  52.121  1.00  0.00     0.026 C 
HETATM   17  C22 UNL     1      19.565   1.506  52.021  1.00  0.00     0.034 C 
HETATM   18 CL1  UNL     1      17.813   1.557  51.640  1.00  0.00    -0.084 Cl
HETATM   19  C23 UNL     1      20.016   0.209  52.139  1.00  0.00     0.032 C 
ENDROOT
BRANCH   1  20
HETATM   20  N2  UNL     1      23.389   3.062  49.867  1.00  0.00    -0.324 N 
HETATM   21  C1  UNL     1      23.743   4.027  48.944  1.00  0.00     0.245 C 
HETATM   22  O1  UNL     1      22.871   3.804  48.037  1.00  0.00    -0.268 OA
HETATM   23  H13 UNL     1      24.062   3.158  50.691  1.00  0.00     0.169 HD
BRANCH  21  24
HETATM   24  C2  UNL     1      24.855   4.997  49.101  1.00  0.00     0.072 C 
HETATM   25  C3  UNL     1      25.159   6.074  49.828  1.00  0.00    -0.002 C 
BRANCH  25  26
HETATM   26  C4  UNL     1      24.657   6.954  50.871  1.00  0.00     0.144 C 
BRANCH  26  27
HETATM   27  N1  UNL     1      23.578   7.833  50.498  1.00  0.00    -0.405 N 
HETATM   28  C5  UNL     1      23.742   8.555  49.291  1.00  0.00     0.143 C 
HETATM   29  C6  UNL     1      22.338   8.885  48.782  1.00  0.00     0.187 C 
HETATM   30  O2  UNL     1      21.788   7.642  48.406  1.00  0.00    -0.388 OA
HETATM   31  C7  UNL     1      21.517   6.866  49.528  1.00  0.00     0.187 C 
HETATM   32  C8  UNL     1      22.278   7.270  50.740  1.00  0.00     0.143 C 
ENDBRANCH  26  27
ENDBRANCH  25  26
ENDBRANCH  21  24
ENDBRANCH   1  20
TORSDOF 4
ENDMDL
MODEL 6
REMARK VINA RESULT:      -8.5      4.051      6.047
REMARK  4 active torsions:
REMARK  status: ('A' for Active; 'I' for Inactive)
REMARK    1  A    between atoms: C1_2  and  C2_3 
REMARK       I    between atoms: C1_2  and  N2_12 
REMARK    2  A    between atoms: C3_4  and  C4_5 
REMARK    3  A    between atoms: C4_5  and  N1_6 
REMARK    4  A    between atoms: N2_12  and  C9_13 
ROOT
HETATM    1  C9  UNL     1      23.294   4.000  52.009  1.00  0.00     0.049 A 
HETATM    2  C10 UNL     1      24.073   3.413  52.979  1.00  0.00     0.023 A 
HETATM    3  C11 UNL     1      23.448   2.258  52.812  1.00  0.00     0.081 A 
HETATM    4  C12 UNL     1      24.040   1.201  53.385  1.00  0.00    -0.036 A 
HETATM    5  C13 UNL     1      24.175  -0.162  53.699  1.00  0.00     0.027 A 
HETATM    6  C14 UNL     1      23.107  -0.854  53.064  1.00  0.00     0.112 A 
HETATM    7  N3  UNL     1      22.345   0.017  52.376  1.00  0.00    -0.282 NA
HETATM    8  C15 UNL     1      22.592   1.328  52.338  1.00  0.00     0.128 A 
HETATM    9  C16 UNL     1      21.762   1.878  51.329  1.00  0.00     0.029 A 
HETATM   10  C17 UNL     1      22.601   2.847  51.776  1.00  0.00     0.136 A 
HETATM   11  O3  UNL     1      21.902   3.469  50.666  1.00  0.00    -0.331 OA
HETATM   12  C18 UNL     1      22.837   3.446  49.489  1.00  0.00     0.335 A 
HETATM   13  C19 UNL     1      24.136   3.319  49.826  1.00  0.00     0.112 A 
HETATM   14  F1  UNL     1      23.879   3.426  48.460  1.00  0.00    -0.334 F 
HETATM   15  C20 UNL     1      25.525   3.210  50.123  1.00  0.00     0.041 C 
HETATM   16  C21 UNL     1      26.131   2.693  51.225  1.00  0.00     0.026 C 
HETATM   17  C22 UNL     1      26.353   2.038  52.558  1.00  0.00     0.034 C 
HETATM   18 CL1  UNL     1      28.074   2.067  53.059  1.00  0.00    -0.084 Cl
HETATM   19  C23 UNL     1      25.563   1.424  53.506  1.00  0.00     0.032 C 
ENDROOT
BRANCH   1  20
HETATM   20  N2  UNL     1      23.232   5.335  51.518  1.00  0.00    -0.324 N 
HETATM   21  C1  UNL     1      23.116   6.623  51.034  1.00  0.00     0.245 C 
HETATM   22  O1  UNL     1      21.859   6.667  50.806  1.00  0.00    -0.268 OA
HETATM   23  H13 UNL     1      24.264   5.183  51.752  1.00  0.00     0.169 HD
BRANCH  21  24
HETATM   24  C2  UNL     1      24.235   7.587  50.881  1.00  0.00     0.072 C 
HETATM   25  C3  UNL     1      25.398   7.685  50.235  1.00  0.00    -0.002 C 
BRANCH  25  26
HETATM   26  C4  UNL     1      26.287   6.985  49.322  1.00  0.00     0.144 C 
BRANCH  26  27
HETATM   27  N1  UNL     1      27.272   7.792  48.647  1.00  0.00    -0.405 N 
HETATM   28  C5  UNL     1      27.901   8.797  49.421  1.00  0.00     0.143 C 
HETATM   29  C6  UNL     1      29.258   9.067  48.770  1.00  0.00     0.187 C 
HETATM   30  O2  UNL     1      30.008   7.895  48.993  1.00  0.00    -0.388 OA
HETATM   31  C7  UNL     1      29.518   6.845  48.223  1.00  0.00     0.187 C 
HETATM   32  C8  UNL     1      28.116   7.036  47.764  1.00  0.00     0.143 C 
ENDBRANCH  26  27
ENDBRANCH  25  26
ENDBRANCH  21  24
ENDBRANCH   1  20
TORSDOF 4
ENDMDL
MODEL 7
REMARK VINA RESULT:      -8.5      2.764      5.870
REMARK  4 active torsions:
REMARK  status: ('A' for Active; 'I' for Inactive)
REMARK    1  A    between atoms: C1_2  and  C2_3 
REMARK       I    between atoms: C1_2  and  N2_12 
REMARK    2  A    between atoms: C3_4  and  C4_5 
REMARK    3  A    between atoms: C4_5  and  N1_6 
REMARK    4  A    between atoms: N2_12  and  C9_13 
ROOT
HETATM    1  C9  UNL     1      22.762   3.282  49.870  1.00  0.00     0.049 A 
HETATM    2  C10 UNL     1      24.014   2.774  49.610  1.00  0.00     0.023 A 
HETATM    3  C11 UNL     1      24.456   3.976  49.275  1.00  0.00     0.081 A 
HETATM    4  C12 UNL     1      25.788   4.087  49.172  1.00  0.00    -0.036 A 
HETATM    5  C13 UNL     1      26.991   4.780  48.956  1.00  0.00     0.027 A 
HETATM    6  C14 UNL     1      26.661   6.141  48.711  1.00  0.00     0.112 A 
HETATM    7  N3  UNL     1      25.326   6.306  48.781  1.00  0.00    -0.282 NA
HETATM    8  C15 UNL     1      24.482   5.304  49.034  1.00  0.00     0.128 A 
HETATM    9  C16 UNL     1      23.214   5.885  49.288  1.00  0.00     0.029 A 
HETATM   10  C17 UNL     1      23.139   4.553  49.540  1.00  0.00     0.136 A 
HETATM   11  O3  UNL     1      21.847   5.065  49.960  1.00  0.00    -0.331 OA
HETATM   12  C18 UNL     1      21.881   5.170  51.459  1.00  0.00     0.335 A 
HETATM   13  C19 UNL     1      22.813   4.389  52.040  1.00  0.00     0.112 A 
HETATM   14  F1  UNL     1      22.032   5.140  52.916  1.00  0.00    -0.334 F 
HETATM   15  C20 UNL     1      23.765   3.567  52.711  1.00  0.00     0.041 C 
HETATM   16  C21 UNL     1      24.927   3.038  52.242  1.00  0.00     0.026 C 
HETATM   17  C22 UNL     1      26.078   2.693  51.342  1.00  0.00     0.034 C 
HETATM   18 CL1  UNL     1      27.191   1.496  52.080  1.00  0.00    -0.084 Cl
HETATM   19  C23 UNL     1      26.495   3.056  50.080  1.00  0.00     0.032 C 
ENDROOT
BRANCH   1  20
HETATM   20  N2  UNL     1      21.547   2.658  50.267  1.00  0.00    -0.324 N 
HETATM   21  C1  UNL     1      20.339   2.087  50.617  1.00  0.00     0.245 C 
HETATM   22  O1  UNL     1      19.546   2.761  49.876  1.00  0.00    -0.268 OA
HETATM   23  H13 UNL     1      22.302   2.159  50.834  1.00  0.00     0.169 HD
BRANCH  21  24
HETATM   24  C2  UNL     1      20.162   0.989  51.600  1.00  0.00     0.072 C 
HETATM   25  C3  UNL     1      20.782   0.481  52.667  1.00  0.00    -0.002 C 
BRANCH  25  26
HETATM   26  C4  UNL     1      21.947   0.640  53.522  1.00  0.00     0.144 C 
BRANCH  26  27
HETATM   27  N1  UNL     1      22.885  -0.454  53.530  1.00  0.00    -0.405 N 
HETATM   28  C5  UNL     1      24.236  -0.128  53.260  1.00  0.00     0.143 C 
HETATM   29  C6  UNL     1      25.090  -1.213  53.917  1.00  0.00     0.187 C 
HETATM   30  O2  UNL     1      24.925  -1.015  55.303  1.00  0.00    -0.388 OA
HETATM   31  C7  UNL     1      23.641  -1.374  55.700  1.00  0.00     0.187 C 
HETATM   32  C8  UNL     1      22.649  -1.394  54.591  1.00  0.00     0.143 C 
ENDBRANCH  26  27
ENDBRANCH  25  26
ENDBRANCH  21  24
ENDBRANCH   1  20
TORSDOF 4
ENDMDL
MODEL 8
REMARK VINA RESULT:      -8.5      3.223      6.286
REMARK  4 active torsions:
REMARK  status: ('A' for Active; 'I' for Inactive)
REMARK    1  A    between atoms: C1_2  and  C2_3 
REMARK       I    between atoms: C1_2  and  N2_12 
REMARK    2  A    between atoms: C3_4  and  C4_5 
REMARK    3  A    between atoms: C4_5  and  N1_6 
REMARK    4  A    between atoms: N2_12  and  C9_13 
ROOT
HETATM    1  C9  UNL     1      22.116   2.724  51.939  1.00  0.00     0.049 A 
HETATM    2  C10 UNL     1      23.395   3.194  52.126  1.00  0.00     0.023 A 
HETATM    3  C11 UNL     1      23.811   1.986  52.473  1.00  0.00     0.081 A 
HETATM    4  C12 UNL     1      25.142   1.831  52.516  1.00  0.00    -0.036 A 
HETATM    5  C13 UNL     1      26.329   1.101  52.695  1.00  0.00     0.027 A 
HETATM    6  C14 UNL     1      25.965  -0.241  52.993  1.00  0.00     0.112 A 
HETATM    7  N3  UNL     1      24.624  -0.359  52.990  1.00  0.00    -0.282 NA
HETATM    8  C15 UNL     1      23.803   0.665  52.749  1.00  0.00     0.128 A 
HETATM    9  C16 UNL     1      22.505   0.123  52.572  1.00  0.00     0.029 A 
HETATM   10  C17 UNL     1      22.464   1.449  52.286  1.00  0.00     0.136 A 
HETATM   11  O3  UNL     1      21.136   0.973  51.943  1.00  0.00    -0.331 OA
HETATM   12  C18 UNL     1      21.094   0.828  50.447  1.00  0.00     0.335 A 
HETATM   13  C19 UNL     1      22.024   1.559  49.801  1.00  0.00     0.112 A 
HETATM   14  F1  UNL     1      21.176   0.813  48.984  1.00  0.00    -0.334 F 
HETATM   15  C20 UNL     1      22.970   2.328  49.063  1.00  0.00     0.041 C 
HETATM   16  C21 UNL     1      24.171   2.828  49.462  1.00  0.00     0.026 C 
HETATM   17  C22 UNL     1      25.375   3.156  50.296  1.00  0.00     0.034 C 
HETATM   18 CL1  UNL     1      26.492   4.292  49.473  1.00  0.00    -0.084 Cl
HETATM   19  C23 UNL     1      25.839   2.811  51.547  1.00  0.00     0.032 C 
ENDROOT
BRANCH   1  20
HETATM   20  N2  UNL     1      20.905   3.380  51.582  1.00  0.00    -0.324 N 
HETATM   21  C1  UNL     1      19.704   3.993  51.281  1.00  0.00     0.245 C 
HETATM   22  O1  UNL     1      18.979   3.556  52.239  1.00  0.00    -0.268 OA
HETATM   23  H13 UNL     1      21.604   3.683  50.834  1.00  0.00     0.169 HD
BRANCH  21  24
HETATM   24  C2  UNL     1      19.467   4.895  50.127  1.00  0.00     0.072 C 
HETATM   25  C3  UNL     1      19.824   6.111  49.708  1.00  0.00    -0.002 C 
BRANCH  25  26
HETATM   26  C4  UNL     1      20.617   7.278  50.059  1.00  0.00     0.144 C 
BRANCH  26  27
HETATM   27  N1  UNL     1      21.958   7.319  49.532  1.00  0.00    -0.405 N 
HETATM   28  C5  UNL     1      22.538   8.602  49.387  1.00  0.00     0.143 C 
HETATM   29  C6  UNL     1      24.054   8.408  49.444  1.00  0.00     0.187 C 
HETATM   30  O2  UNL     1      24.321   8.023  50.773  1.00  0.00    -0.388 OA
HETATM   31  C7  UNL     1      23.851   6.735  51.015  1.00  0.00     0.187 C 
HETATM   32  C8  UNL     1      22.805   6.285  50.058  1.00  0.00     0.143 C 
ENDBRANCH  26  27
ENDBRANCH  25  26
ENDBRANCH  21  24
ENDBRANCH   1  20
TORSDOF 4
ENDMDL
MODEL 9
REMARK VINA RESULT:      -8.3      2.313      4.820
REMARK  4 active torsions:
REMARK  status: ('A' for Active; 'I' for Inactive)
REMARK    1  A    between atoms: C1_2  and  C2_3 
REMARK       I    between atoms: C1_2  and  N2_12 
REMARK    2  A    between atoms: C3_4  and  C4_5 
REMARK    3  A    between atoms: C4_5  and  N1_6 
REMARK    4  A    between atoms: N2_12  and  C9_13 
ROOT
HETATM    1  C9  UNL     1      23.759   2.056  50.890  1.00  0.00     0.049 A 
HETATM    2  C10 UNL     1      22.566   1.811  50.250  1.00  0.00     0.023 A 
HETATM    3  C11 UNL     1      22.147   1.074  51.267  1.00  0.00     0.081 A 
HETATM    4  C12 UNL     1      20.840   0.779  51.258  1.00  0.00    -0.036 A 
HETATM    5  C13 UNL     1      19.663   0.215  51.778  1.00  0.00     0.027 A 
HETATM    6  C14 UNL     1      19.992  -0.391  53.021  1.00  0.00     0.112 A 
HETATM    7  N3  UNL     1      21.301  -0.210  53.282  1.00  0.00    -0.282 NA
HETATM    8  C15 UNL     1      22.125   0.438  52.457  1.00  0.00     0.128 A 
HETATM    9  C16 UNL     1      23.333   0.657  53.165  1.00  0.00     0.029 A 
HETATM   10  C17 UNL     1      23.403   1.311  51.978  1.00  0.00     0.136 A 
HETATM   11  O3  UNL     1      24.614   1.710  52.671  1.00  0.00    -0.331 OA
HETATM   12  C18 UNL     1      24.374   3.090  53.217  1.00  0.00     0.335 A 
HETATM   13  C19 UNL     1      23.388   3.761  52.590  1.00  0.00     0.112 A 
HETATM   14  F1  UNL     1      24.026   4.456  53.616  1.00  0.00    -0.334 F 
HETATM   15  C20 UNL     1      22.372   4.529  51.949  1.00  0.00     0.041 C 
HETATM   16  C21 UNL     1      21.297   4.104  51.232  1.00  0.00     0.026 C 
HETATM   17  C22 UNL     1      20.288   3.218  50.562  1.00  0.00     0.034 C 
HETATM   18 CL1  UNL     1      19.111   4.142  49.574  1.00  0.00    -0.084 Cl
HETATM   19  C23 UNL     1      20.039   1.863  50.504  1.00  0.00     0.032 C 
ENDROOT
BRANCH   1  20
HETATM   20  N2  UNL     1      24.922   2.771  50.490  1.00  0.00    -0.324 N 
HETATM   21  C1  UNL     1      26.084   3.424  50.126  1.00  0.00     0.245 C 
HETATM   22  O1  UNL     1      26.956   2.612  50.589  1.00  0.00    -0.268 OA
HETATM   23  H13 UNL     1      24.108   3.369  50.144  1.00  0.00     0.169 HD
BRANCH  21  24
HETATM   24  C2  UNL     1      26.150   4.713  49.394  1.00  0.00     0.072 C 
HETATM   25  C3  UNL     1      25.324   5.657  48.938  1.00  0.00    -0.002 C 
BRANCH  25  26
HETATM   26  C4  UNL     1      23.923   6.038  48.856  1.00  0.00     0.144 C 
BRANCH  26  27
HETATM   27  N1  UNL     1      23.241   5.701  47.632  1.00  0.00    -0.405 N 
HETATM   28  C5  UNL     1      22.362   4.593  47.686  1.00  0.00     0.143 C 
HETATM   29  C6  UNL     1      21.331   4.796  46.575  1.00  0.00     0.187 C 
HETATM   30  O2  UNL     1      20.565   5.905  46.988  1.00  0.00    -0.388 OA
HETATM   31  C7  UNL     1      21.314   7.075  46.909  1.00  0.00     0.187 C 
HETATM   32  C8  UNL     1      22.785   6.851  46.902  1.00  0.00     0.143 C 
ENDBRANCH  26  27
ENDBRANCH  25  26
ENDBRANCH  21  24
ENDBRANCH   1  20
TORSDOF 4
ENDMDL
