MODEL 1
REMARK VINA RESULT:      -8.4      0.000      0.000
REMARK  2 active torsions:
REMARK  status: ('A' for Active; 'I' for Inactive)
REMARK    1  A    between atoms: O1_2  and  C2_3 
REMARK    2  A    between atoms: C16_19  and  N2_20 
ROOT
HETATM    1  C2  UNL     1      26.601   0.902  53.843  1.00  0.00     0.102 A 
HETATM    2  C3  UNL     1      26.851   2.085  53.225  1.00  0.00     0.047 A 
HETATM    3  C4  UNL     1      26.287   2.492  52.047  1.00  0.00    -0.047 A 
HETATM    4  C5  UNL     1      25.670   1.247  52.161  1.00  0.00     0.010 A 
HETATM    5  C6  UNL     1      25.043   0.043  52.225  1.00  0.00     0.040 A 
HETATM    6  C7  UNL     1      25.762  -0.061  53.394  1.00  0.00     0.102 A 
HETATM    7  O2  UNL     1      25.579  -1.248  54.125  1.00  0.00    -0.348 OA
HETATM    8  C8  UNL     1      24.494  -1.213  55.122  1.00  0.00     0.176 C 
HETATM    9  C9  UNL     1      23.277  -0.860  54.348  1.00  0.00     0.027 C 
HETATM   10  C10 UNL     1      21.990  -0.746  55.142  1.00  0.00     0.006 C 
HETATM   11  C11 UNL     1      20.931  -0.316  54.102  1.00  0.00     0.027 C 
HETATM   12  C12 UNL     1      21.231   0.980  53.483  1.00  0.00    -0.023 C 
HETATM   13  C13 UNL     1      21.475   1.271  52.179  1.00  0.00    -0.070 C 
HETATM   14  C14 UNL     1      21.478   0.255  51.091  1.00  0.00     0.044 C 
HETATM   15  C15 UNL     1      21.775   2.612  51.615  1.00  0.00     0.161 C 
HETATM   16  N1  UNL     1      23.061   2.702  50.958  1.00  0.00    -0.322 N 
HETATM   17  C16 UNL     1      23.044   2.310  49.563  1.00  0.00     0.285 A 
HETATM   18  C17 UNL     1      24.401   2.868  50.575  1.00  0.00     0.193 A 
HETATM   19  O3  UNL     1      24.289   3.146  51.835  1.00  0.00    -0.279 OA
HETATM   20  C18 UNL     1      25.846   3.207  50.810  1.00  0.00     0.136 C 
ENDROOT
BRANCH   1  21
HETATM   21  O1  UNL     1      27.366   0.892  54.993  1.00  0.00    -0.353 OA
HETATM   22  C1  UNL     1      28.649   0.280  54.868  1.00  0.00     0.210 C 
ENDBRANCH   1  21
BRANCH  17  23
HETATM   23  N2  UNL     1      23.352   3.266  48.797  1.00  0.00    -0.306 NA
HETATM   24  H22 UNL     1      22.986   4.229  48.833  1.00  0.00     0.182 HD
ENDBRANCH  17  23
TORSDOF 2
ENDMDL
MODEL 2
REMARK VINA RESULT:      -8.2      1.876      4.378
REMARK  2 active torsions:
REMARK  status: ('A' for Active; 'I' for Inactive)
REMARK    1  A    between atoms: O1_2  and  C2_3 
REMARK    2  A    between atoms: C16_19  and  N2_20 
ROOT
HETATM    1  C2  UNL     1      26.430   0.335  52.999  1.00  0.00     0.102 A 
HETATM    2  C3  UNL     1      25.821  -0.760  53.524  1.00  0.00     0.047 A 
HETATM    3  C4  UNL     1      24.544  -0.792  54.012  1.00  0.00    -0.047 A 
HETATM    4  C5  UNL     1      24.596   0.549  53.636  1.00  0.00     0.010 A 
HETATM    5  C6  UNL     1      24.595   1.863  53.287  1.00  0.00     0.040 A 
HETATM    6  C7  UNL     1      25.875   1.564  52.879  1.00  0.00     0.102 A 
HETATM    7  O2  UNL     1      26.604   2.625  52.313  1.00  0.00    -0.348 OA
HETATM    8  C8  UNL     1      26.472   2.771  50.852  1.00  0.00     0.176 C 
HETATM    9  C9  UNL     1      25.014   2.928  50.616  1.00  0.00     0.027 C 
HETATM   10  C10 UNL     1      24.585   3.092  49.171  1.00  0.00     0.006 C 
HETATM   11  C11 UNL     1      23.043   3.169  49.232  1.00  0.00     0.027 C 
HETATM   12  C12 UNL     1      22.432   1.953  49.779  1.00  0.00    -0.023 C 
HETATM   13  C13 UNL     1      21.676   1.803  50.898  1.00  0.00    -0.070 C 
HETATM   14  C14 UNL     1      21.318   2.922  51.811  1.00  0.00     0.044 C 
HETATM   15  C15 UNL     1      21.084   0.536  51.400  1.00  0.00     0.161 C 
HETATM   16  N1  UNL     1      21.533   0.160  52.723  1.00  0.00    -0.322 N 
HETATM   17  C16 UNL     1      20.761   0.745  53.800  1.00  0.00     0.285 A 
HETATM   18  C17 UNL     1      22.168  -0.347  53.868  1.00  0.00     0.193 A 
HETATM   19  O3  UNL     1      22.801  -0.765  52.818  1.00  0.00    -0.279 OA
HETATM   20  C18 UNL     1      23.214  -1.142  54.597  1.00  0.00     0.136 C 
ENDROOT
BRANCH   1  21
HETATM   21  O1  UNL     1      27.700  -0.064  52.627  1.00  0.00    -0.353 OA
HETATM   22  C1  UNL     1      28.590  -0.351  53.705  1.00  0.00     0.210 C 
ENDBRANCH   1  21
BRANCH  17  23
HETATM   23  N2  UNL     1      20.173  -0.132  54.495  1.00  0.00    -0.306 NA
HETATM   24  H22 UNL     1      20.037  -0.121  55.517  1.00  0.00     0.182 HD
ENDBRANCH  17  23
TORSDOF 2
ENDMDL
MODEL 3
REMARK VINA RESULT:      -8.2      1.771      4.416
REMARK  2 active torsions:
REMARK  status: ('A' for Active; 'I' for Inactive)
REMARK    1  A    between atoms: O1_2  and  C2_3 
REMARK    2  A    between atoms: C16_19  and  N2_20 
ROOT
HETATM    1  C2  UNL     1      25.171   0.063  53.539  1.00  0.00     0.102 A 
HETATM    2  C3  UNL     1      23.974  -0.577  53.589  1.00  0.00     0.047 A 
HETATM    3  C4  UNL     1      22.752   0.035  53.515  1.00  0.00    -0.047 A 
HETATM    4  C5  UNL     1      23.563   1.164  53.417  1.00  0.00     0.010 A 
HETATM    5  C6  UNL     1      24.308   2.296  53.319  1.00  0.00     0.040 A 
HETATM    6  C7  UNL     1      25.347   1.398  53.412  1.00  0.00     0.102 A 
HETATM    7  O2  UNL     1      26.641   1.948  53.367  1.00  0.00    -0.348 OA
HETATM    8  C8  UNL     1      27.230   2.063  52.021  1.00  0.00     0.176 C 
HETATM    9  C9  UNL     1      26.263   2.888  51.252  1.00  0.00     0.027 C 
HETATM   10  C10 UNL     1      26.622   3.162  49.804  1.00  0.00     0.006 C 
HETATM   11  C11 UNL     1      25.426   3.973  49.257  1.00  0.00     0.027 C 
HETATM   12  C12 UNL     1      24.161   3.231  49.307  1.00  0.00    -0.023 C 
HETATM   13  C13 UNL     1      23.024   3.521  49.990  1.00  0.00    -0.070 C 
HETATM   14  C14 UNL     1      22.861   4.721  50.856  1.00  0.00     0.044 C 
HETATM   15  C15 UNL     1      21.771   2.723  49.998  1.00  0.00     0.161 C 
HETATM   16  N1  UNL     1      21.384   2.247  51.308  1.00  0.00    -0.322 N 
HETATM   17  C16 UNL     1      20.585   3.186  52.069  1.00  0.00     0.285 A 
HETATM   18  C17 UNL     1      21.160   1.558  52.511  1.00  0.00     0.193 A 
HETATM   19  O3  UNL     1      21.914   0.832  51.747  1.00  0.00    -0.279 OA
HETATM   20  C18 UNL     1      21.303   0.398  53.455  1.00  0.00     0.136 C 
ENDROOT
BRANCH   1  21
HETATM   21  O1  UNL     1      26.141  -0.916  53.644  1.00  0.00    -0.353 OA
HETATM   22  C1  UNL     1      26.575  -1.481  52.407  1.00  0.00     0.210 C 
ENDBRANCH   1  21
BRANCH  17  23
HETATM   23  N2  UNL     1      19.430   2.737  52.317  1.00  0.00    -0.306 NA
HETATM   24  H22 UNL     1      19.176   2.060  53.051  1.00  0.00     0.182 HD
ENDBRANCH  17  23
TORSDOF 2
ENDMDL
MODEL 4
REMARK VINA RESULT:      -7.9      2.289      4.807
REMARK  2 active torsions:
REMARK  status: ('A' for Active; 'I' for Inactive)
REMARK    1  A    between atoms: O1_2  and  C2_3 
REMARK    2  A    between atoms: C16_19  and  N2_20 
ROOT
HETATM    1  C2  UNL     1      22.743   2.642  50.572  1.00  0.00     0.102 A 
HETATM    2  C3  UNL     1      23.867   2.840  49.837  1.00  0.00     0.047 A 
HETATM    3  C4  UNL     1      25.120   3.037  50.351  1.00  0.00    -0.047 A 
HETATM    4  C5  UNL     1      24.415   2.904  51.546  1.00  0.00     0.010 A 
HETATM    5  C6  UNL     1      23.775   2.783  52.740  1.00  0.00     0.040 A 
HETATM    6  C7  UNL     1      22.680   2.610  51.924  1.00  0.00     0.102 A 
HETATM    7  O2  UNL     1      21.454   2.392  52.578  1.00  0.00    -0.348 OA
HETATM    8  C8  UNL     1      21.127   0.980  52.847  1.00  0.00     0.176 C 
HETATM    9  C9  UNL     1      22.269   0.472  53.649  1.00  0.00     0.027 C 
HETATM   10  C10 UNL     1      22.196  -0.985  54.066  1.00  0.00     0.006 C 
HETATM   11  C11 UNL     1      23.521  -1.238  54.819  1.00  0.00     0.027 C 
HETATM   12  C12 UNL     1      24.705  -1.038  53.975  1.00  0.00    -0.023 C 
HETATM   13  C13 UNL     1      25.717  -0.144  54.117  1.00  0.00    -0.070 C 
HETATM   14  C14 UNL     1      25.799   0.844  55.227  1.00  0.00     0.044 C 
HETATM   15  C15 UNL     1      26.893   0.008  53.222  1.00  0.00     0.161 C 
HETATM   16  N1  UNL     1      27.005   1.316  52.614  1.00  0.00    -0.322 N 
HETATM   17  C16 UNL     1      27.713   2.288  53.422  1.00  0.00     0.285 A 
HETATM   18  C17 UNL     1      26.963   2.470  51.815  1.00  0.00     0.193 A 
HETATM   19  O3  UNL     1      26.313   1.523  51.216  1.00  0.00    -0.279 OA
HETATM   20  C18 UNL     1      26.576   3.264  50.599  1.00  0.00     0.136 C 
ENDROOT
BRANCH   1  21
HETATM   21  O1  UNL     1      21.708   2.485  49.670  1.00  0.00    -0.353 OA
HETATM   22  C1  UNL     1      21.649   1.215  49.023  1.00  0.00     0.210 C 
ENDBRANCH   1  21
BRANCH  17  23
HETATM   23  N2  UNL     1      28.773   2.690  52.863  1.00  0.00    -0.306 NA
HETATM   24  H22 UNL     1      29.029   3.667  52.656  1.00  0.00     0.182 HD
ENDBRANCH  17  23
TORSDOF 2
ENDMDL
MODEL 5
REMARK VINA RESULT:      -7.6      2.273      4.732
REMARK  2 active torsions:
REMARK  status: ('A' for Active; 'I' for Inactive)
REMARK    1  A    between atoms: O1_2  and  C2_3 
REMARK    2  A    between atoms: C16_19  and  N2_20 
ROOT
HETATM    1  C2  UNL     1      24.982   2.819  51.096  1.00  0.00     0.102 A 
HETATM    2  C3  UNL     1      25.917   1.868  51.352  1.00  0.00     0.047 A 
HETATM    3  C4  UNL     1      25.937   1.062  52.457  1.00  0.00    -0.047 A 
HETATM    4  C5  UNL     1      24.793   1.801  52.751  1.00  0.00     0.010 A 
HETATM    5  C6  UNL     1      23.671   2.494  53.085  1.00  0.00     0.040 A 
HETATM    6  C7  UNL     1      23.929   3.124  51.889  1.00  0.00     0.102 A 
HETATM    7  O2  UNL     1      23.021   4.131  51.516  1.00  0.00    -0.348 OA
HETATM    8  C8  UNL     1      21.874   3.677  50.709  1.00  0.00     0.176 C 
HETATM    9  C9  UNL     1      21.218   2.632  51.536  1.00  0.00     0.027 C 
HETATM   10  C10 UNL     1      19.990   1.976  50.933  1.00  0.00     0.006 C 
HETATM   11  C11 UNL     1      19.571   0.912  51.971  1.00  0.00     0.027 C 
HETATM   12  C12 UNL     1      20.601  -0.108  52.193  1.00  0.00    -0.023 C 
HETATM   13  C13 UNL     1      21.276  -0.411  53.332  1.00  0.00    -0.070 C 
HETATM   14  C14 UNL     1      21.066   0.287  54.629  1.00  0.00     0.044 C 
HETATM   15  C15 UNL     1      22.314  -1.462  53.489  1.00  0.00     0.161 C 
HETATM   16  N1  UNL     1      23.604  -0.958  53.910  1.00  0.00    -0.322 N 
HETATM   17  C16 UNL     1      23.755  -0.838  55.346  1.00  0.00     0.285 A 
HETATM   18  C17 UNL     1      24.906  -0.451  54.042  1.00  0.00     0.193 A 
HETATM   19  O3  UNL     1      24.626  -0.563  52.782  1.00  0.00    -0.279 OA
HETATM   20  C18 UNL     1      26.223   0.054  53.523  1.00  0.00     0.136 C 
ENDROOT
BRANCH   1  21
HETATM   21  O1  UNL     1      25.330   3.393  49.887  1.00  0.00    -0.353 OA
HETATM   22  C1  UNL     1      26.723   3.641  49.707  1.00  0.00     0.210 C 
ENDBRANCH   1  21
BRANCH  17  23
HETATM   23  N2  UNL     1      24.666  -1.589  55.794  1.00  0.00    -0.306 NA
HETATM   24  H22 UNL     1      25.679  -1.396  55.799  1.00  0.00     0.182 HD
ENDBRANCH  17  23
TORSDOF 2
ENDMDL
MODEL 6
REMARK VINA RESULT:      -7.6      2.416      4.790
REMARK  2 active torsions:
REMARK  status: ('A' for Active; 'I' for Inactive)
REMARK    1  A    between atoms: O1_2  and  C2_3 
REMARK    2  A    between atoms: C16_19  and  N2_20 
ROOT
HETATM    1  C2  UNL     1      21.719   0.057  52.841  1.00  0.00     0.102 A 
HETATM    2  C3  UNL     1      22.924   0.124  53.462  1.00  0.00     0.047 A 
HETATM    3  C4  UNL     1      24.055   0.681  52.929  1.00  0.00    -0.047 A 
HETATM    4  C5  UNL     1      23.184   0.901  51.863  1.00  0.00     0.010 A 
HETATM    5  C6  UNL     1      22.376   1.139  50.796  1.00  0.00     0.040 A 
HETATM    6  C7  UNL     1      21.443   0.525  51.601  1.00  0.00     0.102 A 
HETATM    7  O2  UNL     1      20.150   0.402  51.061  1.00  0.00    -0.348 OA
HETATM    8  C8  UNL     1      19.242   1.528  51.342  1.00  0.00     0.176 C 
HETATM    9  C9  UNL     1      19.942   2.724  50.808  1.00  0.00     0.027 C 
HETATM   10  C10 UNL     1      19.221   4.049  50.972  1.00  0.00     0.006 C 
HETATM   11  C11 UNL     1      20.198   5.094  50.390  1.00  0.00     0.027 C 
HETATM   12  C12 UNL     1      21.475   5.148  51.112  1.00  0.00    -0.023 C 
HETATM   13  C13 UNL     1      22.728   4.892  50.656  1.00  0.00    -0.070 C 
HETATM   14  C14 UNL     1      23.034   4.490  49.256  1.00  0.00     0.044 C 
HETATM   15  C15 UNL     1      23.985   4.965  51.443  1.00  0.00     0.161 C 
HETATM   16  N1  UNL     1      24.710   3.715  51.513  1.00  0.00    -0.322 N 
HETATM   17  C16 UNL     1      25.620   3.493  50.407  1.00  0.00     0.285 A 
HETATM   18  C17 UNL     1      25.263   2.459  51.814  1.00  0.00     0.193 A 
HETATM   19  O3  UNL     1      24.384   2.758  52.718  1.00  0.00    -0.279 OA
HETATM   20  C18 UNL     1      25.421   1.210  52.634  1.00  0.00     0.136 C 
ENDROOT
BRANCH   1  21
HETATM   21  O1  UNL     1      20.860  -0.574  53.721  1.00  0.00    -0.353 OA
HETATM   22  C1  UNL     1      21.439  -1.629  54.488  1.00  0.00     0.210 C 
ENDBRANCH   1  21
BRANCH  17  23
HETATM   23  N2  UNL     1      26.823   3.424  50.786  1.00  0.00    -0.306 NA
HETATM   24  H22 UNL     1      27.403   4.197  51.145  1.00  0.00     0.182 HD
ENDBRANCH  17  23
TORSDOF 2
ENDMDL
MODEL 7
REMARK VINA RESULT:      -7.4      2.867      5.935
REMARK  2 active torsions:
REMARK  status: ('A' for Active; 'I' for Inactive)
REMARK    1  A    between atoms: O1_2  and  C2_3 
REMARK    2  A    between atoms: C16_19  and  N2_20 
ROOT
HETATM    1  C2  UNL     1      19.554  -0.330  52.888  1.00  0.00     0.102 A 
HETATM    2  C3  UNL     1      20.469  -0.762  53.794  1.00  0.00     0.047 A 
HETATM    3  C4  UNL     1      21.826  -0.717  53.625  1.00  0.00    -0.047 A 
HETATM    4  C5  UNL     1      21.439  -0.160  52.407  1.00  0.00     0.010 A 
HETATM    5  C6  UNL     1      21.116   0.387  51.206  1.00  0.00     0.040 A 
HETATM    6  C7  UNL     1      19.835   0.210  51.679  1.00  0.00     0.102 A 
HETATM    7  O2  UNL     1      18.800   0.627  50.824  1.00  0.00    -0.348 OA
HETATM    8  C8  UNL     1      18.369   2.026  50.994  1.00  0.00     0.176 C 
HETATM    9  C9  UNL     1      19.601   2.831  50.788  1.00  0.00     0.027 C 
HETATM   10  C10 UNL     1      19.445   4.334  50.915  1.00  0.00     0.006 C 
HETATM   11  C11 UNL     1      20.874   4.888  50.716  1.00  0.00     0.027 C 
HETATM   12  C12 UNL     1      21.818   4.415  51.734  1.00  0.00    -0.023 C 
HETATM   13  C13 UNL     1      22.941   3.668  51.579  1.00  0.00    -0.070 C 
HETATM   14  C14 UNL     1      23.434   3.176  50.263  1.00  0.00     0.044 C 
HETATM   15  C15 UNL     1      23.858   3.219  52.658  1.00  0.00     0.161 C 
HETATM   16  N1  UNL     1      23.983   1.781  52.765  1.00  0.00    -0.322 N 
HETATM   17  C16 UNL     1      24.996   1.207  51.903  1.00  0.00     0.285 A 
HETATM   18  C17 UNL     1      23.891   0.410  53.052  1.00  0.00     0.193 A 
HETATM   19  O3  UNL     1      22.990   1.042  53.736  1.00  0.00    -0.279 OA
HETATM   20  C18 UNL     1      23.314  -0.795  53.740  1.00  0.00     0.136 C 
ENDROOT
BRANCH   1  21
HETATM   21  O1  UNL     1      18.311  -0.554  53.450  1.00  0.00    -0.353 OA
HETATM   22  C1  UNL     1      17.884  -1.915  53.464  1.00  0.00     0.210 C 
ENDBRANCH   1  21
BRANCH  17  23
HETATM   23  N2  UNL     1      25.921   0.651  52.560  1.00  0.00    -0.306 NA
HETATM   24  H22 UNL     1      26.183   0.841  53.539  1.00  0.00     0.182 HD
ENDBRANCH  17  23
TORSDOF 2
ENDMDL
MODEL 8
REMARK VINA RESULT:      -7.1      8.611     11.461
REMARK  2 active torsions:
REMARK  status: ('A' for Active; 'I' for Inactive)
REMARK    1  A    between atoms: O1_2  and  C2_3 
REMARK    2  A    between atoms: C16_19  and  N2_20 
ROOT
HETATM    1  C2  UNL     1      32.500   5.131  47.845  1.00  0.00     0.102 A 
HETATM    2  C3  UNL     1      31.243   4.709  47.555  1.00  0.00     0.047 A 
HETATM    3  C4  UNL     1      30.092   5.313  47.981  1.00  0.00    -0.047 A 
HETATM    4  C5  UNL     1      31.017   6.167  48.579  1.00  0.00     0.010 A 
HETATM    5  C6  UNL     1      31.876   7.029  49.184  1.00  0.00     0.040 A 
HETATM    6  C7  UNL     1      32.816   6.209  48.600  1.00  0.00     0.102 A 
HETATM    7  O2  UNL     1      34.160   6.553  48.829  1.00  0.00    -0.348 OA
HETATM    8  C8  UNL     1      34.753   7.470  47.839  1.00  0.00     0.176 C 
HETATM    9  C9  UNL     1      33.875   8.668  47.858  1.00  0.00     0.027 C 
HETATM   10  C10 UNL     1      34.256   9.790  46.910  1.00  0.00     0.006 C 
HETATM   11  C11 UNL     1      33.150  10.851  47.104  1.00  0.00     0.027 C 
HETATM   12  C12 UNL     1      31.814  10.356  46.752  1.00  0.00    -0.023 C 
HETATM   13  C13 UNL     1      30.716  10.220  47.539  1.00  0.00    -0.070 C 
HETATM   14  C14 UNL     1      30.683  10.575  48.983  1.00  0.00     0.044 C 
HETATM   15  C15 UNL     1      29.387   9.708  47.117  1.00  0.00     0.161 C 
HETATM   16  N1  UNL     1      28.956   8.526  47.832  1.00  0.00    -0.322 N 
HETATM   17  C16 UNL     1      28.263   8.803  49.074  1.00  0.00     0.285 A 
HETATM   18  C17 UNL     1      28.665   7.241  48.316  1.00  0.00     0.193 A 
HETATM   19  O3  UNL     1      29.336   7.131  47.213  1.00  0.00    -0.279 OA
HETATM   20  C18 UNL     1      28.689   5.739  48.273  1.00  0.00     0.136 C 
ENDROOT
BRANCH   1  21
HETATM   21  O1  UNL     1      33.362   4.248  47.223  1.00  0.00    -0.353 OA
HETATM   22  C1  UNL     1      33.158   2.871  47.537  1.00  0.00     0.210 C 
ENDBRANCH   1  21
BRANCH  17  23
HETATM   23  N2  UNL     1      27.068   8.392  49.054  1.00  0.00    -0.306 NA
HETATM   24  H22 UNL     1      26.222   8.962  48.904  1.00  0.00     0.182 HD
ENDBRANCH  17  23
TORSDOF 2
ENDMDL
MODEL 9
REMARK VINA RESULT:      -7.0      2.292      4.800
REMARK  2 active torsions:
REMARK  status: ('A' for Active; 'I' for Inactive)
REMARK    1  A    between atoms: O1_2  and  C2_3 
REMARK    2  A    between atoms: C16_19  and  N2_20 
ROOT
HETATM    1  C2  UNL     1      25.624   2.496  51.887  1.00  0.00     0.102 A 
HETATM    2  C3  UNL     1      25.816   1.249  52.390  1.00  0.00     0.047 A 
HETATM    3  C4  UNL     1      24.929   0.576  53.186  1.00  0.00    -0.047 A 
HETATM    4  C5  UNL     1      24.205   1.753  53.004  1.00  0.00     0.010 A 
HETATM    5  C6  UNL     1      23.459   2.880  52.860  1.00  0.00     0.040 A 
HETATM    6  C7  UNL     1      24.533   3.270  52.093  1.00  0.00     0.102 A 
HETATM    7  O2  UNL     1      24.445   4.549  51.514  1.00  0.00    -0.348 OA
HETATM    8  C8  UNL     1      23.830   4.592  50.176  1.00  0.00     0.176 C 
HETATM    9  C9  UNL     1      22.487   3.982  50.354  1.00  0.00     0.027 C 
HETATM   10  C10 UNL     1      21.625   3.891  49.109  1.00  0.00     0.006 C 
HETATM   11  C11 UNL     1      20.341   3.173  49.581  1.00  0.00     0.027 C 
HETATM   12  C12 UNL     1      20.596   1.821  50.090  1.00  0.00    -0.023 C 
HETATM   13  C13 UNL     1      20.382   1.319  51.333  1.00  0.00    -0.070 C 
HETATM   14  C14 UNL     1      19.814   2.109  52.459  1.00  0.00     0.044 C 
HETATM   15  C15 UNL     1      20.665  -0.068  51.786  1.00  0.00     0.161 C 
HETATM   16  N1  UNL     1      21.611  -0.150  52.877  1.00  0.00    -0.322 N 
HETATM   17  C16 UNL     1      21.013  -0.029  54.192  1.00  0.00     0.285 A 
HETATM   18  C17 UNL     1      22.720  -0.252  53.732  1.00  0.00     0.193 A 
HETATM   19  O3  UNL     1      23.131  -0.300  52.504  1.00  0.00    -0.279 OA
HETATM   20  C18 UNL     1      24.184  -0.396  54.041  1.00  0.00     0.136 C 
ENDROOT
BRANCH   1  21
HETATM   21  O1  UNL     1      26.750   2.794  51.143  1.00  0.00    -0.353 OA
HETATM   22  C1  UNL     1      26.619   2.606  49.735  1.00  0.00     0.210 C 
ENDBRANCH   1  21
BRANCH  17  23
HETATM   23  N2  UNL     1      21.165  -1.075  54.883  1.00  0.00    -0.306 NA
HETATM   24  H22 UNL     1      20.455  -1.797  55.075  1.00  0.00     0.182 HD
ENDBRANCH  17  23
TORSDOF 2
ENDMDL
