MODEL 1
REMARK VINA RESULT:      -8.4      0.000      0.000
REMARK  5 active torsions:
REMARK  status: ('A' for Active; 'I' for Inactive)
REMARK    1  A    between atoms: C1_2  and  O2_3 
REMARK    2  A    between atoms: C1_2  and  C2_4 
REMARK    3  A    between atoms: C2_4  and  C3_5 
REMARK    4  A    between atoms: C12_17  and  C13_18 
REMARK    5  A    between atoms: C13_18  and  O5_20 
ROOT
HETATM    1  C3  UNL     1      26.465   1.409  52.095  1.00  0.00    -0.024 A 
HETATM    2  C4  UNL     1      26.793   2.321  51.213  1.00  0.00     0.091 A 
HETATM    3  N1  UNL     1      25.610   2.926  50.726  1.00  0.00    -0.394 N 
HETATM    4  C5  UNL     1      24.484   2.283  51.393  1.00  0.00     0.159 A 
HETATM    5  C6  UNL     1      25.047   1.272  52.320  1.00  0.00    -0.016 A 
HETATM    6  C7  UNL     1      24.361   0.500  53.105  1.00  0.00     0.053 A 
HETATM    7  C8  UNL     1      24.737  -0.527  54.064  1.00  0.00     0.257 A 
HETATM    8  O3  UNL     1      25.869  -0.943  54.393  1.00  0.00    -0.267 OA
HETATM    9  N2  UNL     1      23.621  -1.126  54.705  1.00  0.00    -0.322 N 
HETATM   10  C9  UNL     1      22.481  -0.458  54.135  1.00  0.00     0.046 A 
HETATM   11  C10 UNL     1      21.158  -0.722  54.466  1.00  0.00     0.031 A 
HETATM   12  C11 UNL     1      20.193   0.011  53.822  1.00  0.00     0.020 A 
HETATM   13  C12 UNL     1      20.522   0.968  52.887  1.00  0.00     0.038 A 
HETATM   14  C14 UNL     1      21.846   1.141  52.642  1.00  0.00     0.033 A 
HETATM   15  C15 UNL     1      22.909   0.467  53.224  1.00  0.00     0.008 A 
HETATM   16  H5  UNL     1      25.395   3.680  50.041  1.00  0.00     0.159 HD
HETATM   17  H8  UNL     1      23.610  -1.884  55.430  1.00  0.00     0.169 HD
ENDROOT
BRANCH   1  18
HETATM   18  C2  UNL     1      27.566   0.660  52.726  1.00  0.00     0.150 C 
BRANCH  18  19
HETATM   19  C1  UNL     1      28.107   1.441  53.913  1.00  0.00     0.143 C 
HETATM   20  O1  UNL     1      28.722   1.028  54.932  1.00  0.00    -0.650 OA
BRANCH  19  21
HETATM   21  O2  UNL     1      28.025   2.833  54.123  1.00  0.00    -0.776 OA
HETATM   22  H1  UNL     1      28.137   3.501  53.375  1.00  0.00     0.167 HD
ENDBRANCH  19  21
ENDBRANCH  18  19
ENDBRANCH   1  18
BRANCH  13  23
HETATM   23  C13 UNL     1      19.459   1.714  52.237  1.00  0.00     0.176 C 
HETATM   24  O4  UNL     1      18.599   1.064  51.588  1.00  0.00    -0.646 OA
BRANCH  23  25
HETATM   25  O5  UNL     1      19.400   3.094  52.330  1.00  0.00    -0.773 OA
HETATM   26  H11 UNL     1      19.184   3.634  51.486  1.00  0.00     0.167 HD
ENDBRANCH  23  25
ENDBRANCH  13  23
TORSDOF 5
ENDMDL
MODEL 2
REMARK VINA RESULT:      -8.3      2.931      5.702
REMARK  5 active torsions:
REMARK  status: ('A' for Active; 'I' for Inactive)
REMARK    1  A    between atoms: C1_2  and  O2_3 
REMARK    2  A    between atoms: C1_2  and  C2_4 
REMARK    3  A    between atoms: C2_4  and  C3_5 
REMARK    4  A    between atoms: C12_17  and  C13_18 
REMARK    5  A    between atoms: C13_18  and  O5_20 
ROOT
HETATM    1  C3  UNL     1      25.012   4.761  50.039  1.00  0.00    -0.024 A 
HETATM    2  C4  UNL     1      26.050   5.196  49.366  1.00  0.00     0.091 A 
HETATM    3  N1  UNL     1      27.109   4.272  49.521  1.00  0.00    -0.394 N 
HETATM    4  C5  UNL     1      26.631   3.198  50.385  1.00  0.00     0.159 A 
HETATM    5  C6  UNL     1      25.224   3.512  50.729  1.00  0.00    -0.016 A 
HETATM    6  C7  UNL     1      24.446   2.787  51.472  1.00  0.00     0.053 A 
HETATM    7  C8  UNL     1      23.065   2.934  51.904  1.00  0.00     0.257 A 
HETATM    8  O3  UNL     1      22.238   3.839  51.656  1.00  0.00    -0.267 OA
HETATM    9  N2  UNL     1      22.624   1.870  52.734  1.00  0.00    -0.322 N 
HETATM   10  C9  UNL     1      23.768   1.002  52.839  1.00  0.00     0.046 A 
HETATM   11  C10 UNL     1      23.802  -0.182  53.564  1.00  0.00     0.031 A 
HETATM   12  C11 UNL     1      24.980  -0.887  53.557  1.00  0.00     0.020 A 
HETATM   13  C12 UNL     1      26.081  -0.438  52.859  1.00  0.00     0.038 A 
HETATM   14  C14 UNL     1      25.933   0.731  52.187  1.00  0.00     0.033 A 
HETATM   15  C15 UNL     1      24.802   1.530  52.118  1.00  0.00     0.008 A 
HETATM   16  H5  UNL     1      28.088   4.205  49.170  1.00  0.00     0.159 HD
HETATM   17  H8  UNL     1      21.684   1.730  53.177  1.00  0.00     0.169 HD
ENDROOT
BRANCH   1  18
HETATM   18  C2  UNL     1      23.795   5.591  50.003  1.00  0.00     0.150 C 
BRANCH  18  19
HETATM   19  C1  UNL     1      23.932   6.748  50.980  1.00  0.00     0.143 C 
HETATM   20  O1  UNL     1      23.675   7.971  50.815  1.00  0.00    -0.650 OA
BRANCH  19  21
HETATM   21  O2  UNL     1      24.390   6.687  52.311  1.00  0.00    -0.776 OA
HETATM   22  H1  UNL     1      24.400   5.828  52.842  1.00  0.00     0.167 HD
ENDBRANCH  19  21
ENDBRANCH  18  19
ENDBRANCH   1  18
BRANCH  13  23
HETATM   23  C13 UNL     1      27.301  -1.226  52.887  1.00  0.00     0.176 C 
HETATM   24  O4  UNL     1      28.394  -0.609  52.980  1.00  0.00    -0.646 OA
BRANCH  23  25
HETATM   25  O5  UNL     1      27.257  -2.607  52.812  1.00  0.00    -0.773 OA
HETATM   26  H11 UNL     1      26.698  -3.041  52.069  1.00  0.00     0.167 HD
ENDBRANCH  23  25
ENDBRANCH  13  23
TORSDOF 5
ENDMDL
MODEL 3
REMARK VINA RESULT:      -8.2      2.379      3.947
REMARK  5 active torsions:
REMARK  status: ('A' for Active; 'I' for Inactive)
REMARK    1  A    between atoms: C1_2  and  O2_3 
REMARK    2  A    between atoms: C1_2  and  C2_4 
REMARK    3  A    between atoms: C2_4  and  C3_5 
REMARK    4  A    between atoms: C12_17  and  C13_18 
REMARK    5  A    between atoms: C13_18  and  O5_20 
ROOT
HETATM    1  C3  UNL     1      24.601  -0.498  54.387  1.00  0.00    -0.024 A 
HETATM    2  C4  UNL     1      24.808  -1.175  55.490  1.00  0.00     0.091 A 
HETATM    3  N1  UNL     1      23.574  -1.711  55.929  1.00  0.00    -0.394 N 
HETATM    4  C5  UNL     1      22.550  -1.286  54.982  1.00  0.00     0.159 A 
HETATM    5  C6  UNL     1      23.230  -0.480  53.940  1.00  0.00    -0.016 A 
HETATM    6  C7  UNL     1      22.658   0.066  52.912  1.00  0.00     0.053 A 
HETATM    7  C8  UNL     1      23.157   0.871  51.808  1.00  0.00     0.257 A 
HETATM    8  O3  UNL     1      24.320   1.256  51.557  1.00  0.00    -0.267 OA
HETATM    9  N2  UNL     1      22.140   1.261  50.898  1.00  0.00    -0.322 N 
HETATM   10  C9  UNL     1      20.938   0.684  51.437  1.00  0.00     0.046 A 
HETATM   11  C10 UNL     1      19.675   0.806  50.872  1.00  0.00     0.031 A 
HETATM   12  C11 UNL     1      18.635   0.190  51.523  1.00  0.00     0.020 A 
HETATM   13  C12 UNL     1      18.836  -0.520  52.687  1.00  0.00     0.038 A 
HETATM   14  C14 UNL     1      20.111  -0.573  53.148  1.00  0.00     0.033 A 
HETATM   15  C15 UNL     1      21.239   0.004  52.585  1.00  0.00     0.008 A 
HETATM   16  H5  UNL     1      23.271  -2.304  56.729  1.00  0.00     0.159 HD
HETATM   17  H8  UNL     1      22.227   1.838  50.025  1.00  0.00     0.169 HD
ENDROOT
BRANCH   1  18
HETATM   18  C2  UNL     1      25.774   0.143  53.765  1.00  0.00     0.150 C 
BRANCH  18  19
HETATM   19  C1  UNL     1      26.745  -0.921  53.279  1.00  0.00     0.143 C 
HETATM   20  O1  UNL     1      26.571  -1.840  52.436  1.00  0.00    -0.650 OA
BRANCH  19  21
HETATM   21  O2  UNL     1      28.082  -1.102  53.688  1.00  0.00    -0.776 OA
HETATM   22  H1  UNL     1      28.336  -1.702  54.460  1.00  0.00     0.167 HD
ENDBRANCH  19  21
ENDBRANCH  18  19
ENDBRANCH   1  18
BRANCH  13  23
HETATM   23  C13 UNL     1      17.699  -1.151  53.332  1.00  0.00     0.176 C 
HETATM   24  O4  UNL     1      16.564  -0.636  53.156  1.00  0.00    -0.646 OA
BRANCH  23  25
HETATM   25  O5  UNL     1      17.863  -2.282  54.114  1.00  0.00    -0.773 OA
HETATM   26  H11 UNL     1      17.115  -2.984  54.125  1.00  0.00     0.167 HD
ENDBRANCH  23  25
ENDBRANCH  13  23
TORSDOF 5
ENDMDL
MODEL 4
REMARK VINA RESULT:      -8.1      1.910      2.788
REMARK  5 active torsions:
REMARK  status: ('A' for Active; 'I' for Inactive)
REMARK    1  A    between atoms: C1_2  and  O2_3 
REMARK    2  A    between atoms: C1_2  and  C2_4 
REMARK    3  A    between atoms: C2_4  and  C3_5 
REMARK    4  A    between atoms: C12_17  and  C13_18 
REMARK    5  A    between atoms: C13_18  and  O5_20 
ROOT
HETATM    1  C3  UNL     1      24.434   0.233  53.275  1.00  0.00    -0.024 A 
HETATM    2  C4  UNL     1      25.250   0.941  52.533  1.00  0.00     0.091 A 
HETATM    3  N1  UNL     1      24.512   1.520  51.474  1.00  0.00    -0.394 N 
HETATM    4  C5  UNL     1      23.127   1.088  51.619  1.00  0.00     0.159 A 
HETATM    5  C6  UNL     1      23.062   0.233  52.828  1.00  0.00    -0.016 A 
HETATM    6  C7  UNL     1      21.994  -0.333  53.300  1.00  0.00     0.053 A 
HETATM    7  C8  UNL     1      21.748  -1.185  54.452  1.00  0.00     0.257 A 
HETATM    8  O3  UNL     1      22.540  -1.606  55.324  1.00  0.00    -0.267 OA
HETATM    9  N2  UNL     1      20.390  -1.580  54.573  1.00  0.00    -0.322 N 
HETATM   10  C9  UNL     1      19.736  -0.958  53.453  1.00  0.00     0.046 A 
HETATM   11  C10 UNL     1      18.383  -1.069  53.161  1.00  0.00     0.031 A 
HETATM   12  C11 UNL     1      17.925  -0.407  52.049  1.00  0.00     0.020 A 
HETATM   13  C12 UNL     1      18.773   0.335  51.256  1.00  0.00     0.038 A 
HETATM   14  C14 UNL     1      20.075   0.373  51.636  1.00  0.00     0.033 A 
HETATM   15  C15 UNL     1      20.655  -0.248  52.731  1.00  0.00     0.008 A 
HETATM   16  H5  UNL     1      24.738   2.145  50.673  1.00  0.00     0.159 HD
HETATM   17  H8  UNL     1      19.946  -2.187  55.305  1.00  0.00     0.169 HD
ENDROOT
BRANCH   1  18
HETATM   18  C2  UNL     1      25.015  -0.456  54.441  1.00  0.00     0.150 C 
BRANCH  18  19
HETATM   19  C1  UNL     1      26.447   0.009  54.652  1.00  0.00     0.143 C 
HETATM   20  O1  UNL     1      26.876   1.067  55.185  1.00  0.00    -0.650 OA
BRANCH  19  21
HETATM   21  O2  UNL     1      27.625  -0.670  54.280  1.00  0.00    -0.776 OA
HETATM   22  H1  UNL     1      28.107  -1.301  54.905  1.00  0.00     0.167 HD
ENDBRANCH  19  21
ENDBRANCH  18  19
ENDBRANCH   1  18
BRANCH  13  23
HETATM   23  C13 UNL     1      18.234   1.014  50.091  1.00  0.00     0.176 C 
HETATM   24  O4  UNL     1      18.622   2.190  49.866  1.00  0.00    -0.646 OA
BRANCH  23  25
HETATM   25  O5  UNL     1      17.323   0.385  49.260  1.00  0.00    -0.773 OA
HETATM   26  H11 UNL     1      16.824  -0.438  49.613  1.00  0.00     0.167 HD
ENDBRANCH  23  25
ENDBRANCH  13  23
TORSDOF 5
ENDMDL
MODEL 5
REMARK VINA RESULT:      -7.9      1.442      6.863
REMARK  5 active torsions:
REMARK  status: ('A' for Active; 'I' for Inactive)
REMARK    1  A    between atoms: C1_2  and  O2_3 
REMARK    2  A    between atoms: C1_2  and  C2_4 
REMARK    3  A    between atoms: C2_4  and  C3_5 
REMARK    4  A    between atoms: C12_17  and  C13_18 
REMARK    5  A    between atoms: C13_18  and  O5_20 
ROOT
HETATM    1  C3  UNL     1      20.347   0.207  52.527  1.00  0.00    -0.024 A 
HETATM    2  C4  UNL     1      19.737  -0.508  53.440  1.00  0.00     0.091 A 
HETATM    3  N1  UNL     1      20.684  -0.900  54.415  1.00  0.00    -0.394 N 
HETATM    4  C5  UNL     1      21.977  -0.361  54.011  1.00  0.00     0.159 A 
HETATM    5  C6  UNL     1      21.759   0.392  52.752  1.00  0.00    -0.016 A 
HETATM    6  C7  UNL     1      22.670   1.031  52.084  1.00  0.00     0.053 A 
HETATM    7  C8  UNL     1      22.639   1.810  50.858  1.00  0.00     0.257 A 
HETATM    8  O3  UNL     1      21.681   2.077  50.099  1.00  0.00    -0.267 OA
HETATM    9  N2  UNL     1      23.909   2.331  50.496  1.00  0.00    -0.322 N 
HETATM   10  C9  UNL     1      24.793   1.868  51.532  1.00  0.00     0.046 A 
HETATM   11  C10 UNL     1      26.155   2.137  51.594  1.00  0.00     0.031 A 
HETATM   12  C11 UNL     1      26.849   1.614  52.656  1.00  0.00     0.020 A 
HETATM   13  C12 UNL     1      26.222   0.854  53.619  1.00  0.00     0.038 A 
HETATM   14  C14 UNL     1      24.889   0.655  53.458  1.00  0.00     0.033 A 
HETATM   15  C15 UNL     1      24.082   1.128  52.435  1.00  0.00     0.008 A 
HETATM   16  H5  UNL     1      20.649  -1.453  55.297  1.00  0.00     0.159 HD
HETATM   17  H8  UNL     1      24.164   2.921  49.666  1.00  0.00     0.169 HD
ENDROOT
BRANCH   1  18
HETATM   18  C2  UNL     1      19.525   0.716  51.414  1.00  0.00     0.150 C 
BRANCH  18  19
HETATM   19  C1  UNL     1      18.940   2.070  51.784  1.00  0.00     0.143 C 
HETATM   20  O1  UNL     1      17.754   2.484  51.689  1.00  0.00    -0.650 OA
BRANCH  19  21
HETATM   21  O2  UNL     1      19.629   3.175  52.324  1.00  0.00    -0.776 OA
HETATM   22  H1  UNL     1      20.561   3.428  52.031  1.00  0.00     0.167 HD
ENDBRANCH  19  21
ENDBRANCH  18  19
ENDBRANCH   1  18
BRANCH  13  23
HETATM   23  C13 UNL     1      27.007   0.326  54.721  1.00  0.00     0.176 C 
HETATM   24  O4  UNL     1      26.501  -0.597  55.411  1.00  0.00    -0.646 OA
BRANCH  23  25
HETATM   25  O5  UNL     1      28.268   0.825  54.999  1.00  0.00    -0.773 OA
HETATM   26  H11 UNL     1      28.552   0.923  55.979  1.00  0.00     0.167 HD
ENDBRANCH  23  25
ENDBRANCH  13  23
TORSDOF 5
ENDMDL
MODEL 6
REMARK VINA RESULT:      -7.8      2.853      4.153
REMARK  5 active torsions:
REMARK  status: ('A' for Active; 'I' for Inactive)
REMARK    1  A    between atoms: C1_2  and  O2_3 
REMARK    2  A    between atoms: C1_2  and  C2_4 
REMARK    3  A    between atoms: C2_4  and  C3_5 
REMARK    4  A    between atoms: C12_17  and  C13_18 
REMARK    5  A    between atoms: C13_18  and  O5_20 
ROOT
HETATM    1  C3  UNL     1      24.536   3.663  49.618  1.00  0.00    -0.024 A 
HETATM    2  C4  UNL     1      23.561   4.136  48.881  1.00  0.00     0.091 A 
HETATM    3  N1  UNL     1      22.349   3.534  49.293  1.00  0.00    -0.394 N 
HETATM    4  C5  UNL     1      22.665   2.609  50.375  1.00  0.00     0.159 A 
HETATM    5  C6  UNL     1      24.127   2.695  50.607  1.00  0.00    -0.016 A 
HETATM    6  C7  UNL     1      24.793   2.030  51.500  1.00  0.00     0.053 A 
HETATM    7  C8  UNL     1      26.200   1.991  51.865  1.00  0.00     0.257 A 
HETATM    8  O3  UNL     1      27.171   2.620  51.389  1.00  0.00    -0.267 OA
HETATM    9  N2  UNL     1      26.476   1.090  52.927  1.00  0.00    -0.322 N 
HETATM   10  C9  UNL     1      25.194   0.527  53.259  1.00  0.00     0.046 A 
HETATM   11  C10 UNL     1      24.975  -0.417  54.253  1.00  0.00     0.031 A 
HETATM   12  C11 UNL     1      23.684  -0.848  54.435  1.00  0.00     0.020 A 
HETATM   13  C12 UNL     1      22.651  -0.364  53.663  1.00  0.00     0.038 A 
HETATM   14  C14 UNL     1      22.981   0.555  52.721  1.00  0.00     0.033 A 
HETATM   15  C15 UNL     1      24.239   1.066  52.443  1.00  0.00     0.008 A 
HETATM   16  H5  UNL     1      21.352   3.612  49.005  1.00  0.00     0.159 HD
HETATM   17  H8  UNL     1      27.397   0.872  53.379  1.00  0.00     0.169 HD
ENDROOT
BRANCH   1  18
HETATM   18  C2  UNL     1      25.892   4.171  49.343  1.00  0.00     0.150 C 
BRANCH  18  19
HETATM   19  C1  UNL     1      25.993   5.626  49.774  1.00  0.00     0.143 C 
HETATM   20  O1  UNL     1      25.219   6.303  50.500  1.00  0.00    -0.650 OA
BRANCH  19  21
HETATM   21  O2  UNL     1      27.008   6.544  49.434  1.00  0.00    -0.776 OA
HETATM   22  H1  UNL     1      27.145   7.409  49.935  1.00  0.00     0.167 HD
ENDBRANCH  19  21
ENDBRANCH  18  19
ENDBRANCH   1  18
BRANCH  13  23
HETATM   23  C13 UNL     1      21.305  -0.856  53.900  1.00  0.00     0.176 C 
HETATM   24  O4  UNL     1      20.397  -0.480  53.113  1.00  0.00    -0.646 OA
BRANCH  23  25
HETATM   25  O5  UNL     1      21.035  -1.708  54.957  1.00  0.00    -0.773 OA
HETATM   26  H11 UNL     1      21.095  -1.340  55.912  1.00  0.00     0.167 HD
ENDBRANCH  23  25
ENDBRANCH  13  23
TORSDOF 5
ENDMDL
MODEL 7
REMARK VINA RESULT:      -7.8      1.869      6.146
REMARK  5 active torsions:
REMARK  status: ('A' for Active; 'I' for Inactive)
REMARK    1  A    between atoms: C1_2  and  O2_3 
REMARK    2  A    between atoms: C1_2  and  C2_4 
REMARK    3  A    between atoms: C2_4  and  C3_5 
REMARK    4  A    between atoms: C12_17  and  C13_18 
REMARK    5  A    between atoms: C13_18  and  O5_20 
ROOT
HETATM    1  C3  UNL     1      22.596   2.364  50.324  1.00  0.00    -0.024 A 
HETATM    2  C4  UNL     1      22.749   3.361  49.487  1.00  0.00     0.091 A 
HETATM    3  N1  UNL     1      24.029   3.929  49.689  1.00  0.00    -0.394 N 
HETATM    4  C5  UNL     1      24.673   3.185  50.765  1.00  0.00     0.159 A 
HETATM    5  C6  UNL     1      23.725   2.128  51.190  1.00  0.00    -0.016 A 
HETATM    6  C7  UNL     1      23.939   1.248  52.119  1.00  0.00     0.053 A 
HETATM    7  C8  UNL     1      23.142   0.157  52.657  1.00  0.00     0.257 A 
HETATM    8  O3  UNL     1      21.994  -0.229  52.344  1.00  0.00    -0.267 OA
HETATM    9  N2  UNL     1      23.799  -0.555  53.695  1.00  0.00    -0.322 N 
HETATM   10  C9  UNL     1      25.071   0.104  53.830  1.00  0.00     0.046 A 
HETATM   11  C10 UNL     1      26.059  -0.255  54.737  1.00  0.00     0.031 A 
HETATM   12  C11 UNL     1      27.215   0.486  54.731  1.00  0.00     0.020 A 
HETATM   13  C12 UNL     1      27.386   1.541  53.861  1.00  0.00     0.038 A 
HETATM   14  C14 UNL     1      26.355   1.802  53.019  1.00  0.00     0.033 A 
HETATM   15  C15 UNL     1      25.145   1.130  52.930  1.00  0.00     0.008 A 
HETATM   16  H5  UNL     1      24.565   4.710  49.258  1.00  0.00     0.159 HD
HETATM   17  H8  UNL     1      23.452  -1.377  54.247  1.00  0.00     0.169 HD
ENDROOT
BRANCH   1  18
HETATM   18  C2  UNL     1      21.317   1.634  50.271  1.00  0.00     0.150 C 
BRANCH  18  19
HETATM   19  C1  UNL     1      20.288   2.335  51.143  1.00  0.00     0.143 C 
HETATM   20  O1  UNL     1      19.472   3.248  50.845  1.00  0.00    -0.650 OA
BRANCH  19  21
HETATM   21  O2  UNL     1      20.029   2.100  52.509  1.00  0.00    -0.776 OA
HETATM   22  H1  UNL     1      19.234   1.564  52.825  1.00  0.00     0.167 HD
ENDBRANCH  19  21
ENDBRANCH  18  19
ENDBRANCH   1  18
BRANCH  13  23
HETATM   23  C13 UNL     1      28.630   2.289  53.898  1.00  0.00     0.176 C 
HETATM   24  O4  UNL     1      29.363   2.158  54.913  1.00  0.00    -0.646 OA
BRANCH  23  25
HETATM   25  O5  UNL     1      28.992   3.119  52.851  1.00  0.00    -0.773 OA
HETATM   26  H11 UNL     1      29.426   2.701  52.021  1.00  0.00     0.167 HD
ENDBRANCH  23  25
ENDBRANCH  13  23
TORSDOF 5
ENDMDL
MODEL 8
REMARK VINA RESULT:      -7.7      3.041      5.955
REMARK  5 active torsions:
REMARK  status: ('A' for Active; 'I' for Inactive)
REMARK    1  A    between atoms: C1_2  and  O2_3 
REMARK    2  A    between atoms: C1_2  and  C2_4 
REMARK    3  A    between atoms: C2_4  and  C3_5 
REMARK    4  A    between atoms: C12_17  and  C13_18 
REMARK    5  A    between atoms: C13_18  and  O5_20 
ROOT
HETATM    1  C3  UNL     1      23.804  -0.218  53.090  1.00  0.00    -0.024 A 
HETATM    2  C4  UNL     1      24.789  -0.479  53.915  1.00  0.00     0.091 A 
HETATM    3  N1  UNL     1      25.825   0.458  53.693  1.00  0.00    -0.394 N 
HETATM    4  C5  UNL     1      25.392   1.343  52.618  1.00  0.00     0.159 A 
HETATM    5  C6  UNL     1      24.035   0.905  52.214  1.00  0.00    -0.016 A 
HETATM    6  C7  UNL     1      23.305   1.453  51.292  1.00  0.00     0.053 A 
HETATM    7  C8  UNL     1      21.977   1.165  50.775  1.00  0.00     0.257 A 
HETATM    8  O3  UNL     1      21.162   0.274  51.105  1.00  0.00    -0.267 OA
HETATM    9  N2  UNL     1      21.578   2.049  49.738  1.00  0.00    -0.322 N 
HETATM   10  C9  UNL     1      22.695   2.942  49.582  1.00  0.00     0.046 A 
HETATM   11  C10 UNL     1      22.756   3.985  48.668  1.00  0.00     0.031 A 
HETATM   12  C11 UNL     1      23.902   4.740  48.653  1.00  0.00     0.020 A 
HETATM   13  C12 UNL     1      24.948   4.473  49.510  1.00  0.00     0.038 A 
HETATM   14  C14 UNL     1      24.780   3.430  50.361  1.00  0.00     0.033 A 
HETATM   15  C15 UNL     1      23.676   2.598  50.470  1.00  0.00     0.008 A 
HETATM   16  H5  UNL     1      26.764   0.633  54.109  1.00  0.00     0.159 HD
HETATM   17  H8  UNL     1      20.679   2.063  49.198  1.00  0.00     0.169 HD
ENDROOT
BRANCH   1  18
HETATM   18  C2  UNL     1      22.618  -1.090  53.165  1.00  0.00     0.150 C 
BRANCH  18  19
HETATM   19  C1  UNL     1      22.013  -1.017  54.558  1.00  0.00     0.143 C 
HETATM   20  O1  UNL     1      22.248  -1.725  55.573  1.00  0.00    -0.650 OA
BRANCH  19  21
HETATM   21  O2  UNL     1      21.033  -0.111  55.013  1.00  0.00    -0.776 OA
HETATM   22  H1  UNL     1      21.138   0.418  55.866  1.00  0.00     0.167 HD
ENDBRANCH  19  21
ENDBRANCH  18  19
ENDBRANCH   1  18
BRANCH  13  23
HETATM   23  C13 UNL     1      26.137   5.305  49.451  1.00  0.00     0.176 C 
HETATM   24  O4  UNL     1      27.063   4.950  48.676  1.00  0.00    -0.646 OA
BRANCH  23  25
HETATM   25  O5  UNL     1      26.243   6.449  50.224  1.00  0.00    -0.773 OA
HETATM   26  H11 UNL     1      27.172   6.857  50.371  1.00  0.00     0.167 HD
ENDBRANCH  23  25
ENDBRANCH  13  23
TORSDOF 5
ENDMDL
MODEL 9
REMARK VINA RESULT:      -7.7      3.360      5.453
REMARK  5 active torsions:
REMARK  status: ('A' for Active; 'I' for Inactive)
REMARK    1  A    between atoms: C1_2  and  O2_3 
REMARK    2  A    between atoms: C1_2  and  C2_4 
REMARK    3  A    between atoms: C2_4  and  C3_5 
REMARK    4  A    between atoms: C12_17  and  C13_18 
REMARK    5  A    between atoms: C13_18  and  O5_20 
ROOT
HETATM    1  C3  UNL     1      23.676  -0.118  53.126  1.00  0.00    -0.024 A 
HETATM    2  C4  UNL     1      24.909  -0.457  53.417  1.00  0.00     0.091 A 
HETATM    3  N1  UNL     1      25.748   0.662  53.202  1.00  0.00    -0.394 N 
HETATM    4  C5  UNL     1      24.907   1.754  52.726  1.00  0.00     0.159 A 
HETATM    5  C6  UNL     1      23.516   1.244  52.681  1.00  0.00    -0.016 A 
HETATM    6  C7  UNL     1      22.471   1.924  52.320  1.00  0.00     0.053 A 
HETATM    7  C8  UNL     1      21.058   1.595  52.221  1.00  0.00     0.257 A 
HETATM    8  O3  UNL     1      20.463   0.524  52.470  1.00  0.00    -0.267 OA
HETATM    9  N2  UNL     1      20.264   2.680  51.765  1.00  0.00    -0.322 N 
HETATM   10  C9  UNL     1      21.205   3.751  51.564  1.00  0.00     0.046 A 
HETATM   11  C10 UNL     1      20.875   5.023  51.115  1.00  0.00     0.031 A 
HETATM   12  C11 UNL     1      21.902   5.924  50.979  1.00  0.00     0.020 A 
HETATM   13  C12 UNL     1      23.203   5.581  51.275  1.00  0.00     0.038 A 
HETATM   14  C14 UNL     1      23.408   4.310  51.705  1.00  0.00     0.033 A 
HETATM   15  C15 UNL     1      22.460   3.314  51.882  1.00  0.00     0.008 A 
HETATM   16  H5  UNL     1      26.766   0.851  53.307  1.00  0.00     0.159 HD
HETATM   17  H8  UNL     1      19.228   2.713  51.606  1.00  0.00     0.169 HD
ENDROOT
BRANCH   1  18
HETATM   18  C2  UNL     1      22.641  -1.155  53.288  1.00  0.00     0.150 C 
BRANCH  18  19
HETATM   19  C1  UNL     1      22.174  -1.194  54.734  1.00  0.00     0.143 C 
HETATM   20  O1  UNL     1      22.651  -1.826  55.714  1.00  0.00    -0.650 OA
BRANCH  19  21
HETATM   21  O2  UNL     1      21.074  -0.510  55.291  1.00  0.00    -0.776 OA
HETATM   22  H1  UNL     1      20.338  -0.114  54.724  1.00  0.00     0.167 HD
ENDBRANCH  19  21
ENDBRANCH  18  19
ENDBRANCH   1  18
BRANCH  13  23
HETATM   23  C13 UNL     1      24.248   6.575  51.113  1.00  0.00     0.176 C 
HETATM   24  O4  UNL     1      25.279   6.243  50.471  1.00  0.00    -0.646 OA
BRANCH  23  25
HETATM   25  O5  UNL     1      24.111   7.845  51.648  1.00  0.00    -0.773 OA
HETATM   26  H11 UNL     1      23.321   8.423  51.343  1.00  0.00     0.167 HD
ENDBRANCH  23  25
ENDBRANCH  13  23
TORSDOF 5
ENDMDL
