MODEL 1
REMARK VINA RESULT:      -8.3      0.000      0.000
REMARK  3 active torsions:
REMARK  status: ('A' for Active; 'I' for Inactive)
REMARK    1  A    between atoms: C17_21  and  O1_22 
REMARK    2  A    between atoms: O1_22  and  C18_23 
REMARK    3  A    between atoms: C18_23  and  O2_24 
ROOT
HETATM    1  C1  UNL     1      28.013   5.108  48.250  1.00  0.00     0.024 C 
HETATM    2  C2  UNL     1      26.965   5.561  48.926  1.00  0.00    -0.036 C 
HETATM    3  C3  UNL     1      26.526   6.975  49.121  1.00  0.00     0.028 C 
HETATM    4  C4  UNL     1      25.444   7.209  49.898  1.00  0.00     0.088 C 
HETATM    5  N1  UNL     1      24.482   6.223  50.371  1.00  0.00    -0.370 N 
HETATM    6  C5  UNL     1      23.752   6.828  51.470  1.00  0.00     0.241 C 
HETATM    7  N2  UNL     1      22.799   5.859  52.062  1.00  0.00    -0.399 N 
HETATM    8  C6  UNL     1      23.417   4.640  52.546  1.00  0.00     0.108 C 
HETATM    9  C7  UNL     1      23.735   3.349  52.325  1.00  0.00     0.060 C 
HETATM   10  C8  UNL     1      23.933   1.955  51.770  1.00  0.00     0.127 C 
HETATM   11  C9  UNL     1      25.388   1.708  51.571  1.00  0.00     0.013 C 
HETATM   12  C10 UNL     1      26.427   2.280  50.986  1.00  0.00    -0.001 C 
HETATM   13  C11 UNL     1      26.651   3.515  50.199  1.00  0.00     0.009 C 
HETATM   14  C12 UNL     1      26.089   4.606  49.655  1.00  0.00    -0.031 C 
HETATM   15  C13 UNL     1      24.652   5.075  49.573  1.00  0.00     0.163 C 
HETATM   16  N3  UNL     1      23.320   1.732  50.512  1.00  0.00    -0.261 NA
HETATM   17  C14 UNL     1      22.201   1.358  50.039  1.00  0.00     0.228 C 
HETATM   18  N4  UNL     1      21.106   1.012  50.851  1.00  0.00    -0.254 NA
HETATM   19  C15 UNL     1      21.077   0.637  52.109  1.00  0.00     0.120 C 
HETATM   20  C16 UNL     1      22.258   0.498  52.954  1.00  0.00     0.054 C 
HETATM   21  C17 UNL     1      23.460   1.038  52.833  1.00  0.00     0.085 C 
HETATM   22  H7  UNL     1      21.757   6.091  52.113  1.00  0.00     0.155 HD
ENDROOT
BRANCH  21  23
HETATM   23  O1  UNL     1      24.385   0.695  53.833  1.00  0.00    -0.327 OA
BRANCH  23  24
HETATM   24  C18 UNL     1      24.525  -0.678  54.147  1.00  0.00     0.343 C 
BRANCH  24  25
HETATM   25  O2  UNL     1      25.666  -0.878  54.942  1.00  0.00    -0.371 OA
HETATM   26  C19 UNL     1      26.514   0.232  54.869  1.00  0.00     0.204 C 
ENDBRANCH  24  25
ENDBRANCH  23  24
ENDBRANCH  21  23
TORSDOF 3
ENDMDL
MODEL 2
REMARK VINA RESULT:      -7.7      1.450      1.772
REMARK  3 active torsions:
REMARK  status: ('A' for Active; 'I' for Inactive)
REMARK    1  A    between atoms: C17_21  and  O1_22 
REMARK    2  A    between atoms: O1_22  and  C18_23 
REMARK    3  A    between atoms: C18_23  and  O2_24 
ROOT
HETATM    1  C1  UNL     1      28.501   6.481  47.843  1.00  0.00     0.024 C 
HETATM    2  C2  UNL     1      27.407   6.848  48.500  1.00  0.00    -0.036 C 
HETATM    3  C3  UNL     1      27.010   8.214  48.953  1.00  0.00     0.028 C 
HETATM    4  C4  UNL     1      25.863   8.348  49.658  1.00  0.00     0.088 C 
HETATM    5  N1  UNL     1      24.817   7.347  49.815  1.00  0.00    -0.370 N 
HETATM    6  C5  UNL     1      24.001   7.752  50.945  1.00  0.00     0.241 C 
HETATM    7  N2  UNL     1      22.952   6.744  51.224  1.00  0.00    -0.399 N 
HETATM    8  C6  UNL     1      23.465   5.413  51.489  1.00  0.00     0.108 C 
HETATM    9  C7  UNL     1      23.750   4.180  51.026  1.00  0.00     0.060 C 
HETATM   10  C8  UNL     1      23.947   2.924  50.205  1.00  0.00     0.127 C 
HETATM   11  C9  UNL     1      25.403   2.633  50.094  1.00  0.00     0.013 C 
HETATM   12  C10 UNL     1      26.520   3.248  49.746  1.00  0.00    -0.001 C 
HETATM   13  C11 UNL     1      26.877   4.604  49.268  1.00  0.00     0.009 C 
HETATM   14  C12 UNL     1      26.421   5.818  48.921  1.00  0.00    -0.031 C 
HETATM   15  C13 UNL     1      25.021   6.384  48.808  1.00  0.00     0.163 C 
HETATM   16  N3  UNL     1      23.460   3.009  48.878  1.00  0.00    -0.261 NA
HETATM   17  C14 UNL     1      22.382   2.814  48.232  1.00  0.00     0.228 C 
HETATM   18  N4  UNL     1      21.194   2.376  48.845  1.00  0.00    -0.254 NA
HETATM   19  C15 UNL     1      21.018   1.747  49.985  1.00  0.00     0.120 C 
HETATM   20  C16 UNL     1      22.097   1.360  50.887  1.00  0.00     0.054 C 
HETATM   21  C17 UNL     1      23.327   1.836  50.997  1.00  0.00     0.085 C 
HETATM   22  H7  UNL     1      21.921   7.025  51.226  1.00  0.00     0.155 HD
ENDROOT
BRANCH  21  23
HETATM   23  O1  UNL     1      24.127   1.233  51.981  1.00  0.00    -0.327 OA
BRANCH  23  24
HETATM   24  C18 UNL     1      23.476   0.432  52.949  1.00  0.00     0.343 C 
BRANCH  24  25
HETATM   25  O2  UNL     1      24.363  -0.534  53.454  1.00  0.00    -0.371 OA
HETATM   26  C19 UNL     1      25.647  -0.339  52.933  1.00  0.00     0.204 C 
ENDBRANCH  24  25
ENDBRANCH  23  24
ENDBRANCH  21  23
TORSDOF 3
ENDMDL
MODEL 3
REMARK VINA RESULT:      -7.4      3.116      6.055
REMARK  3 active torsions:
REMARK  status: ('A' for Active; 'I' for Inactive)
REMARK    1  A    between atoms: C17_21  and  O1_22 
REMARK    2  A    between atoms: O1_22  and  C18_23 
REMARK    3  A    between atoms: C18_23  and  O2_24 
ROOT
HETATM    1  C1  UNL     1      28.769   1.456  53.222  1.00  0.00     0.024 C 
HETATM    2  C2  UNL     1      27.513   1.055  53.375  1.00  0.00    -0.036 C 
HETATM    3  C3  UNL     1      26.992  -0.073  54.202  1.00  0.00     0.028 C 
HETATM    4  C4  UNL     1      25.665  -0.334  54.169  1.00  0.00     0.088 C 
HETATM    5  N1  UNL     1      24.624   0.521  53.617  1.00  0.00    -0.370 N 
HETATM    6  C5  UNL     1      23.445  -0.304  53.429  1.00  0.00     0.241 C 
HETATM    7  N2  UNL     1      22.355   0.475  52.796  1.00  0.00    -0.399 N 
HETATM    8  C6  UNL     1      22.709   1.058  51.515  1.00  0.00     0.108 C 
HETATM    9  C7  UNL     1      23.131   2.134  50.822  1.00  0.00     0.060 C 
HETATM   10  C8  UNL     1      23.609   3.492  50.359  1.00  0.00     0.127 C 
HETATM   11  C9  UNL     1      24.993   3.371  49.823  1.00  0.00     0.013 C 
HETATM   12  C10 UNL     1      26.167   2.888  50.192  1.00  0.00    -0.001 C 
HETATM   13  C11 UNL     1      26.698   2.198  51.390  1.00  0.00     0.009 C 
HETATM   14  C12 UNL     1      26.426   1.734  52.621  1.00  0.00    -0.031 C 
HETATM   15  C13 UNL     1      25.184   1.807  53.483  1.00  0.00     0.163 C 
HETATM   16  N3  UNL     1      23.666   4.473  51.380  1.00  0.00    -0.261 NA
HETATM   17  C14 UNL     1      22.913   5.339  51.927  1.00  0.00     0.228 C 
HETATM   18  N4  UNL     1      21.575   5.540  51.543  1.00  0.00    -0.254 NA
HETATM   19  C15 UNL     1      20.969   5.236  50.418  1.00  0.00     0.120 C 
HETATM   20  C16 UNL     1      21.617   4.590  49.281  1.00  0.00     0.054 C 
HETATM   21  C17 UNL     1      22.718   3.858  49.232  1.00  0.00     0.085 C 
HETATM   22  H7  UNL     1      21.405   0.563  53.278  1.00  0.00     0.155 HD
ENDROOT
BRANCH  21  23
HETATM   23  O1  UNL     1      23.074   3.379  47.961  1.00  0.00    -0.327 OA
BRANCH  23  24
HETATM   24  C18 UNL     1      22.027   2.956  47.108  1.00  0.00     0.343 C 
BRANCH  24  25
HETATM   25  O2  UNL     1      22.316   3.305  45.778  1.00  0.00    -0.371 OA
HETATM   26  C19 UNL     1      21.569   4.423  45.392  1.00  0.00     0.204 C 
ENDBRANCH  24  25
ENDBRANCH  23  24
ENDBRANCH  21  23
TORSDOF 3
ENDMDL
MODEL 4
REMARK VINA RESULT:      -7.2      2.183      3.295
REMARK  3 active torsions:
REMARK  status: ('A' for Active; 'I' for Inactive)
REMARK    1  A    between atoms: C17_21  and  O1_22 
REMARK    2  A    between atoms: O1_22  and  C18_23 
REMARK    3  A    between atoms: C18_23  and  O2_24 
ROOT
HETATM    1  C1  UNL     1      29.739   5.303  47.648  1.00  0.00     0.024 C 
HETATM    2  C2  UNL     1      28.902   6.193  48.168  1.00  0.00    -0.036 C 
HETATM    3  C3  UNL     1      29.147   7.634  48.471  1.00  0.00     0.028 C 
HETATM    4  C4  UNL     1      28.155   8.346  49.052  1.00  0.00     0.088 C 
HETATM    5  N1  UNL     1      26.762   7.944  49.190  1.00  0.00    -0.370 N 
HETATM    6  C5  UNL     1      26.167   8.797  50.202  1.00  0.00     0.241 C 
HETATM    7  N2  UNL     1      24.762   8.403  50.460  1.00  0.00    -0.399 N 
HETATM    8  C6  UNL     1      24.601   7.024  50.879  1.00  0.00     0.108 C 
HETATM    9  C7  UNL     1      24.315   5.749  50.545  1.00  0.00     0.060 C 
HETATM   10  C8  UNL     1      23.959   4.454  49.849  1.00  0.00     0.127 C 
HETATM   11  C9  UNL     1      25.127   3.531  49.899  1.00  0.00     0.013 C 
HETATM   12  C10 UNL     1      26.417   3.538  49.610  1.00  0.00    -0.001 C 
HETATM   13  C11 UNL     1      27.374   4.527  49.060  1.00  0.00     0.009 C 
HETATM   14  C12 UNL     1      27.536   5.768  48.576  1.00  0.00    -0.031 C 
HETATM   15  C13 UNL     1      26.554   6.884  48.287  1.00  0.00     0.163 C 
HETATM   16  N3  UNL     1      23.628   4.596  48.479  1.00  0.00    -0.261 NA
HETATM   17  C14 UNL     1      22.611   4.831  47.753  1.00  0.00     0.228 C 
HETATM   18  N4  UNL     1      21.326   5.043  48.285  1.00  0.00    -0.254 NA
HETATM   19  C15 UNL     1      20.829   4.695  49.449  1.00  0.00     0.120 C 
HETATM   20  C16 UNL     1      21.570   3.971  50.477  1.00  0.00     0.054 C 
HETATM   21  C17 UNL     1      22.875   3.856  50.664  1.00  0.00     0.085 C 
HETATM   22  H7  UNL     1      23.973   9.114  50.343  1.00  0.00     0.155 HD
ENDROOT
BRANCH  21  23
HETATM   23  O1  UNL     1      23.266   3.076  51.764  1.00  0.00    -0.327 OA
BRANCH  23  24
HETATM   24  C18 UNL     1      22.529   1.895  52.020  1.00  0.00     0.343 C 
BRANCH  24  25
HETATM   25  O2  UNL     1      23.145   1.151  53.040  1.00  0.00    -0.371 OA
HETATM   26  C19 UNL     1      24.462   0.835  52.688  1.00  0.00     0.204 C 
ENDBRANCH  24  25
ENDBRANCH  23  24
ENDBRANCH  21  23
TORSDOF 3
ENDMDL
MODEL 5
REMARK VINA RESULT:      -7.1      4.625      7.209
REMARK  3 active torsions:
REMARK  status: ('A' for Active; 'I' for Inactive)
REMARK    1  A    between atoms: C17_21  and  O1_22 
REMARK    2  A    between atoms: O1_22  and  C18_23 
REMARK    3  A    between atoms: C18_23  and  O2_24 
ROOT
HETATM    1  C1  UNL     1      31.651   4.612  47.183  1.00  0.00     0.024 C 
HETATM    2  C2  UNL     1      31.465   5.848  47.630  1.00  0.00    -0.036 C 
HETATM    3  C3  UNL     1      32.491   6.853  48.038  1.00  0.00     0.028 C 
HETATM    4  C4  UNL     1      32.067   8.046  48.515  1.00  0.00     0.088 C 
HETATM    5  N1  UNL     1      30.715   8.581  48.440  1.00  0.00    -0.370 N 
HETATM    6  C5  UNL     1      30.628   9.662  49.405  1.00  0.00     0.241 C 
HETATM    7  N2  UNL     1      29.254  10.216  49.449  1.00  0.00    -0.399 N 
HETATM    8  C6  UNL     1      28.230   9.239  49.769  1.00  0.00     0.108 C 
HETATM    9  C7  UNL     1      27.279   8.389  49.333  1.00  0.00     0.060 C 
HETATM   10  C8  UNL     1      26.310   7.551  48.529  1.00  0.00     0.127 C 
HETATM   11  C9  UNL     1      26.655   6.111  48.690  1.00  0.00     0.013 C 
HETATM   12  C10 UNL     1      27.707   5.318  48.580  1.00  0.00    -0.001 C 
HETATM   13  C11 UNL     1      29.133   5.496  48.218  1.00  0.00     0.009 C 
HETATM   14  C12 UNL     1      30.083   6.360  47.826  1.00  0.00    -0.031 C 
HETATM   15  C13 UNL     1      30.034   7.829  47.464  1.00  0.00     0.163 C 
HETATM   16  N3  UNL     1      26.329   7.807  47.136  1.00  0.00    -0.261 NA
HETATM   17  C14 UNL     1      25.779   8.582  46.292  1.00  0.00     0.228 C 
HETATM   18  N4  UNL     1      24.829   9.555  46.654  1.00  0.00    -0.254 NA
HETATM   19  C15 UNL     1      24.067   9.630  47.720  1.00  0.00     0.120 C 
HETATM   20  C16 UNL     1      24.062   8.649  48.800  1.00  0.00     0.054 C 
HETATM   21  C17 UNL     1      24.986   7.771  49.157  1.00  0.00     0.085 C 
HETATM   22  H7  UNL     1      29.086  11.255  49.262  1.00  0.00     0.155 HD
ENDROOT
BRANCH  21  23
HETATM   23  O1  UNL     1      24.663   6.961  50.258  1.00  0.00    -0.327 OA
BRANCH  23  24
HETATM   24  C18 UNL     1      23.406   7.170  50.874  1.00  0.00     0.343 C 
BRANCH  24  25
HETATM   25  O2  UNL     1      22.798   5.937  51.162  1.00  0.00    -0.371 OA
HETATM   26  C19 UNL     1      23.766   4.971  51.457  1.00  0.00     0.204 C 
ENDBRANCH  24  25
ENDBRANCH  23  24
ENDBRANCH  21  23
TORSDOF 3
ENDMDL
MODEL 6
REMARK VINA RESULT:      -6.9      5.450      9.398
REMARK  3 active torsions:
REMARK  status: ('A' for Active; 'I' for Inactive)
REMARK    1  A    between atoms: C17_21  and  O1_22 
REMARK    2  A    between atoms: O1_22  and  C18_23 
REMARK    3  A    between atoms: C18_23  and  O2_24 
ROOT
HETATM    1  C1  UNL     1      26.187   3.564  50.021  1.00  0.00     0.024 C 
HETATM    2  C2  UNL     1      25.849   4.667  49.364  1.00  0.00    -0.036 C 
HETATM    3  C3  UNL     1      24.489   5.118  48.943  1.00  0.00     0.028 C 
HETATM    4  C4  UNL     1      24.385   6.264  48.233  1.00  0.00     0.088 C 
HETATM    5  N1  UNL     1      25.423   7.266  48.040  1.00  0.00    -0.370 N 
HETATM    6  C5  UNL     1      25.023   8.089  46.914  1.00  0.00     0.241 C 
HETATM    7  N2  UNL     1      26.067   9.093  46.601  1.00  0.00    -0.399 N 
HETATM    8  C6  UNL     1      27.368   8.523  46.305  1.00  0.00     0.108 C 
HETATM    9  C7  UNL     1      28.600   8.190  46.738  1.00  0.00     0.060 C 
HETATM   10  C8  UNL     1      29.867   7.947  47.528  1.00  0.00     0.127 C 
HETATM   11  C9  UNL     1      30.101   6.481  47.644  1.00  0.00     0.013 C 
HETATM   12  C10 UNL     1      29.449   5.393  48.017  1.00  0.00    -0.001 C 
HETATM   13  C11 UNL     1      28.092   5.097  48.534  1.00  0.00     0.009 C 
HETATM   14  C12 UNL     1      26.907   5.606  48.908  1.00  0.00    -0.031 C 
HETATM   15  C13 UNL     1      26.403   7.029  49.024  1.00  0.00     0.163 C 
HETATM   16  N3  UNL     1      29.837   8.446  48.853  1.00  0.00    -0.261 NA
HETATM   17  C14 UNL     1      30.095   9.520  49.484  1.00  0.00     0.228 C 
HETATM   18  N4  UNL     1      30.566  10.684  48.849  1.00  0.00    -0.254 NA
HETATM   19  C15 UNL     1      31.171  10.825  47.693  1.00  0.00     0.120 C 
HETATM   20  C16 UNL     1      31.489   9.724  46.790  1.00  0.00     0.054 C 
HETATM   21  C17 UNL     1      30.959   8.514  46.703  1.00  0.00     0.085 C 
HETATM   22  H7  UNL     1      25.829  10.135  46.597  1.00  0.00     0.155 HD
ENDROOT
BRANCH  21  23
HETATM   23  O1  UNL     1      31.502   7.682  45.710  1.00  0.00    -0.327 OA
BRANCH  23  24
HETATM   24  C18 UNL     1      32.834   7.936  45.304  1.00  0.00     0.343 C 
BRANCH  24  25
HETATM   25  O2  UNL     1      33.388   6.787  44.716  1.00  0.00    -0.371 OA
HETATM   26  C19 UNL     1      32.871   5.633  45.316  1.00  0.00     0.204 C 
ENDBRANCH  24  25
ENDBRANCH  23  24
ENDBRANCH  21  23
TORSDOF 3
ENDMDL
MODEL 7
REMARK VINA RESULT:      -6.6      3.744      7.083
REMARK  3 active torsions:
REMARK  status: ('A' for Active; 'I' for Inactive)
REMARK    1  A    between atoms: C17_21  and  O1_22 
REMARK    2  A    between atoms: O1_22  and  C18_23 
REMARK    3  A    between atoms: C18_23  and  O2_24 
ROOT
HETATM    1  C1  UNL     1      25.035   0.412  53.484  1.00  0.00     0.024 C 
HETATM    2  C2  UNL     1      23.748   0.372  53.158  1.00  0.00    -0.036 C 
HETATM    3  C3  UNL     1      22.702  -0.586  53.625  1.00  0.00     0.028 C 
HETATM    4  C4  UNL     1      21.453  -0.468  53.118  1.00  0.00     0.088 C 
HETATM    5  N1  UNL     1      20.926   0.653  52.353  1.00  0.00    -0.370 N 
HETATM    6  C5  UNL     1      19.724   0.190  51.685  1.00  0.00     0.241 C 
HETATM    7  N2  UNL     1      19.163   1.254  50.819  1.00  0.00    -0.399 N 
HETATM    8  C6  UNL     1      20.082   1.743  49.809  1.00  0.00     0.108 C 
HETATM    9  C7  UNL     1      20.979   2.674  49.429  1.00  0.00     0.060 C 
HETATM   10  C8  UNL     1      21.915   3.857  49.315  1.00  0.00     0.127 C 
HETATM   11  C9  UNL     1      23.321   3.369  49.265  1.00  0.00     0.013 C 
HETATM   12  C10 UNL     1      24.126   2.573  49.946  1.00  0.00    -0.001 C 
HETATM   13  C11 UNL     1      24.006   1.737  51.164  1.00  0.00     0.009 C 
HETATM   14  C12 UNL     1      23.208   1.340  52.168  1.00  0.00    -0.031 C 
HETATM   15  C13 UNL     1      21.801   1.736  52.566  1.00  0.00     0.163 C 
HETATM   16  N3  UNL     1      21.852   4.762  50.404  1.00  0.00    -0.261 NA
HETATM   17  C14 UNL     1      21.197   5.790  50.764  1.00  0.00     0.228 C 
HETATM   18  N4  UNL     1      20.179   6.362  49.979  1.00  0.00    -0.254 NA
HETATM   19  C15 UNL     1      19.956   6.262  48.689  1.00  0.00     0.120 C 
HETATM   20  C16 UNL     1      20.781   5.486  47.769  1.00  0.00     0.054 C 
HETATM   21  C17 UNL     1      21.605   4.479  48.006  1.00  0.00     0.085 C 
HETATM   22  H7  UNL     1      18.158   1.591  50.961  1.00  0.00     0.155 HD
ENDROOT
BRANCH  21  23
HETATM   23  O1  UNL     1      22.256   3.947  46.881  1.00  0.00    -0.327 OA
BRANCH  23  24
HETATM   24  C18 UNL     1      21.966   4.530  45.625  1.00  0.00     0.343 C 
BRANCH  24  25
HETATM   25  O2  UNL     1      21.697   3.528  44.677  1.00  0.00    -0.371 OA
HETATM   26  C19 UNL     1      20.580   3.871  43.907  1.00  0.00     0.204 C 
ENDBRANCH  24  25
ENDBRANCH  23  24
ENDBRANCH  21  23
TORSDOF 3
ENDMDL
MODEL 8
REMARK VINA RESULT:      -6.4      7.215      9.267
REMARK  3 active torsions:
REMARK  status: ('A' for Active; 'I' for Inactive)
REMARK    1  A    between atoms: C17_21  and  O1_22 
REMARK    2  A    between atoms: O1_22  and  C18_23 
REMARK    3  A    between atoms: C18_23  and  O2_24 
ROOT
HETATM    1  C1  UNL     1      24.293   8.084  44.724  1.00  0.00     0.024 C 
HETATM    2  C2  UNL     1      24.566   8.217  46.016  1.00  0.00    -0.036 C 
HETATM    3  C3  UNL     1      23.629   8.528  47.136  1.00  0.00     0.028 C 
HETATM    4  C4  UNL     1      24.141   8.668  48.381  1.00  0.00     0.088 C 
HETATM    5  N1  UNL     1      25.479   8.295  48.818  1.00  0.00    -0.370 N 
HETATM    6  C5  UNL     1      25.725   8.977  50.075  1.00  0.00     0.241 C 
HETATM    7  N2  UNL     1      27.102   8.712  50.555  1.00  0.00    -0.399 N 
HETATM    8  C6  UNL     1      28.141   9.099  49.620  1.00  0.00     0.108 C 
HETATM    9  C7  UNL     1      29.003   8.737  48.649  1.00  0.00     0.060 C 
HETATM   10  C8  UNL     1      29.830   8.015  47.608  1.00  0.00     0.127 C 
HETATM   11  C9  UNL     1      29.483   8.534  46.256  1.00  0.00     0.013 C 
HETATM   12  C10 UNL     1      28.410   8.745  45.513  1.00  0.00    -0.001 C 
HETATM   13  C11 UNL     1      26.951   8.548  45.681  1.00  0.00     0.009 C 
HETATM   14  C12 UNL     1      25.972   8.107  46.488  1.00  0.00    -0.031 C 
HETATM   15  C13 UNL     1      25.999   7.426  47.840  1.00  0.00     0.163 C 
HETATM   16  N3  UNL     1      29.617   6.615  47.558  1.00  0.00    -0.261 NA
HETATM   17  C14 UNL     1      30.057   5.554  48.103  1.00  0.00     0.228 C 
HETATM   18  N4  UNL     1      31.068   5.561  49.082  1.00  0.00    -0.254 NA
HETATM   19  C15 UNL     1      31.976   6.472  49.347  1.00  0.00     0.120 C 
HETATM   20  C16 UNL     1      32.115   7.731  48.623  1.00  0.00     0.054 C 
HETATM   21  C17 UNL     1      31.234   8.394  47.891  1.00  0.00     0.085 C 
HETATM   22  H7  UNL     1      27.262   8.280  51.519  1.00  0.00     0.155 HD
ENDROOT
BRANCH  21  23
HETATM   23  O1  UNL     1      31.695   9.593  47.322  1.00  0.00    -0.327 OA
BRANCH  23  24
HETATM   24  C18 UNL     1      31.789  10.722  48.170  1.00  0.00     0.343 C 
BRANCH  24  25
HETATM   25  O2  UNL     1      30.726  11.606  47.919  1.00  0.00    -0.371 OA
HETATM   26  C19 UNL     1      30.453  12.378  49.053  1.00  0.00     0.204 C 
ENDBRANCH  24  25
ENDBRANCH  23  24
ENDBRANCH  21  23
TORSDOF 3
ENDMDL
MODEL 9
REMARK VINA RESULT:      -6.4      8.045     10.063
REMARK  3 active torsions:
REMARK  status: ('A' for Active; 'I' for Inactive)
REMARK    1  A    between atoms: C17_21  and  O1_22 
REMARK    2  A    between atoms: O1_22  and  C18_23 
REMARK    3  A    between atoms: C18_23  and  O2_24 
ROOT
HETATM    1  C1  UNL     1      25.640   8.620  44.316  1.00  0.00     0.024 C 
HETATM    2  C2  UNL     1      25.962   8.826  45.587  1.00  0.00    -0.036 C 
HETATM    3  C3  UNL     1      25.135   9.444  46.666  1.00  0.00     0.028 C 
HETATM    4  C4  UNL     1      25.690   9.600  47.890  1.00  0.00     0.088 C 
HETATM    5  N1  UNL     1      26.927   8.999  48.367  1.00  0.00    -0.370 N 
HETATM    6  C5  UNL     1      27.338   9.740  49.546  1.00  0.00     0.241 C 
HETATM    7  N2  UNL     1      28.637   9.239  50.053  1.00  0.00    -0.399 N 
HETATM    8  C6  UNL     1      29.715   9.297  49.084  1.00  0.00     0.108 C 
HETATM    9  C7  UNL     1      30.461   8.662  48.159  1.00  0.00     0.060 C 
HETATM   10  C8  UNL     1      31.095   7.676  47.202  1.00  0.00     0.127 C 
HETATM   11  C9  UNL     1      30.838   8.114  45.803  1.00  0.00     0.013 C 
HETATM   12  C10 UNL     1      29.818   8.469  45.039  1.00  0.00    -0.001 C 
HETATM   13  C11 UNL     1      28.355   8.606  45.224  1.00  0.00     0.009 C 
HETATM   14  C12 UNL     1      27.322   8.469  46.071  1.00  0.00    -0.031 C 
HETATM   15  C13 UNL     1      27.231   7.942  47.487  1.00  0.00     0.163 C 
HETATM   16  N3  UNL     1      30.590   6.356  47.301  1.00  0.00    -0.261 NA
HETATM   17  C14 UNL     1      30.807   5.289  47.956  1.00  0.00     0.228 C 
HETATM   18  N4  UNL     1      31.816   5.182  48.931  1.00  0.00    -0.254 NA
HETATM   19  C15 UNL     1      32.902   5.901  49.099  1.00  0.00     0.120 C 
HETATM   20  C16 UNL     1      33.289   7.020  48.246  1.00  0.00     0.054 C 
HETATM   21  C17 UNL     1      32.553   7.775  47.446  1.00  0.00     0.085 C 
HETATM   22  H7  UNL     1      28.722   8.885  51.059  1.00  0.00     0.155 HD
ENDROOT
BRANCH  21  23
HETATM   23  O1  UNL     1      33.245   8.783  46.755  1.00  0.00    -0.327 OA
BRANCH  23  24
HETATM   24  C18 UNL     1      34.517   9.158  47.250  1.00  0.00     0.343 C 
BRANCH  24  25
HETATM   25  O2  UNL     1      35.396   9.409  46.184  1.00  0.00    -0.371 OA
HETATM   26  C19 UNL     1      34.705   9.405  44.968  1.00  0.00     0.204 C 
ENDBRANCH  24  25
ENDBRANCH  23  24
ENDBRANCH  21  23
TORSDOF 3
ENDMDL
