MODEL 1
REMARK VINA RESULT:      -6.8      0.000      0.000
REMARK  9 active torsions:
REMARK  status: ('A' for Active; 'I' for Inactive)
REMARK    1  A    between atoms: C2_2  and  P1_3 
REMARK    2  A    between atoms: P1_3  and  C3_4 
REMARK    3  A    between atoms: P1_3  and  C16_21 
REMARK    4  A    between atoms: C5_6  and  C6_7 
REMARK    5  A    between atoms: C6_7  and  O1_8 
REMARK    6  A    between atoms: O1_8  and  C7_9 
REMARK    7  A    between atoms: C12_16  and  O2_17 
REMARK    8  A    between atoms: C16_21  and  O4_23 
REMARK    9  A    between atoms: O4_23  and  C17_24 
ROOT
HETATM    1  O1  UNL     1      25.284   4.209  50.540  1.00  0.00    -0.333 OA
ENDROOT
BRANCH   1   2
HETATM    2  C6  UNL     1      25.023   3.053  51.068  1.00  0.00     0.183 C 
BRANCH   2   3
HETATM    3  C5  UNL     1      26.195   2.083  51.156  1.00  0.00     0.025 A 
HETATM    4  C4  UNL     1      26.680   0.974  51.696  1.00  0.00     0.007 A 
HETATM    5  C3  UNL     1      25.368   1.164  52.233  1.00  0.00     0.112 A 
BRANCH   5   6
HETATM    6  P1  UNL     1      25.325  -0.280  53.190  1.00  0.00    -0.038 P 
BRANCH   6   7
HETATM    7  C2  UNL     1      23.588  -0.426  53.216  1.00  0.00    -0.024 C 
HETATM    8  C1  UNL     1      22.656   0.650  53.387  1.00  0.00     0.036 C 
ENDBRANCH   6   7
BRANCH   6   9
HETATM    9  C16 UNL     1      26.017  -0.237  54.888  1.00  0.00     0.276 C 
HETATM   10  O3  UNL     1      25.552  -0.903  55.848  1.00  0.00    -0.260 OA
BRANCH   9  11
HETATM   11  O4  UNL     1      27.115   0.559  55.178  1.00  0.00    -0.319 OA
BRANCH  11  12
HETATM   12  C17 UNL     1      28.438   0.195  54.894  1.00  0.00     0.174 C 
HETATM   13  C18 UNL     1      29.243   1.308  54.248  1.00  0.00     0.034 C 
ENDBRANCH  11  12
ENDBRANCH   9  11
ENDBRANCH   6   9
ENDBRANCH   5   6
ENDBRANCH   2   3
ENDBRANCH   1   2
BRANCH   1  14
HETATM   14  C7  UNL     1      25.538   5.334  50.027  1.00  0.00     0.176 C 
HETATM   15  N1  UNL     1      24.467   5.746  50.675  1.00  0.00    -0.218 NA
HETATM   16  C8  UNL     1      23.938   7.080  50.664  1.00  0.00     0.229 C 
HETATM   17  N2  UNL     1      24.402   8.287  50.408  1.00  0.00    -0.282 NA
HETATM   18  C9  UNL     1      25.721   8.762  50.010  1.00  0.00     0.155 C 
HETATM   19  C10 UNL     1      26.085   8.451  48.598  1.00  0.00     0.064 C 
HETATM   20  C11 UNL     1      26.821   7.144  48.524  1.00  0.00    -0.009 A 
HETATM   21  C12 UNL     1      27.874   6.521  47.998  1.00  0.00     0.076 A 
HETATM   22  C15 UNL     1      26.550   5.864  49.143  1.00  0.00     0.029 A 
HETATM   23  C14 UNL     1      27.591   5.254  48.620  1.00  0.00     0.053 A 
BRANCH  21  24
HETATM   24  O2  UNL     1      28.910   6.936  47.136  1.00  0.00    -0.355 OA
HETATM   25  C13 UNL     1      29.619   8.134  47.350  1.00  0.00     0.210 C 
ENDBRANCH  21  24
ENDBRANCH   1  14
TORSDOF 9
ENDMDL
MODEL 2
REMARK VINA RESULT:      -6.8      3.187      8.675
REMARK  9 active torsions:
REMARK  status: ('A' for Active; 'I' for Inactive)
REMARK    1  A    between atoms: C2_2  and  P1_3 
REMARK    2  A    between atoms: P1_3  and  C3_4 
REMARK    3  A    between atoms: P1_3  and  C16_21 
REMARK    4  A    between atoms: C5_6  and  C6_7 
REMARK    5  A    between atoms: C6_7  and  O1_8 
REMARK    6  A    between atoms: O1_8  and  C7_9 
REMARK    7  A    between atoms: C12_16  and  O2_17 
REMARK    8  A    between atoms: C16_21  and  O4_23 
REMARK    9  A    between atoms: O4_23  and  C17_24 
ROOT
HETATM    1  O1  UNL     1      26.357   2.569  50.970  1.00  0.00    -0.333 OA
ENDROOT
BRANCH   1   2
HETATM    2  C6  UNL     1      26.612   3.426  50.030  1.00  0.00     0.183 C 
BRANCH   2   3
HETATM    3  C5  UNL     1      25.418   4.216  49.510  1.00  0.00     0.025 A 
HETATM    4  C4  UNL     1      24.981   5.356  48.994  1.00  0.00     0.007 A 
HETATM    5  C3  UNL     1      26.390   5.498  49.194  1.00  0.00     0.112 A 
BRANCH   5   6
HETATM    6  P1  UNL     1      26.533   7.095  48.534  1.00  0.00    -0.038 P 
BRANCH   6   7
HETATM    7  C2  UNL     1      28.072   6.830  47.758  1.00  0.00    -0.024 C 
HETATM    8  C1  UNL     1      29.072   5.890  48.172  1.00  0.00     0.036 C 
ENDBRANCH   6   7
BRANCH   6   9
HETATM    9  C16 UNL     1      26.601   8.524  49.681  1.00  0.00     0.276 C 
HETATM   10  O3  UNL     1      25.580   9.097  50.142  1.00  0.00    -0.260 OA
BRANCH   9  11
HETATM   11  O4  UNL     1      27.822   9.036  50.093  1.00  0.00    -0.319 OA
BRANCH  11  12
HETATM   12  C17 UNL     1      28.598   9.912  49.323  1.00  0.00     0.174 C 
HETATM   13  C18 UNL     1      30.087   9.635  49.414  1.00  0.00     0.034 C 
ENDBRANCH  11  12
ENDBRANCH   9  11
ENDBRANCH   6   9
ENDBRANCH   5   6
ENDBRANCH   2   3
ENDBRANCH   1   2
BRANCH   1  14
HETATM   14  C7  UNL     1      26.109   1.735  51.885  1.00  0.00     0.176 C 
HETATM   15  N1  UNL     1      27.403   1.790  52.131  1.00  0.00    -0.218 NA
HETATM   16  C8  UNL     1      28.097   1.059  53.153  1.00  0.00     0.229 C 
HETATM   17  N2  UNL     1      27.777   0.474  54.290  1.00  0.00    -0.282 NA
HETATM   18  C9  UNL     1      26.509   0.338  54.995  1.00  0.00     0.155 C 
HETATM   19  C10 UNL     1      25.560  -0.628  54.370  1.00  0.00     0.064 C 
HETATM   20  C11 UNL     1      24.651   0.082  53.408  1.00  0.00    -0.009 A 
HETATM   21  C12 UNL     1      23.387   0.216  53.009  1.00  0.00     0.076 A 
HETATM   22  C15 UNL     1      24.930   1.066  52.384  1.00  0.00     0.029 A 
HETATM   23  C14 UNL     1      23.682   1.193  51.994  1.00  0.00     0.053 A 
BRANCH  21  24
HETATM   24  O2  UNL     1      22.176  -0.379  53.420  1.00  0.00    -0.355 OA
HETATM   25  C13 UNL     1      21.989  -0.851  54.734  1.00  0.00     0.210 C 
ENDBRANCH  21  24
ENDBRANCH   1  14
TORSDOF 9
ENDMDL
MODEL 3
REMARK VINA RESULT:      -6.8      3.654      6.708
REMARK  9 active torsions:
REMARK  status: ('A' for Active; 'I' for Inactive)
REMARK    1  A    between atoms: C2_2  and  P1_3 
REMARK    2  A    between atoms: P1_3  and  C3_4 
REMARK    3  A    between atoms: P1_3  and  C16_21 
REMARK    4  A    between atoms: C5_6  and  C6_7 
REMARK    5  A    between atoms: C6_7  and  O1_8 
REMARK    6  A    between atoms: O1_8  and  C7_9 
REMARK    7  A    between atoms: C12_16  and  O2_17 
REMARK    8  A    between atoms: C16_21  and  O4_23 
REMARK    9  A    between atoms: O4_23  and  C17_24 
ROOT
HETATM    1  O1  UNL     1      24.155  -0.120  53.386  1.00  0.00    -0.333 OA
ENDROOT
BRANCH   1   2
HETATM    2  C6  UNL     1      23.031  -0.763  53.464  1.00  0.00     0.183 C 
BRANCH   2   3
HETATM    3  C5  UNL     1      21.838   0.043  53.960  1.00  0.00     0.025 A 
HETATM    4  C4  UNL     1      20.769   0.758  53.636  1.00  0.00     0.007 A 
HETATM    5  C3  UNL     1      21.379   0.336  52.413  1.00  0.00     0.112 A 
BRANCH   5   6
HETATM    6  P1  UNL     1      20.206   1.034  51.345  1.00  0.00    -0.038 P 
BRANCH   6   7
HETATM    7  C2  UNL     1      21.152   0.848  49.893  1.00  0.00    -0.024 C 
HETATM    8  C1  UNL     1      21.016   1.623  48.695  1.00  0.00     0.036 C 
ENDBRANCH   6   7
BRANCH   6   9
HETATM    9  C16 UNL     1      19.705   2.780  51.598  1.00  0.00     0.276 C 
HETATM   10  O3  UNL     1      18.571   3.126  52.018  1.00  0.00    -0.260 OA
BRANCH   9  11
HETATM   11  O4  UNL     1      20.592   3.810  51.325  1.00  0.00    -0.319 OA
BRANCH  11  12
HETATM   12  C17 UNL     1      21.442   4.381  52.281  1.00  0.00     0.174 C 
HETATM   13  C18 UNL     1      22.861   3.846  52.222  1.00  0.00     0.034 C 
ENDBRANCH  11  12
ENDBRANCH   9  11
ENDBRANCH   6   9
ENDBRANCH   5   6
ENDBRANCH   2   3
ENDBRANCH   1   2
BRANCH   1  14
HETATM   14  C7  UNL     1      25.249   0.506  53.311  1.00  0.00     0.176 C 
HETATM   15  N1  UNL     1      25.530  -0.073  54.461  1.00  0.00    -0.218 NA
HETATM   16  C8  UNL     1      26.742   0.091  55.212  1.00  0.00     0.229 C 
HETATM   17  N2  UNL     1      27.979   0.466  54.954  1.00  0.00    -0.282 NA
HETATM   18  C9  UNL     1      28.636   0.886  53.723  1.00  0.00     0.155 C 
HETATM   19  C10 UNL     1      28.251   2.249  53.257  1.00  0.00     0.064 C 
HETATM   20  C11 UNL     1      27.093   2.168  52.304  1.00  0.00    -0.009 A 
HETATM   21  C12 UNL     1      26.615   2.603  51.140  1.00  0.00     0.076 A 
HETATM   22  C15 UNL     1      25.855   1.421  52.373  1.00  0.00     0.029 A 
HETATM   23  C14 UNL     1      25.388   1.855  51.223  1.00  0.00     0.053 A 
BRANCH  21  24
HETATM   24  O2  UNL     1      27.115   3.484  50.159  1.00  0.00    -0.355 OA
HETATM   25  C13 UNL     1      26.270   4.357  49.444  1.00  0.00     0.210 C 
ENDBRANCH  21  24
ENDBRANCH   1  14
TORSDOF 9
ENDMDL
MODEL 4
REMARK VINA RESULT:      -6.7      3.161      8.699
REMARK  9 active torsions:
REMARK  status: ('A' for Active; 'I' for Inactive)
REMARK    1  A    between atoms: C2_2  and  P1_3 
REMARK    2  A    between atoms: P1_3  and  C3_4 
REMARK    3  A    between atoms: P1_3  and  C16_21 
REMARK    4  A    between atoms: C5_6  and  C6_7 
REMARK    5  A    between atoms: C6_7  and  O1_8 
REMARK    6  A    between atoms: O1_8  and  C7_9 
REMARK    7  A    between atoms: C12_16  and  O2_17 
REMARK    8  A    between atoms: C16_21  and  O4_23 
REMARK    9  A    between atoms: O4_23  and  C17_24 
ROOT
HETATM    1  O1  UNL     1      26.372   2.467  51.033  1.00  0.00    -0.333 OA
ENDROOT
BRANCH   1   2
HETATM    2  C6  UNL     1      26.660   3.318  50.098  1.00  0.00     0.183 C 
BRANCH   2   3
HETATM    3  C5  UNL     1      25.481   4.080  49.507  1.00  0.00     0.025 A 
HETATM    4  C4  UNL     1      25.058   5.194  48.926  1.00  0.00     0.007 A 
HETATM    5  C3  UNL     1      26.460   5.350  49.163  1.00  0.00     0.112 A 
BRANCH   5   6
HETATM    6  P1  UNL     1      26.620   6.915  48.436  1.00  0.00    -0.038 P 
BRANCH   6   7
HETATM    7  C2  UNL     1      28.318   6.769  48.069  1.00  0.00    -0.024 C 
HETATM    8  C1  UNL     1      29.103   5.575  48.183  1.00  0.00     0.036 C 
ENDBRANCH   6   7
BRANCH   6   9
HETATM    9  C16 UNL     1      26.281   8.403  49.454  1.00  0.00     0.276 C 
HETATM   10  O3  UNL     1      27.068   8.841  50.332  1.00  0.00    -0.260 OA
BRANCH   9  11
HETATM   11  O4  UNL     1      25.106   9.117  49.281  1.00  0.00    -0.319 OA
BRANCH  11  12
HETATM   12  C17 UNL     1      23.828   8.575  49.476  1.00  0.00     0.174 C 
HETATM   13  C18 UNL     1      23.665   7.883  50.817  1.00  0.00     0.034 C 
ENDBRANCH  11  12
ENDBRANCH   9  11
ENDBRANCH   6   9
ENDBRANCH   5   6
ENDBRANCH   2   3
ENDBRANCH   1   2
BRANCH   1  14
HETATM   14  C7  UNL     1      26.090   1.638  51.943  1.00  0.00     0.176 C 
HETATM   15  N1  UNL     1      27.385   1.639  52.189  1.00  0.00    -0.218 NA
HETATM   16  C8  UNL     1      28.050   0.875  53.206  1.00  0.00     0.229 C 
HETATM   17  N2  UNL     1      27.707   0.297  54.340  1.00  0.00    -0.282 NA
HETATM   18  C9  UNL     1      26.434   0.206  55.045  1.00  0.00     0.155 C 
HETATM   19  C10 UNL     1      25.448  -0.716  54.414  1.00  0.00     0.064 C 
HETATM   20  C11 UNL     1      24.567   0.035  53.457  1.00  0.00    -0.009 A 
HETATM   21  C12 UNL     1      23.310   0.221  53.058  1.00  0.00     0.076 A 
HETATM   22  C15 UNL     1      24.886   1.013  52.438  1.00  0.00     0.029 A 
HETATM   23  C14 UNL     1      23.643   1.192  52.049  1.00  0.00     0.053 A 
BRANCH  21  24
HETATM   24  O2  UNL     1      22.076  -0.327  53.466  1.00  0.00    -0.355 OA
HETATM   25  C13 UNL     1      22.004  -1.382  54.397  1.00  0.00     0.210 C 
ENDBRANCH  21  24
ENDBRANCH   1  14
TORSDOF 9
ENDMDL
MODEL 5
REMARK VINA RESULT:      -6.7      2.834      8.279
REMARK  9 active torsions:
REMARK  status: ('A' for Active; 'I' for Inactive)
REMARK    1  A    between atoms: C2_2  and  P1_3 
REMARK    2  A    between atoms: P1_3  and  C3_4 
REMARK    3  A    between atoms: P1_3  and  C16_21 
REMARK    4  A    between atoms: C5_6  and  C6_7 
REMARK    5  A    between atoms: C6_7  and  O1_8 
REMARK    6  A    between atoms: O1_8  and  C7_9 
REMARK    7  A    between atoms: C12_16  and  O2_17 
REMARK    8  A    between atoms: C16_21  and  O4_23 
REMARK    9  A    between atoms: O4_23  and  C17_24 
ROOT
HETATM    1  O1  UNL     1      25.053   2.725  50.830  1.00  0.00    -0.333 OA
ENDROOT
BRANCH   1   2
HETATM    2  C6  UNL     1      25.201   3.675  49.958  1.00  0.00     0.183 C 
BRANCH   2   3
HETATM    3  C5  UNL     1      26.598   3.826  49.372  1.00  0.00     0.025 A 
HETATM    4  C4  UNL     1      27.481   4.633  48.801  1.00  0.00     0.007 A 
HETATM    5  C3  UNL     1      26.301   5.405  49.042  1.00  0.00     0.112 A 
BRANCH   5   6
HETATM    6  P1  UNL     1      26.915   6.914  48.453  1.00  0.00    -0.038 P 
BRANCH   6   7
HETATM    7  C2  UNL     1      28.527   6.336  48.126  1.00  0.00    -0.024 C 
HETATM    8  C1  UNL     1      29.519   7.010  47.340  1.00  0.00     0.036 C 
ENDBRANCH   6   7
BRANCH   6   9
HETATM    9  C16 UNL     1      26.939   8.361  49.580  1.00  0.00     0.276 C 
HETATM   10  O3  UNL     1      27.961   9.064  49.791  1.00  0.00    -0.260 OA
BRANCH   9  11
HETATM   11  O4  UNL     1      25.792   8.739  50.259  1.00  0.00    -0.319 OA
BRANCH  11  12
HETATM   12  C17 UNL     1      24.494   8.527  49.775  1.00  0.00     0.174 C 
HETATM   13  C18 UNL     1      23.663   7.614  50.658  1.00  0.00     0.034 C 
ENDBRANCH  11  12
ENDBRANCH   9  11
ENDBRANCH   6   9
ENDBRANCH   5   6
ENDBRANCH   2   3
ENDBRANCH   1   2
BRANCH   1  14
HETATM   14  C7  UNL     1      24.908   1.802  51.679  1.00  0.00     0.176 C 
HETATM   15  N1  UNL     1      23.684   2.272  51.814  1.00  0.00    -0.218 NA
HETATM   16  C8  UNL     1      22.677   1.753  52.695  1.00  0.00     0.229 C 
HETATM   17  N2  UNL     1      22.439   0.606  53.301  1.00  0.00    -0.282 NA
HETATM   18  C9  UNL     1      23.158  -0.661  53.310  1.00  0.00     0.155 C 
HETATM   19  C10 UNL     1      24.425  -0.643  54.097  1.00  0.00     0.064 C 
HETATM   20  C11 UNL     1      25.585  -0.289  53.212  1.00  0.00    -0.009 A 
HETATM   21  C12 UNL     1      26.836  -0.609  52.884  1.00  0.00     0.076 A 
HETATM   22  C15 UNL     1      25.738   0.747  52.212  1.00  0.00     0.029 A 
HETATM   23  C14 UNL     1      26.972   0.427  51.894  1.00  0.00     0.053 A 
BRANCH  21  24
HETATM   24  O2  UNL     1      27.728  -1.604  53.334  1.00  0.00    -0.355 OA
HETATM   25  C13 UNL     1      29.115  -1.372  53.426  1.00  0.00     0.210 C 
ENDBRANCH  21  24
ENDBRANCH   1  14
TORSDOF 9
ENDMDL
MODEL 6
REMARK VINA RESULT:      -6.6      2.914      8.397
REMARK  9 active torsions:
REMARK  status: ('A' for Active; 'I' for Inactive)
REMARK    1  A    between atoms: C2_2  and  P1_3 
REMARK    2  A    between atoms: P1_3  and  C3_4 
REMARK    3  A    between atoms: P1_3  and  C16_21 
REMARK    4  A    between atoms: C5_6  and  C6_7 
REMARK    5  A    between atoms: C6_7  and  O1_8 
REMARK    6  A    between atoms: O1_8  and  C7_9 
REMARK    7  A    between atoms: C12_16  and  O2_17 
REMARK    8  A    between atoms: C16_21  and  O4_23 
REMARK    9  A    between atoms: O4_23  and  C17_24 
ROOT
HETATM    1  O1  UNL     1      25.048   2.960  50.934  1.00  0.00    -0.333 OA
ENDROOT
BRANCH   1   2
HETATM    2  C6  UNL     1      25.253   3.955  50.126  1.00  0.00     0.183 C 
BRANCH   2   3
HETATM    3  C5  UNL     1      26.596   3.964  49.409  1.00  0.00     0.025 A 
HETATM    4  C4  UNL     1      27.498   4.678  48.750  1.00  0.00     0.007 A 
HETATM    5  C3  UNL     1      26.431   5.565  49.095  1.00  0.00     0.112 A 
BRANCH   5   6
HETATM    6  P1  UNL     1      27.136   7.005  48.437  1.00  0.00    -0.038 P 
BRANCH   6   7
HETATM    7  C2  UNL     1      28.731   6.338  48.216  1.00  0.00    -0.024 C 
HETATM    8  C1  UNL     1      29.771   6.895  47.401  1.00  0.00     0.036 C 
ENDBRANCH   6   7
BRANCH   6   9
HETATM    9  C16 UNL     1      27.182   8.520  49.469  1.00  0.00     0.276 C 
HETATM   10  O3  UNL     1      26.159   9.051  49.972  1.00  0.00    -0.260 OA
BRANCH   9  11
HETATM   11  O4  UNL     1      28.387   9.150  49.736  1.00  0.00    -0.319 OA
BRANCH  11  12
HETATM   12  C17 UNL     1      28.907  10.198  48.965  1.00  0.00     0.174 C 
HETATM   13  C18 UNL     1      30.395  10.415  49.168  1.00  0.00     0.034 C 
ENDBRANCH  11  12
ENDBRANCH   9  11
ENDBRANCH   6   9
ENDBRANCH   5   6
ENDBRANCH   2   3
ENDBRANCH   1   2
BRANCH   1  14
HETATM   14  C7  UNL     1      24.850   1.992  51.720  1.00  0.00     0.176 C 
HETATM   15  N1  UNL     1      23.628   2.473  51.823  1.00  0.00    -0.218 NA
HETATM   16  C8  UNL     1      22.571   1.921  52.622  1.00  0.00     0.229 C 
HETATM   17  N2  UNL     1      22.289   0.746  53.149  1.00  0.00    -0.282 NA
HETATM   18  C9  UNL     1      22.990  -0.531  53.120  1.00  0.00     0.155 C 
HETATM   19  C10 UNL     1      24.216  -0.577  53.967  1.00  0.00     0.064 C 
HETATM   20  C11 UNL     1      25.424  -0.192  53.161  1.00  0.00    -0.009 A 
HETATM   21  C12 UNL     1      26.685  -0.513  52.877  1.00  0.00     0.076 A 
HETATM   22  C15 UNL     1      25.639   0.896  52.232  1.00  0.00     0.029 A 
HETATM   23  C14 UNL     1      26.883   0.575  51.955  1.00  0.00     0.053 A 
BRANCH  21  24
HETATM   24  O2  UNL     1      27.540  -1.546  53.312  1.00  0.00    -0.355 OA
HETATM   25  C13 UNL     1      28.939  -1.381  53.360  1.00  0.00     0.210 C 
ENDBRANCH  21  24
ENDBRANCH   1  14
TORSDOF 9
ENDMDL
MODEL 7
REMARK VINA RESULT:      -6.5      2.913      8.419
REMARK  9 active torsions:
REMARK  status: ('A' for Active; 'I' for Inactive)
REMARK    1  A    between atoms: C2_2  and  P1_3 
REMARK    2  A    between atoms: P1_3  and  C3_4 
REMARK    3  A    between atoms: P1_3  and  C16_21 
REMARK    4  A    between atoms: C5_6  and  C6_7 
REMARK    5  A    between atoms: C6_7  and  O1_8 
REMARK    6  A    between atoms: O1_8  and  C7_9 
REMARK    7  A    between atoms: C12_16  and  O2_17 
REMARK    8  A    between atoms: C16_21  and  O4_23 
REMARK    9  A    between atoms: O4_23  and  C17_24 
ROOT
HETATM    1  O1  UNL     1      24.826   2.568  50.722  1.00  0.00    -0.333 OA
ENDROOT
BRANCH   1   2
HETATM    2  C6  UNL     1      24.940   3.477  49.804  1.00  0.00     0.183 C 
BRANCH   2   3
HETATM    3  C5  UNL     1      26.358   3.775  49.336  1.00  0.00     0.025 A 
HETATM    4  C4  UNL     1      27.225   4.694  48.934  1.00  0.00     0.007 A 
HETATM    5  C3  UNL     1      25.990   5.367  49.197  1.00  0.00     0.112 A 
BRANCH   5   6
HETATM    6  P1  UNL     1      26.550   6.970  48.853  1.00  0.00    -0.038 P 
BRANCH   6   7
HETATM    7  C2  UNL     1      25.867   7.708  50.277  1.00  0.00    -0.024 C 
HETATM    8  C1  UNL     1      24.585   7.412  50.845  1.00  0.00     0.036 C 
ENDBRANCH   6   7
BRANCH   6   9
HETATM    9  C16 UNL     1      25.969   7.801  47.325  1.00  0.00     0.276 C 
HETATM   10  O3  UNL     1      26.592   8.736  46.759  1.00  0.00    -0.260 OA
BRANCH   9  11
HETATM   11  O4  UNL     1      24.783   7.412  46.723  1.00  0.00    -0.319 OA
BRANCH  11  12
HETATM   12  C17 UNL     1      23.522   7.567  47.313  1.00  0.00     0.174 C 
HETATM   13  C18 UNL     1      22.804   6.253  47.557  1.00  0.00     0.034 C 
ENDBRANCH  11  12
ENDBRANCH   9  11
ENDBRANCH   6   9
ENDBRANCH   5   6
ENDBRANCH   2   3
ENDBRANCH   1   2
BRANCH   1  14
HETATM   14  C7  UNL     1      24.715   1.683  51.616  1.00  0.00     0.176 C 
HETATM   15  N1  UNL     1      23.474   2.111  51.727  1.00  0.00    -0.218 NA
HETATM   16  C8  UNL     1      22.484   1.599  52.632  1.00  0.00     0.229 C 
HETATM   17  N2  UNL     1      22.290   0.476  53.295  1.00  0.00    -0.282 NA
HETATM   18  C9  UNL     1      23.057  -0.761  53.367  1.00  0.00     0.155 C 
HETATM   19  C10 UNL     1      24.320  -0.654  54.153  1.00  0.00     0.064 C 
HETATM   20  C11 UNL     1      25.468  -0.301  53.252  1.00  0.00    -0.009 A 
HETATM   21  C12 UNL     1      26.731  -0.588  52.942  1.00  0.00     0.076 A 
HETATM   22  C15 UNL     1      25.584   0.689  52.202  1.00  0.00     0.029 A 
HETATM   23  C14 UNL     1      26.830   0.401  51.901  1.00  0.00     0.053 A 
BRANCH  21  24
HETATM   24  O2  UNL     1      27.659  -1.525  53.442  1.00  0.00    -0.355 OA
HETATM   25  C13 UNL     1      29.046  -1.278  53.423  1.00  0.00     0.210 C 
ENDBRANCH  21  24
ENDBRANCH   1  14
TORSDOF 9
ENDMDL
MODEL 8
REMARK VINA RESULT:      -6.5      3.039      8.550
REMARK  9 active torsions:
REMARK  status: ('A' for Active; 'I' for Inactive)
REMARK    1  A    between atoms: C2_2  and  P1_3 
REMARK    2  A    between atoms: P1_3  and  C3_4 
REMARK    3  A    between atoms: P1_3  and  C16_21 
REMARK    4  A    between atoms: C5_6  and  C6_7 
REMARK    5  A    between atoms: C6_7  and  O1_8 
REMARK    6  A    between atoms: O1_8  and  C7_9 
REMARK    7  A    between atoms: C12_16  and  O2_17 
REMARK    8  A    between atoms: C16_21  and  O4_23 
REMARK    9  A    between atoms: O4_23  and  C17_24 
ROOT
HETATM    1  O1  UNL     1      25.466   3.079  51.073  1.00  0.00    -0.333 OA
ENDROOT
BRANCH   1   2
HETATM    2  C6  UNL     1      25.437   4.086  50.257  1.00  0.00     0.183 C 
BRANCH   2   3
HETATM    3  C5  UNL     1      26.647   4.236  49.343  1.00  0.00     0.025 A 
HETATM    4  C4  UNL     1      27.412   5.059  48.640  1.00  0.00     0.007 A 
HETATM    5  C3  UNL     1      26.393   5.853  49.253  1.00  0.00     0.112 A 
BRANCH   5   6
HETATM    6  P1  UNL     1      26.946   7.388  48.668  1.00  0.00    -0.038 P 
BRANCH   6   7
HETATM    7  C2  UNL     1      25.670   7.606  47.502  1.00  0.00    -0.024 C 
HETATM    8  C1  UNL     1      24.318   7.147  47.637  1.00  0.00     0.036 C 
ENDBRANCH   6   7
BRANCH   6   9
HETATM    9  C16 UNL     1      28.599   7.491  47.879  1.00  0.00     0.276 C 
HETATM   10  O3  UNL     1      28.782   7.437  46.636  1.00  0.00    -0.260 OA
BRANCH   9  11
HETATM   11  O4  UNL     1      29.738   7.637  48.656  1.00  0.00    -0.319 OA
BRANCH  11  12
HETATM   12  C17 UNL     1      30.805   6.729  48.653  1.00  0.00     0.174 C 
HETATM   13  C18 UNL     1      32.026   7.231  49.400  1.00  0.00     0.034 C 
ENDBRANCH  11  12
ENDBRANCH   9  11
ENDBRANCH   6   9
ENDBRANCH   5   6
ENDBRANCH   2   3
ENDBRANCH   1   2
BRANCH   1  14
HETATM   14  C7  UNL     1      25.494   2.098  51.869  1.00  0.00     0.176 C 
HETATM   15  N1  UNL     1      26.775   2.381  51.994  1.00  0.00    -0.218 NA
HETATM   16  C8  UNL     1      27.715   1.677  52.818  1.00  0.00     0.229 C 
HETATM   17  N2  UNL     1      27.655   0.895  53.878  1.00  0.00    -0.282 NA
HETATM   18  C9  UNL     1      26.533   0.412  54.673  1.00  0.00     0.155 C 
HETATM   19  C10 UNL     1      25.710  -0.634  54.000  1.00  0.00     0.064 C 
HETATM   20  C11 UNL     1      24.571  -0.003  53.252  1.00  0.00    -0.009 A 
HETATM   21  C12 UNL     1      23.265  -0.076  53.002  1.00  0.00     0.076 A 
HETATM   22  C15 UNL     1      24.532   1.144  52.370  1.00  0.00     0.029 A 
HETATM   23  C14 UNL     1      23.243   1.066  52.127  1.00  0.00     0.053 A 
BRANCH  21  24
HETATM   24  O2  UNL     1      22.247  -0.953  53.432  1.00  0.00    -0.355 OA
HETATM   25  C13 UNL     1      22.055  -1.257  54.794  1.00  0.00     0.210 C 
ENDBRANCH  21  24
ENDBRANCH   1  14
TORSDOF 9
ENDMDL
MODEL 9
REMARK VINA RESULT:      -6.3      2.814      8.168
REMARK  9 active torsions:
REMARK  status: ('A' for Active; 'I' for Inactive)
REMARK    1  A    between atoms: C2_2  and  P1_3 
REMARK    2  A    between atoms: P1_3  and  C3_4 
REMARK    3  A    between atoms: P1_3  and  C16_21 
REMARK    4  A    between atoms: C5_6  and  C6_7 
REMARK    5  A    between atoms: C6_7  and  O1_8 
REMARK    6  A    between atoms: O1_8  and  C7_9 
REMARK    7  A    between atoms: C12_16  and  O2_17 
REMARK    8  A    between atoms: C16_21  and  O4_23 
REMARK    9  A    between atoms: O4_23  and  C17_24 
ROOT
HETATM    1  O1  UNL     1      23.359   2.815  51.230  1.00  0.00    -0.333 OA
ENDROOT
BRANCH   1   2
HETATM    2  C6  UNL     1      23.408   3.829  50.422  1.00  0.00     0.183 C 
BRANCH   2   3
HETATM    3  C5  UNL     1      24.716   4.010  49.663  1.00  0.00     0.025 A 
HETATM    4  C4  UNL     1      25.678   4.843  49.290  1.00  0.00     0.007 A 
HETATM    5  C3  UNL     1      24.744   5.599  50.067  1.00  0.00     0.112 A 
BRANCH   5   6
HETATM    6  P1  UNL     1      25.603   7.104  50.018  1.00  0.00    -0.038 P 
BRANCH   6   7
HETATM    7  C2  UNL     1      24.197   8.118  50.201  1.00  0.00    -0.024 C 
HETATM    8  C1  UNL     1      22.854   7.664  50.414  1.00  0.00     0.036 C 
ENDBRANCH   6   7
BRANCH   6   9
HETATM    9  C16 UNL     1      26.546   7.535  48.505  1.00  0.00     0.276 C 
HETATM   10  O3  UNL     1      26.022   7.662  47.369  1.00  0.00    -0.260 OA
BRANCH   9  11
HETATM   11  O4  UNL     1      27.915   7.744  48.569  1.00  0.00    -0.319 OA
BRANCH  11  12
HETATM   12  C17 UNL     1      28.853   6.989  47.851  1.00  0.00     0.174 C 
HETATM   13  C18 UNL     1      28.892   5.529  48.263  1.00  0.00     0.034 C 
ENDBRANCH  11  12
ENDBRANCH   9  11
ENDBRANCH   6   9
ENDBRANCH   5   6
ENDBRANCH   2   3
ENDBRANCH   1   2
BRANCH   1  14
HETATM   14  C7  UNL     1      23.310   1.829  52.017  1.00  0.00     0.176 C 
HETATM   15  N1  UNL     1      22.025   2.106  52.104  1.00  0.00    -0.218 NA
HETATM   16  C8  UNL     1      21.061   1.391  52.892  1.00  0.00     0.229 C 
HETATM   17  N2  UNL     1      20.967   0.187  53.420  1.00  0.00    -0.282 NA
HETATM   18  C9  UNL     1      21.866  -0.960  53.403  1.00  0.00     0.155 C 
HETATM   19  C10 UNL     1      23.073  -0.806  54.265  1.00  0.00     0.064 C 
HETATM   20  C11 UNL     1      24.212  -0.231  53.473  1.00  0.00    -0.009 A 
HETATM   21  C12 UNL     1      25.512  -0.344  53.204  1.00  0.00     0.076 A 
HETATM   22  C15 UNL     1      24.260   0.876  52.542  1.00  0.00     0.029 A 
HETATM   23  C14 UNL     1      25.543   0.760  52.282  1.00  0.00     0.053 A 
BRANCH  21  24
HETATM   24  O2  UNL     1      26.518  -1.224  53.653  1.00  0.00    -0.355 OA
HETATM   25  C13 UNL     1      27.807  -1.231  53.084  1.00  0.00     0.210 C 
ENDBRANCH  21  24
ENDBRANCH   1  14
TORSDOF 9
ENDMDL
