MODEL 1
REMARK VINA RESULT:      -7.8      0.000      0.000
REMARK  8 active torsions:
REMARK  status: ('A' for Active; 'I' for Inactive)
REMARK    1  A    between atoms: C2_2  and  N1_3 
REMARK    2  A    between atoms: N1_3  and  C3_4 
REMARK    3  A    between atoms: C5_7  and  N3_8 
REMARK    4  A    between atoms: N3_8  and  C6_9 
REMARK    5  A    between atoms: C14_19  and  N6_20 
REMARK    6  A    between atoms: N6_20  and  C15_21 
REMARK    7  A    between atoms: C15_21  and  C16_22 
REMARK    8  A    between atoms: C16_22  and  N7_23 
ROOT
HETATM    1  C6  UNL     1      25.678   4.267  49.628  1.00  0.00     0.033 A 
HETATM    2  C7  UNL     1      24.898   5.381  49.342  1.00  0.00     0.029 A 
HETATM    3  C8  UNL     1      25.465   6.461  48.693  1.00  0.00     0.004 A 
HETATM    4  C9  UNL     1      26.796   6.491  48.307  1.00  0.00     0.023 A 
HETATM    5  C10 UNL     1      27.499   5.351  48.625  1.00  0.00     0.046 A 
HETATM    6  C11 UNL     1      28.903   5.304  48.253  1.00  0.00     0.099 C 
HETATM    7  N4  UNL     1      30.029   5.256  47.952  1.00  0.00    -0.191 NA
HETATM    8  C12 UNL     1      27.031   4.229  49.266  1.00  0.00     0.052 A 
ENDROOT
BRANCH   1   9
HETATM    9  N3  UNL     1      25.165   3.134  50.288  1.00  0.00    -0.357 N 
HETATM   10  H8  UNL     1      24.474   2.804  49.601  1.00  0.00     0.166 HD
BRANCH   9  11
HETATM   11  C5  UNL     1      25.430   2.517  51.534  1.00  0.00     0.048 C 
HETATM   12  C4  UNL     1      26.447   1.694  51.579  1.00  0.00     0.145 C 
HETATM   13  N2  UNL     1      27.142   0.838  52.490  1.00  0.00    -0.240 NA
HETATM   14  C3  UNL     1      26.442   0.074  53.307  1.00  0.00     0.141 C 
HETATM   15  C17 UNL     1      24.980  -0.125  53.553  1.00  0.00     0.186 C 
HETATM   16  N8  UNL     1      24.582   0.687  52.704  1.00  0.00    -0.072 NA
HETATM   17  C14 UNL     1      23.276   1.027  52.384  1.00  0.00     0.717 C 
HETATM   18  N5  UNL     1      23.172   2.372  52.338  1.00  0.00    -0.100 NA
HETATM   19  C13 UNL     1      24.508   2.973  52.646  1.00  0.00     0.227 C 
BRANCH  14  20
HETATM   20  N1  UNL     1      27.414  -0.666  54.086  1.00  0.00    -0.374 N 
HETATM   21  H6  UNL     1      27.143  -1.607  54.512  1.00  0.00     0.161 HD
BRANCH  20  22
HETATM   22  C2  UNL     1      28.791  -0.227  54.348  1.00  0.00     0.116 C 
HETATM   23  C1  UNL     1      29.808  -1.079  53.638  1.00  0.00     0.026 C 
ENDBRANCH  20  22
ENDBRANCH  14  20
BRANCH  17  24
HETATM   24  N6  UNL     1      22.135   0.250  52.124  1.00  0.00    -0.221 N 
HETATM   25  H15 UNL     1      22.330  -0.398  51.300  1.00  0.00     0.177 HD
BRANCH  24  26
HETATM   26  C15 UNL     1      20.967   0.445  52.962  1.00  0.00     0.168 C 
BRANCH  26  27
HETATM   27  C16 UNL     1      21.210   0.036  54.392  1.00  0.00     0.286 C 
BRANCH  27  28
HETATM   28  N7  UNL     1      20.812  -1.347  54.571  1.00  0.00     0.079 N 
HETATM   29  H20 UNL     1      21.125  -1.737  55.483  1.00  0.00     0.312 HD
HETATM   30  H21 UNL     1      21.222  -1.960  53.832  1.00  0.00     0.312 HD
ENDBRANCH  27  28
ENDBRANCH  26  27
ENDBRANCH  24  26
ENDBRANCH  17  24
ENDBRANCH   9  11
ENDBRANCH   1   9
TORSDOF 8
ENDMDL
MODEL 2
REMARK VINA RESULT:      -7.6      1.295      1.903
REMARK  8 active torsions:
REMARK  status: ('A' for Active; 'I' for Inactive)
REMARK    1  A    between atoms: C2_2  and  N1_3 
REMARK    2  A    between atoms: N1_3  and  C3_4 
REMARK    3  A    between atoms: C5_7  and  N3_8 
REMARK    4  A    between atoms: N3_8  and  C6_9 
REMARK    5  A    between atoms: C14_19  and  N6_20 
REMARK    6  A    between atoms: N6_20  and  C15_21 
REMARK    7  A    between atoms: C15_21  and  C16_22 
REMARK    8  A    between atoms: C16_22  and  N7_23 
ROOT
HETATM    1  C6  UNL     1      25.805   4.244  49.987  1.00  0.00     0.033 A 
HETATM    2  C7  UNL     1      26.974   4.039  49.264  1.00  0.00     0.029 A 
HETATM    3  C8  UNL     1      27.534   5.089  48.562  1.00  0.00     0.004 A 
HETATM    4  C9  UNL     1      26.977   6.359  48.541  1.00  0.00     0.023 A 
HETATM    5  C10 UNL     1      25.822   6.479  49.280  1.00  0.00     0.046 A 
HETATM    6  C11 UNL     1      25.178   7.781  49.309  1.00  0.00     0.099 C 
HETATM    7  N4  UNL     1      24.657   8.825  49.341  1.00  0.00    -0.191 NA
HETATM    8  C12 UNL     1      25.189   5.502  50.009  1.00  0.00     0.052 A 
ENDROOT
BRANCH   1   9
HETATM    9  N3  UNL     1      25.182   3.218  50.722  1.00  0.00    -0.357 N 
HETATM   10  H8  UNL     1      24.360   3.025  50.133  1.00  0.00     0.166 HD
BRANCH   9  11
HETATM   11  C5  UNL     1      25.485   2.552  51.934  1.00  0.00     0.048 C 
HETATM   12  C4  UNL     1      26.536   1.770  51.929  1.00  0.00     0.145 C 
HETATM   13  N2  UNL     1      27.275   0.900  52.790  1.00  0.00    -0.240 NA
HETATM   14  C3  UNL     1      26.616   0.069  53.575  1.00  0.00     0.141 C 
HETATM   15  C17 UNL     1      25.165  -0.202  53.824  1.00  0.00     0.186 C 
HETATM   16  N8  UNL     1      24.725   0.634  53.020  1.00  0.00    -0.072 NA
HETATM   17  C14 UNL     1      23.403   0.936  52.729  1.00  0.00     0.717 C 
HETATM   18  N5  UNL     1      23.244   2.276  52.751  1.00  0.00    -0.100 NA
HETATM   19  C13 UNL     1      24.558   2.915  53.076  1.00  0.00     0.227 C 
BRANCH  14  20
HETATM   20  N1  UNL     1      27.625  -0.668  54.308  1.00  0.00    -0.374 N 
HETATM   21  H6  UNL     1      27.366  -1.587  54.784  1.00  0.00     0.161 HD
BRANCH  20  22
HETATM   22  C2  UNL     1      29.027  -0.253  54.454  1.00  0.00     0.116 C 
HETATM   23  C1  UNL     1      29.970  -1.141  53.687  1.00  0.00     0.026 C 
ENDBRANCH  20  22
ENDBRANCH  14  20
BRANCH  17  24
HETATM   24  N6  UNL     1      22.292   0.126  52.442  1.00  0.00    -0.221 N 
HETATM   25  H15 UNL     1      22.505  -0.476  51.588  1.00  0.00     0.177 HD
BRANCH  24  26
HETATM   26  C15 UNL     1      21.125   0.235  53.296  1.00  0.00     0.168 C 
BRANCH  26  27
HETATM   27  C16 UNL     1      21.347  -0.376  54.656  1.00  0.00     0.286 C 
BRANCH  27  28
HETATM   28  N7  UNL     1      21.699  -1.776  54.502  1.00  0.00     0.079 N 
HETATM   29  H20 UNL     1      22.674  -1.906  54.166  1.00  0.00     0.312 HD
HETATM   30  H21 UNL     1      21.081  -2.249  53.805  1.00  0.00     0.312 HD
ENDBRANCH  27  28
ENDBRANCH  26  27
ENDBRANCH  24  26
ENDBRANCH  17  24
ENDBRANCH   9  11
ENDBRANCH   1   9
TORSDOF 8
ENDMDL
MODEL 3
REMARK VINA RESULT:      -7.2      2.748      6.840
REMARK  8 active torsions:
REMARK  status: ('A' for Active; 'I' for Inactive)
REMARK    1  A    between atoms: C2_2  and  N1_3 
REMARK    2  A    between atoms: N1_3  and  C3_4 
REMARK    3  A    between atoms: C5_7  and  N3_8 
REMARK    4  A    between atoms: N3_8  and  C6_9 
REMARK    5  A    between atoms: C14_19  and  N6_20 
REMARK    6  A    between atoms: N6_20  and  C15_21 
REMARK    7  A    between atoms: C15_21  and  C16_22 
REMARK    8  A    between atoms: C16_22  and  N7_23 
ROOT
HETATM    1  C6  UNL     1      26.354   0.948  52.142  1.00  0.00     0.033 A 
HETATM    2  C7  UNL     1      26.451  -0.436  52.070  1.00  0.00     0.029 A 
HETATM    3  C8  UNL     1      27.445  -1.088  52.776  1.00  0.00     0.004 A 
HETATM    4  C9  UNL     1      28.366  -0.417  53.565  1.00  0.00     0.023 A 
HETATM    5  C10 UNL     1      28.202   0.950  53.583  1.00  0.00     0.046 A 
HETATM    6  C11 UNL     1      29.130   1.726  54.389  1.00  0.00     0.099 C 
HETATM    7  N4  UNL     1      29.868   2.355  55.038  1.00  0.00    -0.191 NA
HETATM    8  C12 UNL     1      27.252   1.689  52.920  1.00  0.00     0.052 A 
ENDROOT
BRANCH   1   9
HETATM    9  N3  UNL     1      25.367   1.673  51.447  1.00  0.00    -0.357 N 
HETATM   10  H8  UNL     1      25.912   2.039  50.655  1.00  0.00     0.166 HD
BRANCH   9  11
HETATM   11  C5  UNL     1      23.989   1.915  51.663  1.00  0.00     0.048 C 
HETATM   12  C4  UNL     1      23.189   1.713  50.646  1.00  0.00     0.145 C 
HETATM   13  N2  UNL     1      21.806   1.790  50.289  1.00  0.00    -0.240 NA
HETATM   14  C3  UNL     1      21.104   2.836  50.680  1.00  0.00     0.141 C 
HETATM   15  C17 UNL     1      21.415   4.059  51.486  1.00  0.00     0.186 C 
HETATM   16  N8  UNL     1      22.608   3.793  51.693  1.00  0.00    -0.072 NA
HETATM   17  C14 UNL     1      23.541   4.526  52.410  1.00  0.00     0.717 C 
HETATM   18  N5  UNL     1      24.193   3.700  53.255  1.00  0.00    -0.100 NA
HETATM   19  C13 UNL     1      23.657   2.312  53.087  1.00  0.00     0.227 C 
BRANCH  14  20
HETATM   20  N1  UNL     1      19.765   2.628  50.169  1.00  0.00    -0.374 N 
HETATM   21  H6  UNL     1      19.091   3.453  50.103  1.00  0.00     0.161 HD
BRANCH  20  22
HETATM   22  C2  UNL     1      19.233   1.339  49.709  1.00  0.00     0.116 C 
HETATM   23  C1  UNL     1      18.428   0.640  50.772  1.00  0.00     0.026 C 
ENDBRANCH  20  22
ENDBRANCH  14  20
BRANCH  17  24
HETATM   24  N6  UNL     1      23.884   5.888  52.396  1.00  0.00    -0.221 N 
HETATM   25  H15 UNL     1      24.089   6.211  53.391  1.00  0.00     0.177 HD
BRANCH  24  26
HETATM   26  C15 UNL     1      23.903   6.577  51.119  1.00  0.00     0.168 C 
BRANCH  26  27
HETATM   27  C16 UNL     1      25.210   6.400  50.388  1.00  0.00     0.286 C 
BRANCH  27  28
HETATM   28  N7  UNL     1      26.114   7.475  50.753  1.00  0.00     0.079 N 
HETATM   29  H20 UNL     1      26.826   7.176  51.449  1.00  0.00     0.312 HD
HETATM   30  H21 UNL     1      25.599   8.276  51.182  1.00  0.00     0.312 HD
ENDBRANCH  27  28
ENDBRANCH  26  27
ENDBRANCH  24  26
ENDBRANCH  17  24
ENDBRANCH   9  11
ENDBRANCH   1   9
TORSDOF 8
ENDMDL
MODEL 4
REMARK VINA RESULT:      -7.2      3.467      6.217
REMARK  8 active torsions:
REMARK  status: ('A' for Active; 'I' for Inactive)
REMARK    1  A    between atoms: C2_2  and  N1_3 
REMARK    2  A    between atoms: N1_3  and  C3_4 
REMARK    3  A    between atoms: C5_7  and  N3_8 
REMARK    4  A    between atoms: N3_8  and  C6_9 
REMARK    5  A    between atoms: C14_19  and  N6_20 
REMARK    6  A    between atoms: N6_20  and  C15_21 
REMARK    7  A    between atoms: C15_21  and  C16_22 
REMARK    8  A    between atoms: C16_22  and  N7_23 
ROOT
HETATM    1  C6  UNL     1      25.643   0.601  53.241  1.00  0.00     0.033 A 
HETATM    2  C7  UNL     1      25.926  -0.672  52.759  1.00  0.00     0.029 A 
HETATM    3  C8  UNL     1      27.217  -1.159  52.835  1.00  0.00     0.004 A 
HETATM    4  C9  UNL     1      28.263  -0.428  53.377  1.00  0.00     0.023 A 
HETATM    5  C10 UNL     1      27.901   0.819  53.832  1.00  0.00     0.046 A 
HETATM    6  C11 UNL     1      28.943   1.647  54.416  1.00  0.00     0.099 C 
HETATM    7  N4  UNL     1      29.773   2.316  54.891  1.00  0.00    -0.191 NA
HETATM    8  C12 UNL     1      26.653   1.393  53.802  1.00  0.00     0.052 A 
ENDROOT
BRANCH   1   9
HETATM    9  N3  UNL     1      24.351   1.158  53.193  1.00  0.00    -0.357 N 
HETATM   10  H8  UNL     1      23.891   0.655  53.963  1.00  0.00     0.166 HD
BRANCH   9  11
HETATM   11  C5  UNL     1      23.729   2.131  52.375  1.00  0.00     0.048 C 
HETATM   12  C4  UNL     1      23.810   3.375  52.774  1.00  0.00     0.145 C 
HETATM   13  N2  UNL     1      23.402   4.692  52.393  1.00  0.00    -0.240 NA
HETATM   14  C3  UNL     1      22.173   4.876  51.953  1.00  0.00     0.141 C 
HETATM   15  C17 UNL     1      21.003   3.973  51.716  1.00  0.00     0.186 C 
HETATM   16  N8  UNL     1      21.557   2.925  52.083  1.00  0.00    -0.072 NA
HETATM   17  C14 UNL     1      21.032   1.642  52.122  1.00  0.00     0.717 C 
HETATM   18  N5  UNL     1      21.913   0.790  51.557  1.00  0.00    -0.100 NA
HETATM   19  C13 UNL     1      23.116   1.561  51.112  1.00  0.00     0.227 C 
BRANCH  14  20
HETATM   20  N1  UNL     1      22.065   6.290  51.658  1.00  0.00    -0.374 N 
HETATM   21  H6  UNL     1      22.536   7.001  52.300  1.00  0.00     0.161 HD
BRANCH  20  22
HETATM   22  C2  UNL     1      21.345   6.855  50.508  1.00  0.00     0.116 C 
HETATM   23  C1  UNL     1      22.070   8.024  49.897  1.00  0.00     0.026 C 
ENDBRANCH  20  22
ENDBRANCH  14  20
BRANCH  17  24
HETATM   24  N6  UNL     1      19.820   1.133  52.617  1.00  0.00    -0.221 N 
HETATM   25  H15 UNL     1      19.046   1.851  52.463  1.00  0.00     0.177 HD
BRANCH  24  26
HETATM   26  C15 UNL     1      19.824  -0.190  53.211  1.00  0.00     0.168 C 
BRANCH  26  27
HETATM   27  C16 UNL     1      18.500  -0.895  53.058  1.00  0.00     0.286 C 
BRANCH  27  28
HETATM   28  N7  UNL     1      18.445  -2.019  53.974  1.00  0.00     0.079 N 
HETATM   29  H20 UNL     1      17.470  -2.303  54.196  1.00  0.00     0.312 HD
HETATM   30  H21 UNL     1      18.900  -1.789  54.885  1.00  0.00     0.312 HD
ENDBRANCH  27  28
ENDBRANCH  26  27
ENDBRANCH  24  26
ENDBRANCH  17  24
ENDBRANCH   9  11
ENDBRANCH   1   9
TORSDOF 8
ENDMDL
MODEL 5
REMARK VINA RESULT:      -7.0      1.889      4.620
REMARK  8 active torsions:
REMARK  status: ('A' for Active; 'I' for Inactive)
REMARK    1  A    between atoms: C2_2  and  N1_3 
REMARK    2  A    between atoms: N1_3  and  C3_4 
REMARK    3  A    between atoms: C5_7  and  N3_8 
REMARK    4  A    between atoms: N3_8  and  C6_9 
REMARK    5  A    between atoms: C14_19  and  N6_20 
REMARK    6  A    between atoms: N6_20  and  C15_21 
REMARK    7  A    between atoms: C15_21  and  C16_22 
REMARK    8  A    between atoms: C16_22  and  N7_23 
ROOT
HETATM    1  C6  UNL     1      25.881   5.182  50.099  1.00  0.00     0.033 A 
HETATM    2  C7  UNL     1      26.801   4.661  49.197  1.00  0.00     0.029 A 
HETATM    3  C8  UNL     1      27.527   5.519  48.392  1.00  0.00     0.004 A 
HETATM    4  C9  UNL     1      27.380   6.896  48.439  1.00  0.00     0.023 A 
HETATM    5  C10 UNL     1      26.450   7.332  49.356  1.00  0.00     0.046 A 
HETATM    6  C11 UNL     1      26.238   8.765  49.466  1.00  0.00     0.099 C 
HETATM    7  N4  UNL     1      26.066   9.915  49.564  1.00  0.00    -0.191 NA
HETATM    8  C12 UNL     1      25.681   6.565  50.199  1.00  0.00     0.052 A 
ENDROOT
BRANCH   1   9
HETATM    9  N3  UNL     1      25.108   4.366  50.946  1.00  0.00    -0.357 N 
HETATM   10  H8  UNL     1      24.524   5.070  51.418  1.00  0.00     0.166 HD
BRANCH   9  11
HETATM   11  C5  UNL     1      25.049   2.972  51.184  1.00  0.00     0.048 C 
HETATM   12  C4  UNL     1      23.918   2.500  51.646  1.00  0.00     0.145 C 
HETATM   13  N2  UNL     1      23.312   1.270  52.052  1.00  0.00    -0.240 NA
HETATM   14  C3  UNL     1      24.007   0.432  52.797  1.00  0.00     0.141 C 
HETATM   15  C17 UNL     1      25.395   0.439  53.357  1.00  0.00     0.186 C 
HETATM   16  N8  UNL     1      25.730   1.539  52.893  1.00  0.00    -0.072 NA
HETATM   17  C14 UNL     1      26.945   2.195  53.023  1.00  0.00     0.717 C 
HETATM   18  N5  UNL     1      27.342   2.627  51.807  1.00  0.00    -0.100 NA
HETATM   19  C13 UNL     1      26.314   2.234  50.793  1.00  0.00     0.227 C 
BRANCH  14  20
HETATM   20  N1  UNL     1      23.134  -0.697  53.042  1.00  0.00    -0.374 N 
HETATM   21  H6  UNL     1      22.988  -1.428  52.278  1.00  0.00     0.161 HD
BRANCH  20  22
HETATM   22  C2  UNL     1      22.410  -0.942  54.297  1.00  0.00     0.116 C 
HETATM   23  C1  UNL     1      20.929  -1.099  54.081  1.00  0.00     0.026 C 
ENDBRANCH  20  22
ENDBRANCH  14  20
BRANCH  17  24
HETATM   24  N6  UNL     1      27.763   2.455  54.134  1.00  0.00    -0.221 N 
HETATM   25  H15 UNL     1      27.208   3.002  54.861  1.00  0.00     0.177 HD
BRANCH  24  26
HETATM   26  C15 UNL     1      29.129   1.966  54.110  1.00  0.00     0.168 C 
BRANCH  26  27
HETATM   27  C16 UNL     1      29.203   0.469  53.951  1.00  0.00     0.286 C 
BRANCH  27  28
HETATM   28  N7  UNL     1      28.452  -0.165  55.018  1.00  0.00     0.079 N 
HETATM   29  H20 UNL     1      27.587  -0.629  54.674  1.00  0.00     0.312 HD
HETATM   30  H21 UNL     1      28.148   0.531  55.735  1.00  0.00     0.312 HD
ENDBRANCH  27  28
ENDBRANCH  26  27
ENDBRANCH  24  26
ENDBRANCH  17  24
ENDBRANCH   9  11
ENDBRANCH   1   9
TORSDOF 8
ENDMDL
MODEL 6
REMARK VINA RESULT:      -6.9      2.188      4.887
REMARK  8 active torsions:
REMARK  status: ('A' for Active; 'I' for Inactive)
REMARK    1  A    between atoms: C2_2  and  N1_3 
REMARK    2  A    between atoms: N1_3  and  C3_4 
REMARK    3  A    between atoms: C5_7  and  N3_8 
REMARK    4  A    between atoms: N3_8  and  C6_9 
REMARK    5  A    between atoms: C14_19  and  N6_20 
REMARK    6  A    between atoms: N6_20  and  C15_21 
REMARK    7  A    between atoms: C15_21  and  C16_22 
REMARK    8  A    between atoms: C16_22  and  N7_23 
ROOT
HETATM    1  C6  UNL     1      24.812   5.992  50.155  1.00  0.00     0.033 A 
HETATM    2  C7  UNL     1      24.740   7.230  50.782  1.00  0.00     0.029 A 
HETATM    3  C8  UNL     1      24.098   8.278  50.151  1.00  0.00     0.004 A 
HETATM    4  C9  UNL     1      23.513   8.154  48.900  1.00  0.00     0.023 A 
HETATM    5  C10 UNL     1      23.627   6.899  48.347  1.00  0.00     0.046 A 
HETATM    6  C11 UNL     1      23.037   6.688  47.036  1.00  0.00     0.099 C 
HETATM    7  N4  UNL     1      22.562   6.510  45.985  1.00  0.00    -0.191 NA
HETATM    8  C12 UNL     1      24.242   5.797  48.891  1.00  0.00     0.052 A 
ENDROOT
BRANCH   1   9
HETATM    9  N3  UNL     1      25.452   4.884  50.741  1.00  0.00    -0.357 N 
HETATM   10  H8  UNL     1      26.396   5.261  50.896  1.00  0.00     0.166 HD
BRANCH   9  11
HETATM   11  C5  UNL     1      25.038   3.572  51.077  1.00  0.00     0.048 C 
HETATM   12  C4  UNL     1      23.874   3.454  51.664  1.00  0.00     0.145 C 
HETATM   13  N2  UNL     1      22.998   2.459  52.203  1.00  0.00    -0.240 NA
HETATM   14  C3  UNL     1      23.509   1.492  52.940  1.00  0.00     0.141 C 
HETATM   15  C17 UNL     1      24.895   1.135  53.378  1.00  0.00     0.186 C 
HETATM   16  N8  UNL     1      25.469   2.078  52.813  1.00  0.00    -0.072 NA
HETATM   17  C14 UNL     1      26.824   2.373  52.794  1.00  0.00     0.717 C 
HETATM   18  N5  UNL     1      27.200   2.628  51.523  1.00  0.00    -0.100 NA
HETATM   19  C13 UNL     1      26.006   2.496  50.629  1.00  0.00     0.227 C 
BRANCH  14  20
HETATM   20  N1  UNL     1      22.390   0.661  53.334  1.00  0.00    -0.374 N 
HETATM   21  H6  UNL     1      21.605   1.078  53.925  1.00  0.00     0.161 HD
BRANCH  20  22
HETATM   22  C2  UNL     1      22.228  -0.754  52.976  1.00  0.00     0.116 C 
HETATM   23  C1  UNL     1      21.678  -1.573  54.112  1.00  0.00     0.026 C 
ENDBRANCH  20  22
ENDBRANCH  14  20
BRANCH  17  24
HETATM   24  N6  UNL     1      27.790   2.440  53.812  1.00  0.00    -0.221 N 
HETATM   25  H15 UNL     1      27.529   3.216  54.495  1.00  0.00     0.177 HD
BRANCH  24  26
HETATM   26  C15 UNL     1      28.899   1.507  53.767  1.00  0.00     0.168 C 
BRANCH  26  27
HETATM   27  C16 UNL     1      28.834   0.480  54.869  1.00  0.00     0.286 C 
BRANCH  27  28
HETATM   28  N7  UNL     1      27.812  -0.500  54.553  1.00  0.00     0.079 N 
HETATM   29  H20 UNL     1      27.208  -0.722  55.369  1.00  0.00     0.312 HD
HETATM   30  H21 UNL     1      28.234  -1.404  54.244  1.00  0.00     0.312 HD
ENDBRANCH  27  28
ENDBRANCH  26  27
ENDBRANCH  24  26
ENDBRANCH  17  24
ENDBRANCH   9  11
ENDBRANCH   1   9
TORSDOF 8
ENDMDL
MODEL 7
REMARK VINA RESULT:      -6.8      3.018      6.779
REMARK  8 active torsions:
REMARK  status: ('A' for Active; 'I' for Inactive)
REMARK    1  A    between atoms: C2_2  and  N1_3 
REMARK    2  A    between atoms: N1_3  and  C3_4 
REMARK    3  A    between atoms: C5_7  and  N3_8 
REMARK    4  A    between atoms: N3_8  and  C6_9 
REMARK    5  A    between atoms: C14_19  and  N6_20 
REMARK    6  A    between atoms: N6_20  and  C15_21 
REMARK    7  A    between atoms: C15_21  and  C16_22 
REMARK    8  A    between atoms: C16_22  and  N7_23 
ROOT
HETATM    1  C6  UNL     1      24.781   0.907  52.155  1.00  0.00     0.033 A 
HETATM    2  C7  UNL     1      26.065   0.894  52.687  1.00  0.00     0.029 A 
HETATM    3  C8  UNL     1      26.304   0.228  53.874  1.00  0.00     0.004 A 
HETATM    4  C9  UNL     1      25.311  -0.440  54.573  1.00  0.00     0.023 A 
HETATM    5  C10 UNL     1      24.069  -0.380  53.980  1.00  0.00     0.046 A 
HETATM    6  C11 UNL     1      22.973  -1.057  54.652  1.00  0.00     0.099 C 
HETATM    7  N4  UNL     1      22.089  -1.603  55.183  1.00  0.00    -0.191 NA
HETATM    8  C12 UNL     1      23.729   0.253  52.809  1.00  0.00     0.052 A 
ENDROOT
BRANCH   1   9
HETATM    9  N3  UNL     1      24.469   1.567  50.952  1.00  0.00    -0.357 N 
HETATM   10  H8  UNL     1      24.823   0.894  50.260  1.00  0.00     0.166 HD
BRANCH   9  11
HETATM   11  C5  UNL     1      23.850   2.802  50.639  1.00  0.00     0.048 C 
HETATM   12  C4  UNL     1      24.370   3.875  51.180  1.00  0.00     0.145 C 
HETATM   13  N2  UNL     1      24.186   5.293  51.231  1.00  0.00    -0.240 NA
HETATM   14  C3  UNL     1      22.964   5.772  51.367  1.00  0.00     0.141 C 
HETATM   15  C17 UNL     1      21.606   5.152  51.473  1.00  0.00     0.186 C 
HETATM   16  N8  UNL     1      21.982   3.973  51.396  1.00  0.00    -0.072 NA
HETATM   17  C14 UNL     1      21.211   2.820  51.422  1.00  0.00     0.717 C 
HETATM   18  N5  UNL     1      21.594   2.014  50.410  1.00  0.00    -0.100 NA
HETATM   19  C13 UNL     1      22.704   2.675  49.656  1.00  0.00     0.227 C 
BRANCH  14  20
HETATM   20  N1  UNL     1      23.105   7.213  51.390  1.00  0.00    -0.374 N 
HETATM   21  H6  UNL     1      22.551   7.787  52.101  1.00  0.00     0.161 HD
BRANCH  20  22
HETATM   22  C2  UNL     1      23.977   7.986  50.496  1.00  0.00     0.116 C 
HETATM   23  C1  UNL     1      23.225   8.582  49.337  1.00  0.00     0.026 C 
ENDBRANCH  20  22
ENDBRANCH  14  20
BRANCH  17  24
HETATM   24  N6  UNL     1      20.174   2.397  52.271  1.00  0.00    -0.221 N 
HETATM   25  H15 UNL     1      19.314   3.005  52.106  1.00  0.00     0.177 HD
BRANCH  24  26
HETATM   26  C15 UNL     1      20.430   1.282  53.162  1.00  0.00     0.168 C 
BRANCH  26  27
HETATM   27  C16 UNL     1      19.760   0.012  52.703  1.00  0.00     0.286 C 
BRANCH  27  28
HETATM   28  N7  UNL     1      19.374  -0.773  53.861  1.00  0.00     0.079 N 
HETATM   29  H20 UNL     1      18.871  -0.208  54.575  1.00  0.00     0.312 HD
HETATM   30  H21 UNL     1      20.209  -1.179  54.340  1.00  0.00     0.312 HD
ENDBRANCH  27  28
ENDBRANCH  26  27
ENDBRANCH  24  26
ENDBRANCH  17  24
ENDBRANCH   9  11
ENDBRANCH   1   9
TORSDOF 8
ENDMDL
MODEL 8
REMARK VINA RESULT:      -6.8      2.202      3.114
REMARK  8 active torsions:
REMARK  status: ('A' for Active; 'I' for Inactive)
REMARK    1  A    between atoms: C2_2  and  N1_3 
REMARK    2  A    between atoms: N1_3  and  C3_4 
REMARK    3  A    between atoms: C5_7  and  N3_8 
REMARK    4  A    between atoms: N3_8  and  C6_9 
REMARK    5  A    between atoms: C14_19  and  N6_20 
REMARK    6  A    between atoms: N6_20  and  C15_21 
REMARK    7  A    between atoms: C15_21  and  C16_22 
REMARK    8  A    between atoms: C16_22  and  N7_23 
ROOT
HETATM    1  C6  UNL     1      26.357   5.018  49.328  1.00  0.00     0.033 A 
HETATM    2  C7  UNL     1      27.547   4.784  48.649  1.00  0.00     0.029 A 
HETATM    3  C8  UNL     1      28.325   5.853  48.247  1.00  0.00     0.004 A 
HETATM    4  C9  UNL     1      27.972   7.171  48.492  1.00  0.00     0.023 A 
HETATM    5  C10 UNL     1      26.782   7.318  49.168  1.00  0.00     0.046 A 
HETATM    6  C11 UNL     1      26.342   8.671  49.464  1.00  0.00     0.099 C 
HETATM    7  N4  UNL     1      25.985   9.755  49.709  1.00  0.00    -0.191 NA
HETATM    8  C12 UNL     1      25.940   6.325  49.608  1.00  0.00     0.052 A 
ENDROOT
BRANCH   1   9
HETATM    9  N3  UNL     1      25.518   3.976  49.763  1.00  0.00    -0.357 N 
HETATM   10  H8  UNL     1      24.925   3.841  48.933  1.00  0.00     0.166 HD
BRANCH   9  11
HETATM   11  C5  UNL     1      25.409   3.237  50.966  1.00  0.00     0.048 C 
HETATM   12  C4  UNL     1      26.346   2.354  51.202  1.00  0.00     0.145 C 
HETATM   13  N2  UNL     1      26.735   1.382  52.176  1.00  0.00    -0.240 NA
HETATM   14  C3  UNL     1      25.813   0.593  52.692  1.00  0.00     0.141 C 
HETATM   15  C17 UNL     1      24.333   0.460  52.511  1.00  0.00     0.186 C 
HETATM   16  N8  UNL     1      24.211   1.365  51.672  1.00  0.00    -0.072 NA
HETATM   17  C14 UNL     1      23.056   1.809  51.047  1.00  0.00     0.717 C 
HETATM   18  N5  UNL     1      23.013   3.157  51.110  1.00  0.00    -0.100 NA
HETATM   19  C13 UNL     1      24.232   3.648  51.827  1.00  0.00     0.227 C 
BRANCH  14  20
HETATM   20  N1  UNL     1      26.507  -0.270  53.626  1.00  0.00    -0.374 N 
HETATM   21  H6  UNL     1      26.595  -1.313  53.417  1.00  0.00     0.161 HD
BRANCH  20  22
HETATM   22  C2  UNL     1      27.129   0.179  54.879  1.00  0.00     0.116 C 
HETATM   23  C1  UNL     1      28.632   0.116  54.826  1.00  0.00     0.026 C 
ENDBRANCH  20  22
ENDBRANCH  14  20
BRANCH  17  24
HETATM   24  N6  UNL     1      22.005   1.127  50.410  1.00  0.00    -0.221 N 
HETATM   25  H15 UNL     1      21.922   0.147  50.820  1.00  0.00     0.177 HD
BRANCH  24  26
HETATM   26  C15 UNL     1      21.262   1.824  49.378  1.00  0.00     0.168 C 
BRANCH  26  27
HETATM   27  C16 UNL     1      22.003   1.870  48.066  1.00  0.00     0.286 C 
BRANCH  27  28
HETATM   28  N7  UNL     1      22.533   3.205  47.861  1.00  0.00     0.079 N 
HETATM   29  H20 UNL     1      22.870   3.354  46.889  1.00  0.00     0.312 HD
HETATM   30  H21 UNL     1      23.347   3.392  48.488  1.00  0.00     0.312 HD
ENDBRANCH  27  28
ENDBRANCH  26  27
ENDBRANCH  24  26
ENDBRANCH  17  24
ENDBRANCH   9  11
ENDBRANCH   1   9
TORSDOF 8
ENDMDL
MODEL 9
REMARK VINA RESULT:      -6.7      4.520      9.438
REMARK  8 active torsions:
REMARK  status: ('A' for Active; 'I' for Inactive)
REMARK    1  A    between atoms: C2_2  and  N1_3 
REMARK    2  A    between atoms: N1_3  and  C3_4 
REMARK    3  A    between atoms: C5_7  and  N3_8 
REMARK    4  A    between atoms: N3_8  and  C6_9 
REMARK    5  A    between atoms: C14_19  and  N6_20 
REMARK    6  A    between atoms: N6_20  and  C15_21 
REMARK    7  A    between atoms: C15_21  and  C16_22 
REMARK    8  A    between atoms: C16_22  and  N7_23 
ROOT
HETATM    1  C6  UNL     1      27.323   6.765  48.507  1.00  0.00     0.033 A 
HETATM    2  C7  UNL     1      27.050   7.917  49.234  1.00  0.00     0.029 A 
HETATM    3  C8  UNL     1      26.045   7.904  50.182  1.00  0.00     0.004 A 
HETATM    4  C9  UNL     1      25.280   6.778  50.448  1.00  0.00     0.023 A 
HETATM    5  C10 UNL     1      25.612   5.680  49.687  1.00  0.00     0.046 A 
HETATM    6  C11 UNL     1      24.856   4.459  49.908  1.00  0.00     0.099 C 
HETATM    7  N4  UNL     1      24.256   3.473  50.083  1.00  0.00    -0.191 NA
HETATM    8  C12 UNL     1      26.589   5.591  48.725  1.00  0.00     0.052 A 
ENDROOT
BRANCH   1   9
HETATM    9  N3  UNL     1      28.331   6.710  47.527  1.00  0.00    -0.357 N 
HETATM   10  H8  UNL     1      27.768   6.663  46.667  1.00  0.00     0.166 HD
BRANCH   9  11
HETATM   11  C5  UNL     1      29.746   6.711  47.569  1.00  0.00     0.048 C 
HETATM   12  C4  UNL     1      30.318   5.709  48.189  1.00  0.00     0.145 C 
HETATM   13  N2  UNL     1      31.613   5.211  48.534  1.00  0.00    -0.240 NA
HETATM   14  C3  UNL     1      32.521   6.055  48.986  1.00  0.00     0.141 C 
HETATM   15  C17 UNL     1      32.542   7.531  49.233  1.00  0.00     0.186 C 
HETATM   16  N8  UNL     1      31.377   7.752  48.871  1.00  0.00    -0.072 NA
HETATM   17  C14 UNL     1      30.702   8.964  48.831  1.00  0.00     0.717 C 
HETATM   18  N5  UNL     1      30.092   9.086  47.634  1.00  0.00    -0.100 NA
HETATM   19  C13 UNL     1      30.376   7.865  46.816  1.00  0.00     0.227 C 
BRANCH  14  20
HETATM   20  N1  UNL     1      33.704   5.262  49.247  1.00  0.00    -0.374 N 
HETATM   21  H6  UNL     1      33.837   4.811  50.206  1.00  0.00     0.161 HD
BRANCH  20  22
HETATM   22  C2  UNL     1      34.775   5.006  48.274  1.00  0.00     0.116 C 
HETATM   23  C1  UNL     1      34.810   3.570  47.826  1.00  0.00     0.026 C 
ENDBRANCH  20  22
ENDBRANCH  14  20
BRANCH  17  24
HETATM   24  N6  UNL     1      30.570  10.001  49.769  1.00  0.00    -0.221 N 
HETATM   25  H15 UNL     1      31.028   9.708  50.686  1.00  0.00     0.177 HD
BRANCH  24  26
HETATM   26  C15 UNL     1      29.884  11.211  49.360  1.00  0.00     0.168 C 
BRANCH  26  27
HETATM   27  C16 UNL     1      30.838  12.312  48.973  1.00  0.00     0.286 C 
BRANCH  27  28
HETATM   28  N7  UNL     1      31.144  12.208  47.558  1.00  0.00     0.079 N 
HETATM   29  H20 UNL     1      30.514  11.545  47.063  1.00  0.00     0.312 HD
HETATM   30  H21 UNL     1      32.117  11.862  47.404  1.00  0.00     0.312 HD
ENDBRANCH  27  28
ENDBRANCH  26  27
ENDBRANCH  24  26
ENDBRANCH  17  24
ENDBRANCH   9  11
ENDBRANCH   1   9
TORSDOF 8
ENDMDL
