MODEL 1
REMARK VINA RESULT:      -9.1      0.000      0.000
REMARK  6 active torsions:
REMARK  status: ('A' for Active; 'I' for Inactive)
REMARK    1  A    between atoms: C1_2  and  C2_4 
REMARK    2  A    between atoms: C2_4  and  O1_7 
REMARK    3  A    between atoms: O1_7  and  C3_8 
REMARK    4  A    between atoms: C7_12  and  N1_13 
REMARK    5  A    between atoms: N1_13  and  C8_14 
REMARK    6  A    between atoms: C11_18  and  C12_19 
ROOT
HETATM    1  N1  UNL     1      23.866   3.423  52.522  1.00  0.00    -0.188 N 
HETATM    2  H5  UNL     1      23.606   4.118  53.295  1.00  0.00     0.184 HD
ENDROOT
BRANCH   1   3
HETATM    3  C7  UNL     1      24.469   2.249  53.044  1.00  0.00     0.052 A 
HETATM    4  C6  UNL     1      23.759   1.050  52.989  1.00  0.00     0.030 A 
HETATM    5  C5  UNL     1      24.280  -0.117  53.496  1.00  0.00     0.005 A 
HETATM    6  C4  UNL     1      25.561  -0.070  54.075  1.00  0.00     0.037 A 
HETATM    7  C3  UNL     1      26.270   1.128  54.130  1.00  0.00     0.077 A 
HETATM    8  C19 UNL     1      25.719   2.270  53.616  1.00  0.00     0.067 A 
BRANCH   7   9
HETATM    9  O1  UNL     1      27.461   0.852  54.743  1.00  0.00    -0.279 OA
BRANCH   9  10
HETATM   10  C2  UNL     1      28.718   0.917  54.160  1.00  0.00     0.418 C 
HETATM   11  F3  UNL     1      28.625   1.462  52.883  1.00  0.00    -0.169 F 
HETATM   12  F4  UNL     1      29.605   1.693  54.903  1.00  0.00    -0.169 F 
BRANCH  10  13
HETATM   13  C1  UNL     1      29.377  -0.451  54.070  1.00  0.00     0.455 C 
HETATM   14  F1  UNL     1      28.565  -1.397  53.486  1.00  0.00    -0.205 F 
HETATM   15  F2  UNL     1      30.597  -0.310  53.465  1.00  0.00    -0.205 F 
ENDBRANCH  10  13
ENDBRANCH   9  10
ENDBRANCH   7   9
ENDBRANCH   1   3
BRANCH   1  16
HETATM   16  C8  UNL     1      23.554   3.900  51.191  1.00  0.00     0.727 A 
HETATM   17  N2  UNL     1      22.417   3.905  50.484  1.00  0.00    -0.075 NA
HETATM   18  C9  UNL     1      22.438   4.453  49.230  1.00  0.00     0.139 A 
HETATM   19  C10 UNL     1      23.576   4.981  48.706  1.00  0.00     0.053 A 
HETATM   20  C11 UNL     1      24.723   4.968  49.433  1.00  0.00     0.089 A 
HETATM   21  N4  UNL     1      24.684   4.428  50.659  1.00  0.00    -0.062 NA
BRANCH  20  22
HETATM   22  C12 UNL     1      26.024   5.509  48.964  1.00  0.00     0.011 A 
HETATM   23  C13 UNL     1      27.130   4.686  48.896  1.00  0.00     0.044 A 
HETATM   24  C14 UNL     1      28.205   5.416  48.430  1.00  0.00     0.035 A 
HETATM   25  N3  UNL     1      27.768   6.668  48.214  1.00  0.00    -0.352 N 
HETATM   26  C18 UNL     1      29.640   5.320  48.084  1.00  0.00     0.027 A 
HETATM   27  C15 UNL     1      26.460   6.739  48.531  1.00  0.00     0.105 A 
HETATM   28  C16 UNL     1      28.851   7.476  47.726  1.00  0.00     0.156 A 
HETATM   29  C17 UNL     1      30.002   6.524  47.675  1.00  0.00    -0.005 A 
ENDBRANCH  20  22
ENDBRANCH   1  16
TORSDOF 6
ENDMDL
MODEL 2
REMARK VINA RESULT:      -8.9      3.777      6.957
REMARK  6 active torsions:
REMARK  status: ('A' for Active; 'I' for Inactive)
REMARK    1  A    between atoms: C1_2  and  C2_4 
REMARK    2  A    between atoms: C2_4  and  O1_7 
REMARK    3  A    between atoms: O1_7  and  C3_8 
REMARK    4  A    between atoms: C7_12  and  N1_13 
REMARK    5  A    between atoms: N1_13  and  C8_14 
REMARK    6  A    between atoms: C11_18  and  C12_19 
ROOT
HETATM    1  N1  UNL     1      21.537   1.617  52.160  1.00  0.00    -0.188 N 
HETATM    2  H5  UNL     1      20.767   2.269  52.520  1.00  0.00     0.184 HD
ENDROOT
BRANCH   1   3
HETATM    3  C7  UNL     1      21.961   1.969  50.851  1.00  0.00     0.052 A 
HETATM    4  C6  UNL     1      21.531   1.191  49.776  1.00  0.00     0.030 A 
HETATM    5  C5  UNL     1      21.922   1.467  48.488  1.00  0.00     0.005 A 
HETATM    6  C4  UNL     1      22.773   2.568  48.279  1.00  0.00     0.037 A 
HETATM    7  C3  UNL     1      23.203   3.344  49.353  1.00  0.00     0.077 A 
HETATM    8  C19 UNL     1      22.794   3.039  50.623  1.00  0.00     0.067 A 
BRANCH   7   9
HETATM    9  O1  UNL     1      24.008   4.321  48.835  1.00  0.00    -0.279 OA
BRANCH   9  10
HETATM   10  C2  UNL     1      25.216   4.753  49.361  1.00  0.00     0.418 C 
HETATM   11  F3  UNL     1      25.775   5.725  48.536  1.00  0.00    -0.169 F 
HETATM   12  F4  UNL     1      25.074   5.293  50.637  1.00  0.00    -0.169 F 
BRANCH  10  13
HETATM   13  C1  UNL     1      26.208   3.612  49.527  1.00  0.00     0.455 C 
HETATM   14  F1  UNL     1      27.338   3.771  48.755  1.00  0.00    -0.205 F 
HETATM   15  F2  UNL     1      26.461   3.442  50.862  1.00  0.00    -0.205 F 
ENDBRANCH  10  13
ENDBRANCH   9  10
ENDBRANCH   7   9
ENDBRANCH   1   3
BRANCH   1  16
HETATM   16  C8  UNL     1      21.890   0.570  53.095  1.00  0.00     0.727 A 
HETATM   17  N2  UNL     1      21.146  -0.301  53.788  1.00  0.00    -0.075 NA
HETATM   18  C9  UNL     1      21.788  -1.200  54.596  1.00  0.00     0.139 A 
HETATM   19  C10 UNL     1      23.144  -1.218  54.698  1.00  0.00     0.053 A 
HETATM   20  C11 UNL     1      23.887  -0.329  53.991  1.00  0.00     0.089 A 
HETATM   21  N4  UNL     1      23.242   0.543  53.205  1.00  0.00    -0.062 NA
BRANCH  20  22
HETATM   22  C12 UNL     1      25.369  -0.252  54.027  1.00  0.00     0.011 A 
HETATM   23  C13 UNL     1      26.124  -1.129  53.275  1.00  0.00     0.044 A 
HETATM   24  C14 UNL     1      27.463  -0.855  53.474  1.00  0.00     0.035 A 
HETATM   25  N3  UNL     1      27.530   0.174  54.334  1.00  0.00    -0.352 N 
HETATM   26  C18 UNL     1      28.827  -1.276  53.086  1.00  0.00     0.027 A 
HETATM   27  C15 UNL     1      26.282   0.546  54.676  1.00  0.00     0.105 A 
HETATM   28  C16 UNL     1      28.907   0.503  54.579  1.00  0.00     0.156 A 
HETATM   29  C17 UNL     1      29.657  -0.477  53.735  1.00  0.00    -0.005 A 
ENDBRANCH  20  22
ENDBRANCH   1  16
TORSDOF 6
ENDMDL
MODEL 3
REMARK VINA RESULT:      -8.9      1.787      2.776
REMARK  6 active torsions:
REMARK  status: ('A' for Active; 'I' for Inactive)
REMARK    1  A    between atoms: C1_2  and  C2_4 
REMARK    2  A    between atoms: C2_4  and  O1_7 
REMARK    3  A    between atoms: O1_7  and  C3_8 
REMARK    4  A    between atoms: C7_12  and  N1_13 
REMARK    5  A    between atoms: N1_13  and  C8_14 
REMARK    6  A    between atoms: C11_18  and  C12_19 
ROOT
HETATM    1  N1  UNL     1      22.168   0.437  52.414  1.00  0.00    -0.188 N 
HETATM    2  H5  UNL     1      21.748  -0.312  51.773  1.00  0.00     0.184 HD
ENDROOT
BRANCH   1   3
HETATM    3  C7  UNL     1      23.037  -0.124  53.386  1.00  0.00     0.052 A 
HETATM    4  C6  UNL     1      22.481  -0.798  54.474  1.00  0.00     0.030 A 
HETATM    5  C5  UNL     1      23.269  -1.345  55.458  1.00  0.00     0.005 A 
HETATM    6  C4  UNL     1      24.664  -1.208  55.339  1.00  0.00     0.037 A 
HETATM    7  C3  UNL     1      25.219  -0.534  54.254  1.00  0.00     0.077 A 
HETATM    8  C19 UNL     1      24.404  -0.001  53.293  1.00  0.00     0.067 A 
BRANCH   7   9
HETATM    9  O1  UNL     1      26.575  -0.568  54.422  1.00  0.00    -0.279 OA
BRANCH   9  10
HETATM   10  C2  UNL     1      27.524  -0.695  53.419  1.00  0.00     0.418 C 
HETATM   11  F3  UNL     1      27.312  -1.872  52.707  1.00  0.00    -0.169 F 
HETATM   12  F4  UNL     1      27.490   0.370  52.521  1.00  0.00    -0.169 F 
BRANCH  10  13
HETATM   13  C1  UNL     1      28.942  -0.696  53.970  1.00  0.00     0.455 C 
HETATM   14  F1  UNL     1      29.862  -0.197  53.075  1.00  0.00    -0.205 F 
HETATM   15  F2  UNL     1      28.942  -0.064  55.183  1.00  0.00    -0.205 F 
ENDBRANCH  10  13
ENDBRANCH   9  10
ENDBRANCH   7   9
ENDBRANCH   1   3
BRANCH   1  16
HETATM   16  C8  UNL     1      21.704   1.776  52.117  1.00  0.00     0.727 A 
HETATM   17  N2  UNL     1      20.540   2.394  52.349  1.00  0.00    -0.075 NA
HETATM   18  C9  UNL     1      20.410   3.698  51.954  1.00  0.00     0.139 A 
HETATM   19  C10 UNL     1      21.429   4.357  51.340  1.00  0.00     0.053 A 
HETATM   20  C11 UNL     1      22.605   3.718  51.109  1.00  0.00     0.089 A 
HETATM   21  N4  UNL     1      22.715   2.443  51.504  1.00  0.00    -0.062 NA
BRANCH  20  22
HETATM   22  C12 UNL     1      23.782   4.333  50.445  1.00  0.00     0.011 A 
HETATM   23  C13 UNL     1      24.902   3.571  50.180  1.00  0.00     0.044 A 
HETATM   24  C14 UNL     1      25.848   4.363  49.560  1.00  0.00     0.035 A 
HETATM   25  N3  UNL     1      25.318   5.592  49.445  1.00  0.00    -0.352 N 
HETATM   26  C18 UNL     1      27.210   4.347  48.983  1.00  0.00     0.027 A 
HETATM   27  C15 UNL     1      24.079   5.590  49.972  1.00  0.00     0.105 A 
HETATM   28  C16 UNL     1      26.265   6.462  48.803  1.00  0.00     0.156 A 
HETATM   29  C17 UNL     1      27.439   5.573  48.546  1.00  0.00    -0.005 A 
ENDBRANCH  20  22
ENDBRANCH   1  16
TORSDOF 6
ENDMDL
MODEL 4
REMARK VINA RESULT:      -8.8      2.311      3.859
REMARK  6 active torsions:
REMARK  status: ('A' for Active; 'I' for Inactive)
REMARK    1  A    between atoms: C1_2  and  C2_4 
REMARK    2  A    between atoms: C2_4  and  O1_7 
REMARK    3  A    between atoms: O1_7  and  C3_8 
REMARK    4  A    between atoms: C7_12  and  N1_13 
REMARK    5  A    between atoms: N1_13  and  C8_14 
REMARK    6  A    between atoms: C11_18  and  C12_19 
ROOT
HETATM    1  N1  UNL     1      26.612   3.384  49.572  1.00  0.00    -0.188 N 
HETATM    2  H5  UNL     1      26.733   2.559  48.900  1.00  0.00     0.184 HD
ENDROOT
BRANCH   1   3
HETATM    3  C7  UNL     1      26.098   2.973  50.830  1.00  0.00     0.052 A 
HETATM    4  C6  UNL     1      24.727   3.090  51.064  1.00  0.00     0.030 A 
HETATM    5  C5  UNL     1      24.171   2.728  52.268  1.00  0.00     0.005 A 
HETATM    6  C4  UNL     1      25.027   2.229  53.266  1.00  0.00     0.037 A 
HETATM    7  C3  UNL     1      26.396   2.113  53.032  1.00  0.00     0.077 A 
HETATM    8  C19 UNL     1      26.915   2.484  51.822  1.00  0.00     0.067 A 
BRANCH   7   9
HETATM    9  O1  UNL     1      26.949   1.607  54.176  1.00  0.00    -0.279 OA
BRANCH   9  10
HETATM   10  C2  UNL     1      27.221   0.273  54.436  1.00  0.00     0.418 C 
HETATM   11  F3  UNL     1      26.457  -0.170  55.512  1.00  0.00    -0.169 F 
HETATM   12  F4  UNL     1      26.950  -0.545  53.342  1.00  0.00    -0.169 F 
BRANCH  10  13
HETATM   13  C1  UNL     1      28.693   0.039  54.742  1.00  0.00     0.455 C 
HETATM   14  F1  UNL     1      29.261  -0.918  53.932  1.00  0.00    -0.205 F 
HETATM   15  F2  UNL     1      29.342   1.245  54.724  1.00  0.00    -0.205 F 
ENDBRANCH  10  13
ENDBRANCH   9  10
ENDBRANCH   7   9
ENDBRANCH   1   3
BRANCH   1  16
HETATM   16  C8  UNL     1      26.979   4.659  48.992  1.00  0.00     0.727 A 
HETATM   17  N2  UNL     1      26.256   5.739  48.670  1.00  0.00    -0.075 NA
HETATM   18  C9  UNL     1      26.909   6.819  48.141  1.00  0.00     0.139 A 
HETATM   19  C10 UNL     1      28.255   6.807  47.943  1.00  0.00     0.053 A 
HETATM   20  C11 UNL     1      28.976   5.704  48.272  1.00  0.00     0.089 A 
HETATM   21  N4  UNL     1      28.321   4.657  48.790  1.00  0.00    -0.062 NA
BRANCH  20  22
HETATM   22  C12 UNL     1      30.445   5.576  48.097  1.00  0.00     0.011 A 
HETATM   23  C13 UNL     1      31.291   6.511  48.658  1.00  0.00     0.044 A 
HETATM   24  C14 UNL     1      32.596   6.172  48.361  1.00  0.00     0.035 A 
HETATM   25  N3  UNL     1      32.553   5.045  47.630  1.00  0.00    -0.352 N 
HETATM   26  C18 UNL     1      34.001   6.591  48.555  1.00  0.00     0.027 A 
HETATM   27  C15 UNL     1      31.269   4.676  47.463  1.00  0.00     0.105 A 
HETATM   28  C16 UNL     1      33.891   4.645  47.291  1.00  0.00     0.156 A 
HETATM   29  C17 UNL     1      34.743   5.693  47.929  1.00  0.00    -0.005 A 
ENDBRANCH  20  22
ENDBRANCH   1  16
TORSDOF 6
ENDMDL
MODEL 5
REMARK VINA RESULT:      -8.8      1.937      2.766
REMARK  6 active torsions:
REMARK  status: ('A' for Active; 'I' for Inactive)
REMARK    1  A    between atoms: C1_2  and  C2_4 
REMARK    2  A    between atoms: C2_4  and  O1_7 
REMARK    3  A    between atoms: O1_7  and  C3_8 
REMARK    4  A    between atoms: C7_12  and  N1_13 
REMARK    5  A    between atoms: N1_13  and  C8_14 
REMARK    6  A    between atoms: C11_18  and  C12_19 
ROOT
HETATM    1  N1  UNL     1      22.099   0.431  52.117  1.00  0.00    -0.188 N 
HETATM    2  H5  UNL     1      21.855  -0.285  51.359  1.00  0.00     0.184 HD
ENDROOT
BRANCH   1   3
HETATM    3  C7  UNL     1      22.786  -0.165  53.207  1.00  0.00     0.052 A 
HETATM    4  C6  UNL     1      22.041  -0.777  54.215  1.00  0.00     0.030 A 
HETATM    5  C5  UNL     1      22.647  -1.353  55.306  1.00  0.00     0.005 A 
HETATM    6  C4  UNL     1      24.052  -1.311  55.379  1.00  0.00     0.037 A 
HETATM    7  C3  UNL     1      24.795  -0.699  54.373  1.00  0.00     0.077 A 
HETATM    8  C19 UNL     1      24.158  -0.135  53.301  1.00  0.00     0.067 A 
BRANCH   7   9
HETATM    9  O1  UNL     1      26.110  -0.819  54.727  1.00  0.00    -0.279 OA
BRANCH   9  10
HETATM   10  C2  UNL     1      27.141   0.030  54.356  1.00  0.00     0.418 C 
HETATM   11  F3  UNL     1      26.701   1.351  54.370  1.00  0.00    -0.169 F 
HETATM   12  F4  UNL     1      28.242  -0.073  55.202  1.00  0.00    -0.169 F 
BRANCH  10  13
HETATM   13  C1  UNL     1      27.681  -0.298  52.971  1.00  0.00     0.455 C 
HETATM   14  F1  UNL     1      27.460  -1.608  52.609  1.00  0.00    -0.205 F 
HETATM   15  F2  UNL     1      27.191   0.620  52.081  1.00  0.00    -0.205 F 
ENDBRANCH  10  13
ENDBRANCH   9  10
ENDBRANCH   7   9
ENDBRANCH   1   3
BRANCH   1  16
HETATM   16  C8  UNL     1      21.635   1.769  51.817  1.00  0.00     0.727 A 
HETATM   17  N2  UNL     1      20.454   2.371  52.004  1.00  0.00    -0.075 NA
HETATM   18  C9  UNL     1      20.328   3.679  51.621  1.00  0.00     0.139 A 
HETATM   19  C10 UNL     1      21.367   4.358  51.064  1.00  0.00     0.053 A 
HETATM   20  C11 UNL     1      22.559   3.735  50.879  1.00  0.00     0.089 A 
HETATM   21  N4  UNL     1      22.665   2.455  51.260  1.00  0.00    -0.062 NA
BRANCH  20  22
HETATM   22  C12 UNL     1      23.758   4.372  50.278  1.00  0.00     0.011 A 
HETATM   23  C13 UNL     1      24.882   3.615  50.012  1.00  0.00     0.044 A 
HETATM   24  C14 UNL     1      25.850   4.428  49.457  1.00  0.00     0.035 A 
HETATM   25  N3  UNL     1      25.330   5.664  49.381  1.00  0.00    -0.352 N 
HETATM   26  C18 UNL     1      27.228   4.429  48.920  1.00  0.00     0.027 A 
HETATM   27  C15 UNL     1      24.076   5.647  49.872  1.00  0.00     0.105 A 
HETATM   28  C16 UNL     1      26.300   6.557  48.809  1.00  0.00     0.156 A 
HETATM   29  C17 UNL     1      27.477   5.673  48.546  1.00  0.00    -0.005 A 
ENDBRANCH  20  22
ENDBRANCH   1  16
TORSDOF 6
ENDMDL
MODEL 6
REMARK VINA RESULT:      -8.3      4.322      8.455
REMARK  6 active torsions:
REMARK  status: ('A' for Active; 'I' for Inactive)
REMARK    1  A    between atoms: C1_2  and  C2_4 
REMARK    2  A    between atoms: C2_4  and  O1_7 
REMARK    3  A    between atoms: O1_7  and  C3_8 
REMARK    4  A    between atoms: C7_12  and  N1_13 
REMARK    5  A    between atoms: N1_13  and  C8_14 
REMARK    6  A    between atoms: C11_18  and  C12_19 
ROOT
HETATM    1  N1  UNL     1      26.566   2.972  50.183  1.00  0.00    -0.188 N 
HETATM    2  H5  UNL     1      27.384   2.804  49.511  1.00  0.00     0.184 HD
ENDROOT
BRANCH   1   3
HETATM    3  C7  UNL     1      25.546   3.759  49.589  1.00  0.00     0.052 A 
HETATM    4  C6  UNL     1      25.814   5.098  49.300  1.00  0.00     0.030 A 
HETATM    5  C5  UNL     1      24.861   5.917  48.744  1.00  0.00     0.005 A 
HETATM    6  C4  UNL     1      23.596   5.365  48.467  1.00  0.00     0.037 A 
HETATM    7  C3  UNL     1      23.329   4.029  48.756  1.00  0.00     0.077 A 
HETATM    8  C19 UNL     1      24.301   3.243  49.311  1.00  0.00     0.067 A 
BRANCH   7   9
HETATM    9  O1  UNL     1      22.034   3.797  48.381  1.00  0.00    -0.279 OA
BRANCH   9  10
HETATM   10  C2  UNL     1      21.495   2.577  48.004  1.00  0.00     0.418 C 
HETATM   11  F3  UNL     1      20.435   2.775  47.124  1.00  0.00    -0.169 F 
HETATM   12  F4  UNL     1      22.431   1.755  47.381  1.00  0.00    -0.169 F 
BRANCH  10  13
HETATM   13  C1  UNL     1      21.005   1.774  49.199  1.00  0.00     0.455 C 
HETATM   14  F1  UNL     1      21.870   0.762  49.553  1.00  0.00    -0.205 F 
HETATM   15  F2  UNL     1      20.709   2.640  50.218  1.00  0.00    -0.205 F 
ENDBRANCH  10  13
ENDBRANCH   9  10
ENDBRANCH   7   9
ENDBRANCH   1   3
BRANCH   1  16
HETATM   16  C8  UNL     1      26.760   2.376  51.488  1.00  0.00     0.727 A 
HETATM   17  N2  UNL     1      27.809   2.363  52.320  1.00  0.00    -0.075 NA
HETATM   18  C9  UNL     1      27.675   1.713  53.518  1.00  0.00     0.139 A 
HETATM   19  C10 UNL     1      26.513   1.095  53.862  1.00  0.00     0.053 A 
HETATM   20  C11 UNL     1      25.458   1.114  53.008  1.00  0.00     0.089 A 
HETATM   21  N4  UNL     1      25.607   1.756  51.841  1.00  0.00    -0.062 NA
BRANCH  20  22
HETATM   22  C12 UNL     1      24.147   0.472  53.274  1.00  0.00     0.011 A 
HETATM   23  C13 UNL     1      23.006   0.951  52.663  1.00  0.00     0.044 A 
HETATM   24  C14 UNL     1      21.927   0.190  53.064  1.00  0.00     0.035 A 
HETATM   25  N3  UNL     1      22.396  -0.744  53.909  1.00  0.00    -0.352 N 
HETATM   26  C18 UNL     1      20.465   0.030  52.901  1.00  0.00     0.027 A 
HETATM   27  C15 UNL     1      23.726  -0.587  54.045  1.00  0.00     0.105 A 
HETATM   28  C16 UNL     1      21.309  -1.568  54.361  1.00  0.00     0.156 A 
HETATM   29  C17 UNL     1      20.120  -0.997  53.659  1.00  0.00    -0.005 A 
ENDBRANCH  20  22
ENDBRANCH   1  16
TORSDOF 6
ENDMDL
MODEL 7
REMARK VINA RESULT:      -8.0      3.008      3.922
REMARK  6 active torsions:
REMARK  status: ('A' for Active; 'I' for Inactive)
REMARK    1  A    between atoms: C1_2  and  C2_4 
REMARK    2  A    between atoms: C2_4  and  O1_7 
REMARK    3  A    between atoms: O1_7  and  C3_8 
REMARK    4  A    between atoms: C7_12  and  N1_13 
REMARK    5  A    between atoms: N1_13  and  C8_14 
REMARK    6  A    between atoms: C11_18  and  C12_19 
ROOT
HETATM    1  N1  UNL     1      22.210   0.444  52.076  1.00  0.00    -0.188 N 
HETATM    2  H5  UNL     1      22.503   0.020  51.137  1.00  0.00     0.184 HD
ENDROOT
BRANCH   1   3
HETATM    3  C7  UNL     1      22.909  -0.142  53.164  1.00  0.00     0.052 A 
HETATM    4  C6  UNL     1      22.174  -0.709  54.205  1.00  0.00     0.030 A 
HETATM    5  C5  UNL     1      22.791  -1.274  55.296  1.00  0.00     0.005 A 
HETATM    6  C4  UNL     1      24.198  -1.268  55.334  1.00  0.00     0.037 A 
HETATM    7  C3  UNL     1      24.932  -0.700  54.294  1.00  0.00     0.077 A 
HETATM    8  C19 UNL     1      24.283  -0.146  53.225  1.00  0.00     0.067 A 
BRANCH   7   9
HETATM    9  O1  UNL     1      26.252  -0.846  54.620  1.00  0.00    -0.279 OA
BRANCH   9  10
HETATM   10  C2  UNL     1      27.268   0.057  54.349  1.00  0.00     0.418 C 
HETATM   11  F3  UNL     1      26.747   1.343  54.231  1.00  0.00    -0.169 F 
HETATM   12  F4  UNL     1      28.242   0.071  55.344  1.00  0.00    -0.169 F 
BRANCH  10  13
HETATM   13  C1  UNL     1      28.019  -0.293  53.072  1.00  0.00     0.455 C 
HETATM   14  F1  UNL     1      28.531  -1.571  53.089  1.00  0.00    -0.205 F 
HETATM   15  F2  UNL     1      27.209  -0.028  52.001  1.00  0.00    -0.205 F 
ENDBRANCH  10  13
ENDBRANCH   9  10
ENDBRANCH   7   9
ENDBRANCH   1   3
BRANCH   1  16
HETATM   16  C8  UNL     1      21.182   1.456  51.956  1.00  0.00     0.727 A 
HETATM   17  N2  UNL     1      19.853   1.408  52.117  1.00  0.00    -0.075 NA
HETATM   18  C9  UNL     1      19.139   2.563  51.945  1.00  0.00     0.139 A 
HETATM   19  C10 UNL     1      19.752   3.733  51.620  1.00  0.00     0.053 A 
HETATM   20  C11 UNL     1      21.100   3.768  51.458  1.00  0.00     0.089 A 
HETATM   21  N4  UNL     1      21.782   2.628  51.631  1.00  0.00    -0.062 NA
BRANCH  20  22
HETATM   22  C12 UNL     1      21.873   4.983  51.100  1.00  0.00     0.011 A 
HETATM   23  C13 UNL     1      23.229   5.038  51.356  1.00  0.00     0.044 A 
HETATM   24  C14 UNL     1      23.717   6.258  50.931  1.00  0.00     0.035 A 
HETATM   25  N3  UNL     1      22.679   6.942  50.422  1.00  0.00    -0.352 N 
HETATM   26  C18 UNL     1      24.949   7.070  50.833  1.00  0.00     0.027 A 
HETATM   27  C15 UNL     1      21.566   6.190  50.517  1.00  0.00     0.105 A 
HETATM   28  C16 UNL     1      23.132   8.226  49.963  1.00  0.00     0.156 A 
HETATM   29  C17 UNL     1      24.595   8.211  50.267  1.00  0.00    -0.005 A 
ENDBRANCH  20  22
ENDBRANCH   1  16
TORSDOF 6
ENDMDL
MODEL 8
REMARK VINA RESULT:      -8.0      3.586      6.062
REMARK  6 active torsions:
REMARK  status: ('A' for Active; 'I' for Inactive)
REMARK    1  A    between atoms: C1_2  and  C2_4 
REMARK    2  A    between atoms: C2_4  and  O1_7 
REMARK    3  A    between atoms: O1_7  and  C3_8 
REMARK    4  A    between atoms: C7_12  and  N1_13 
REMARK    5  A    between atoms: N1_13  and  C8_14 
REMARK    6  A    between atoms: C11_18  and  C12_19 
ROOT
HETATM    1  N1  UNL     1      22.142   2.695  48.880  1.00  0.00    -0.188 N 
HETATM    2  H5  UNL     1      21.789   2.756  47.870  1.00  0.00     0.184 HD
ENDROOT
BRANCH   1   3
HETATM    3  C7  UNL     1      21.315   1.865  49.681  1.00  0.00     0.052 A 
HETATM    4  C6  UNL     1      19.940   1.860  49.444  1.00  0.00     0.030 A 
HETATM    5  C5  UNL     1      19.084   1.095  50.200  1.00  0.00     0.005 A 
HETATM    6  C4  UNL     1      19.636   0.306  51.226  1.00  0.00     0.037 A 
HETATM    7  C3  UNL     1      21.009   0.312  51.462  1.00  0.00     0.077 A 
HETATM    8  C19 UNL     1      21.831   1.088  50.691  1.00  0.00     0.067 A 
BRANCH   7   9
HETATM    9  O1  UNL     1      21.231  -0.540  52.508  1.00  0.00    -0.279 OA
BRANCH   9  10
HETATM   10  C2  UNL     1      22.185  -0.388  53.502  1.00  0.00     0.418 C 
HETATM   11  F3  UNL     1      23.394  -0.945  53.094  1.00  0.00    -0.169 F 
HETATM   12  F4  UNL     1      22.407   0.949  53.822  1.00  0.00    -0.169 F 
BRANCH  10  13
HETATM   13  C1  UNL     1      21.757  -1.037  54.811  1.00  0.00     0.455 C 
HETATM   14  F1  UNL     1      20.714  -1.922  54.650  1.00  0.00    -0.205 F 
HETATM   15  F2  UNL     1      22.861  -1.576  55.415  1.00  0.00    -0.205 F 
ENDBRANCH  10  13
ENDBRANCH   9  10
ENDBRANCH   7   9
ENDBRANCH   1   3
BRANCH   1  16
HETATM   16  C8  UNL     1      23.326   3.490  49.125  1.00  0.00     0.727 A 
HETATM   17  N2  UNL     1      23.752   4.648  48.606  1.00  0.00    -0.075 NA
HETATM   18  C9  UNL     1      24.933   5.167  49.066  1.00  0.00     0.139 A 
HETATM   19  C10 UNL     1      25.661   4.532  50.023  1.00  0.00     0.053 A 
HETATM   20  C11 UNL     1      25.218   3.357  50.540  1.00  0.00     0.089 A 
HETATM   21  N4  UNL     1      24.061   2.865  50.080  1.00  0.00    -0.062 NA
BRANCH  20  22
HETATM   22  C12 UNL     1      25.929   2.575  51.583  1.00  0.00     0.011 A 
HETATM   23  C13 UNL     1      25.211   1.833  52.499  1.00  0.00     0.044 A 
HETATM   24  C14 UNL     1      26.091   1.198  53.352  1.00  0.00     0.035 A 
HETATM   25  N3  UNL     1      27.331   1.544  52.968  1.00  0.00    -0.352 N 
HETATM   26  C18 UNL     1      26.162   0.288  54.516  1.00  0.00     0.027 A 
HETATM   27  C15 UNL     1      27.249   2.370  51.907  1.00  0.00     0.105 A 
HETATM   28  C16 UNL     1      28.292   0.909  53.827  1.00  0.00     0.156 A 
HETATM   29  C17 UNL     1      27.448   0.127  54.780  1.00  0.00    -0.005 A 
ENDBRANCH  20  22
ENDBRANCH   1  16
TORSDOF 6
ENDMDL
MODEL 9
REMARK VINA RESULT:      -8.0      4.067      8.430
REMARK  6 active torsions:
REMARK  status: ('A' for Active; 'I' for Inactive)
REMARK    1  A    between atoms: C1_2  and  C2_4 
REMARK    2  A    between atoms: C2_4  and  O1_7 
REMARK    3  A    between atoms: O1_7  and  C3_8 
REMARK    4  A    between atoms: C7_12  and  N1_13 
REMARK    5  A    between atoms: N1_13  and  C8_14 
REMARK    6  A    between atoms: C11_18  and  C12_19 
ROOT
HETATM    1  N1  UNL     1      26.580   2.843  50.082  1.00  0.00    -0.188 N 
HETATM    2  H5  UNL     1      26.854   2.151  49.311  1.00  0.00     0.184 HD
ENDROOT
BRANCH   1   3
HETATM    3  C7  UNL     1      26.168   4.093  49.551  1.00  0.00     0.052 A 
HETATM    4  C6  UNL     1      24.826   4.458  49.662  1.00  0.00     0.030 A 
HETATM    5  C5  UNL     1      24.362   5.647  49.150  1.00  0.00     0.005 A 
HETATM    6  C4  UNL     1      25.284   6.494  48.508  1.00  0.00     0.037 A 
HETATM    7  C3  UNL     1      26.623   6.128  48.397  1.00  0.00     0.077 A 
HETATM    8  C19 UNL     1      27.050   4.937  48.918  1.00  0.00     0.067 A 
BRANCH   7   9
HETATM    9  O1  UNL     1      27.254   7.142  47.732  1.00  0.00    -0.279 OA
BRANCH   9  10
HETATM   10  C2  UNL     1      28.616   7.246  47.496  1.00  0.00     0.418 C 
HETATM   11  F3  UNL     1      29.205   5.985  47.528  1.00  0.00    -0.169 F 
HETATM   12  F4  UNL     1      28.896   7.827  46.261  1.00  0.00    -0.169 F 
BRANCH  10  13
HETATM   13  C1  UNL     1      29.306   8.142  48.514  1.00  0.00     0.455 C 
HETATM   14  F1  UNL     1      28.443   8.623  49.473  1.00  0.00    -0.205 F 
HETATM   15  F2  UNL     1      30.391   7.478  49.019  1.00  0.00    -0.205 F 
ENDBRANCH  10  13
ENDBRANCH   9  10
ENDBRANCH   7   9
ENDBRANCH   1   3
BRANCH   1  16
HETATM   16  C8  UNL     1      26.738   2.308  51.418  1.00  0.00     0.727 A 
HETATM   17  N2  UNL     1      27.764   2.333  52.278  1.00  0.00    -0.075 NA
HETATM   18  C9  UNL     1      27.597   1.740  53.500  1.00  0.00     0.139 A 
HETATM   19  C10 UNL     1      26.426   1.139  53.843  1.00  0.00     0.053 A 
HETATM   20  C11 UNL     1      25.394   1.120  52.961  1.00  0.00     0.089 A 
HETATM   21  N4  UNL     1      25.574   1.706  51.770  1.00  0.00    -0.062 NA
BRANCH  20  22
HETATM   22  C12 UNL     1      24.074   0.492  53.222  1.00  0.00     0.011 A 
HETATM   23  C13 UNL     1      22.933   1.022  52.654  1.00  0.00     0.044 A 
HETATM   24  C14 UNL     1      21.845   0.264  53.041  1.00  0.00     0.035 A 
HETATM   25  N3  UNL     1      22.309  -0.715  53.834  1.00  0.00    -0.352 N 
HETATM   26  C18 UNL     1      20.378   0.141  52.898  1.00  0.00     0.027 A 
HETATM   27  C15 UNL     1      23.645  -0.591  53.953  1.00  0.00     0.105 A 
HETATM   28  C16 UNL     1      21.215  -1.538  54.269  1.00  0.00     0.156 A 
HETATM   29  C17 UNL     1      20.025  -0.911  53.616  1.00  0.00    -0.005 A 
ENDBRANCH  20  22
ENDBRANCH   1  16
TORSDOF 6
ENDMDL
