MODEL 1
REMARK VINA RESULT:      -7.8      0.000      0.000
REMARK  2 active torsions:
REMARK  status: ('A' for Active; 'I' for Inactive)
REMARK    1  A    between atoms: O1_2  and  C2_3 
REMARK    2  A    between atoms: C6_8  and  C7_9 
ROOT
HETATM    1  C2  UNL     1      24.844   1.342  52.808  1.00  0.00     0.197 C 
HETATM    2  C3  UNL     1      24.486   2.703  52.920  1.00  0.00    -0.102 C 
HETATM    3  C4  UNL     1      24.168   3.837  53.001  1.00  0.00     0.310 A 
HETATM    4  N1  UNL     1      23.770   5.176  53.080  1.00  0.00     0.138 N 
HETATM    5  C5  UNL     1      23.822   4.816  51.653  1.00  0.00     0.302 A 
HETATM    6  C6  UNL     1      23.946   4.521  50.346  1.00  0.00     0.089 C 
HETATM    7  N2  UNL     1      22.892   3.722  49.707  1.00  0.00    -0.280 NA
HETATM    8  C13 UNL     1      22.693   2.514  50.215  1.00  0.00     0.166 C 
HETATM    9  C14 UNL     1      23.045   1.357  51.259  1.00  0.00     0.083 C 
HETATM   10  C15 UNL     1      23.604   0.511  52.275  1.00  0.00     0.148 C 
HETATM   11  O2  UNL     1      21.771   1.108  50.525  1.00  0.00    -0.327 OA
HETATM   12  C16 UNL     1      20.755   2.006  51.248  1.00  0.00     0.316 C 
HETATM   13  N3  UNL     1      21.166   3.136  51.615  1.00  0.00    -0.410 NA
HETATM   14  P1  UNL     1      21.944   4.542  51.985  1.00  0.00     0.107 P 
HETATM   15  H5  UNL     1      23.940   4.744  53.985  1.00  0.00     0.320 HD
HETATM   16  H13 UNL     1      21.264   5.722  51.488  1.00  0.00     0.099 HD
ENDROOT
BRANCH   6  17
HETATM   17  C7  UNL     1      25.199   4.924  49.692  1.00  0.00    -0.007 A 
HETATM   18  C8  UNL     1      26.245   4.015  49.563  1.00  0.00     0.013 A 
HETATM   19  C9  UNL     1      27.441   4.358  48.958  1.00  0.00     0.002 A 
HETATM   20  C10 UNL     1      27.593   5.636  48.470  1.00  0.00     0.019 A 
HETATM   21  C11 UNL     1      26.569   6.556  48.584  1.00  0.00     0.011 A 
HETATM   22 BR1  UNL     1      26.743   8.334  47.924  1.00  0.00    -0.051 Br
HETATM   23  C12 UNL     1      25.376   6.201  49.194  1.00  0.00     0.032 A 
ENDBRANCH   6  17
BRANCH   1  24
HETATM   24  O1  UNL     1      25.041   0.786  54.060  1.00  0.00    -0.379 OA
HETATM   25  C1  UNL     1      25.579  -0.485  53.888  1.00  0.00     0.203 C 
ENDBRANCH   1  24
TORSDOF 2
ENDMDL
MODEL 2
REMARK VINA RESULT:      -7.7      3.765      5.368
REMARK  2 active torsions:
REMARK  status: ('A' for Active; 'I' for Inactive)
REMARK    1  A    between atoms: O1_2  and  C2_3 
REMARK    2  A    between atoms: C6_8  and  C7_9 
ROOT
HETATM    1  C2  UNL     1      20.280   3.322  51.433  1.00  0.00     0.197 C 
HETATM    2  C3  UNL     1      21.434   3.935  51.968  1.00  0.00    -0.102 C 
HETATM    3  C4  UNL     1      22.407   4.450  52.394  1.00  0.00     0.310 A 
HETATM    4  N1  UNL     1      23.568   5.064  52.875  1.00  0.00     0.138 N 
HETATM    5  C5  UNL     1      23.985   3.971  51.980  1.00  0.00     0.302 A 
HETATM    6  C6  UNL     1      24.376   2.924  51.230  1.00  0.00     0.089 C 
HETATM    7  N2  UNL     1      24.311   3.049  49.768  1.00  0.00    -0.280 NA
HETATM    8  C13 UNL     1      23.109   3.281  49.259  1.00  0.00     0.166 C 
HETATM    9  C14 UNL     1      21.536   3.511  49.428  1.00  0.00     0.083 C 
HETATM   10  C15 UNL     1      20.182   3.642  49.884  1.00  0.00     0.148 C 
HETATM   11  O2  UNL     1      22.028   3.840  48.058  1.00  0.00    -0.327 OA
HETATM   12  C16 UNL     1      22.656   5.232  48.223  1.00  0.00     0.316 C 
HETATM   13  N3  UNL     1      23.295   5.437  49.286  1.00  0.00    -0.410 NA
HETATM   14  P1  UNL     1      24.066   5.447  50.744  1.00  0.00     0.107 P 
HETATM   15  H5  UNL     1      22.709   5.477  53.230  1.00  0.00     0.320 HD
HETATM   16  H13 UNL     1      25.462   5.827  50.651  1.00  0.00     0.099 HD
ENDROOT
BRANCH   6  17
HETATM   17  C7  UNL     1      24.722   1.689  51.946  1.00  0.00    -0.007 A 
HETATM   18  C8  UNL     1      26.000   1.150  51.835  1.00  0.00     0.013 A 
HETATM   19  C9  UNL     1      26.363  -0.014  52.490  1.00  0.00     0.002 A 
HETATM   20  C10 UNL     1      25.427  -0.652  53.273  1.00  0.00     0.019 A 
HETATM   21  C11 UNL     1      24.152  -0.135  53.401  1.00  0.00     0.011 A 
HETATM   22 BR1  UNL     1      22.829  -0.989  54.473  1.00  0.00    -0.051 Br
HETATM   23  C12 UNL     1      23.801   1.030  52.738  1.00  0.00     0.032 A 
ENDBRANCH   6  17
BRANCH   1  24
HETATM   24  O1  UNL     1      19.136   3.928  51.921  1.00  0.00    -0.379 OA
HETATM   25  C1  UNL     1      18.037   3.203  51.469  1.00  0.00     0.203 C 
ENDBRANCH   1  24
TORSDOF 2
ENDMDL
MODEL 3
REMARK VINA RESULT:      -7.5      3.547      5.994
REMARK  2 active torsions:
REMARK  status: ('A' for Active; 'I' for Inactive)
REMARK    1  A    between atoms: O1_2  and  C2_3 
REMARK    2  A    between atoms: C6_8  and  C7_9 
ROOT
HETATM    1  C2  UNL     1      26.042   4.587  49.690  1.00  0.00     0.197 C 
HETATM    2  C3  UNL     1      24.910   3.824  49.333  1.00  0.00    -0.102 C 
HETATM    3  C4  UNL     1      23.949   3.201  49.043  1.00  0.00     0.310 A 
HETATM    4  N1  UNL     1      22.796   2.482  48.712  1.00  0.00     0.138 N 
HETATM    5  C5  UNL     1      22.748   2.749  50.159  1.00  0.00     0.302 A 
HETATM    6  C6  UNL     1      22.736   2.916  51.495  1.00  0.00     0.089 C 
HETATM    7  N2  UNL     1      22.369   4.234  52.030  1.00  0.00    -0.280 NA
HETATM    8  C13 UNL     1      23.143   5.245  51.662  1.00  0.00     0.166 C 
HETATM    9  C14 UNL     1      24.398   5.831  50.865  1.00  0.00     0.083 C 
HETATM   10  C15 UNL     1      25.588   6.050  50.093  1.00  0.00     0.148 C 
HETATM   11  O2  UNL     1      23.487   6.896  51.379  1.00  0.00    -0.327 OA
HETATM   12  C16 UNL     1      22.331   6.903  50.368  1.00  0.00     0.316 C 
HETATM   13  N3  UNL     1      21.958   5.783  49.934  1.00  0.00    -0.410 NA
HETATM   14  P1  UNL     1      21.665   4.212  49.527  1.00  0.00     0.107 P 
HETATM   15  H5  UNL     1      23.408   2.662  47.920  1.00  0.00     0.320 HD
HETATM   16  H13 UNL     1      20.285   3.815  49.727  1.00  0.00     0.099 HD
ENDROOT
BRANCH   6  17
HETATM   17  C7  UNL     1      23.215   1.790  52.308  1.00  0.00    -0.007 A 
HETATM   18  C8  UNL     1      24.580   1.552  52.440  1.00  0.00     0.013 A 
HETATM   19  C9  UNL     1      25.069   0.499  53.193  1.00  0.00     0.002 A 
HETATM   20  C10 UNL     1      24.174  -0.332  53.829  1.00  0.00     0.019 A 
HETATM   21  C11 UNL     1      22.815  -0.114  53.716  1.00  0.00     0.011 A 
HETATM   22 BR1  UNL     1      21.546  -1.243  54.579  1.00  0.00    -0.051 Br
HETATM   23  C12 UNL     1      22.337   0.942  52.957  1.00  0.00     0.032 A 
ENDBRANCH   6  17
BRANCH   1  24
HETATM   24  O1  UNL     1      26.835   4.830  48.583  1.00  0.00    -0.379 OA
HETATM   25  C1  UNL     1      27.173   6.180  48.583  1.00  0.00     0.203 C 
ENDBRANCH   1  24
TORSDOF 2
ENDMDL
MODEL 4
REMARK VINA RESULT:      -7.5      3.348      6.049
REMARK  2 active torsions:
REMARK  status: ('A' for Active; 'I' for Inactive)
REMARK    1  A    between atoms: O1_2  and  C2_3 
REMARK    2  A    between atoms: C6_8  and  C7_9 
ROOT
HETATM    1  C2  UNL     1      24.531   3.771  50.211  1.00  0.00     0.197 C 
HETATM    2  C3  UNL     1      23.531   2.843  49.850  1.00  0.00    -0.102 C 
HETATM    3  C4  UNL     1      22.678   2.081  49.555  1.00  0.00     0.310 A 
HETATM    4  N1  UNL     1      21.650   1.196  49.215  1.00  0.00     0.138 N 
HETATM    5  C5  UNL     1      21.450   1.583  50.622  1.00  0.00     0.302 A 
HETATM    6  C6  UNL     1      21.307   1.866  51.930  1.00  0.00     0.089 C 
HETATM    7  N2  UNL     1      20.743   3.170  52.305  1.00  0.00    -0.280 NA
HETATM    8  C13 UNL     1      21.420   4.233  51.895  1.00  0.00     0.166 C 
HETATM    9  C14 UNL     1      22.659   4.899  51.136  1.00  0.00     0.083 C 
HETATM   10  C15 UNL     1      23.874   5.196  50.433  1.00  0.00     0.148 C 
HETATM   11  O2  UNL     1      21.589   5.882  51.475  1.00  0.00    -0.327 OA
HETATM   12  C16 UNL     1      20.528   5.653  50.388  1.00  0.00     0.316 C 
HETATM   13  N3  UNL     1      20.328   4.461  50.041  1.00  0.00    -0.410 NA
HETATM   14  P1  UNL     1      20.258   2.835  49.772  1.00  0.00     0.107 P 
HETATM   15  H5  UNL     1      22.300   1.380  48.456  1.00  0.00     0.320 HD
HETATM   16  H13 UNL     1      18.923   2.288  49.911  1.00  0.00     0.099 HD
ENDROOT
BRANCH   6  17
HETATM   17  C7  UNL     1      21.847   0.887  52.883  1.00  0.00    -0.007 A 
HETATM   18  C8  UNL     1      21.002   0.250  53.787  1.00  0.00     0.013 A 
HETATM   19  C9  UNL     1      21.473  -0.674  54.702  1.00  0.00     0.002 A 
HETATM   20  C10 UNL     1      22.819  -0.969  54.713  1.00  0.00     0.019 A 
HETATM   21  C11 UNL     1      23.677  -0.352  53.824  1.00  0.00     0.011 A 
HETATM   22 BR1  UNL     1      25.544  -0.732  53.809  1.00  0.00    -0.051 Br
HETATM   23  C12 UNL     1      23.193   0.573  52.913  1.00  0.00     0.032 A 
ENDBRANCH   6  17
BRANCH   1  24
HETATM   24  O1  UNL     1      25.378   4.013  49.144  1.00  0.00    -0.379 OA
HETATM   25  C1  UNL     1      26.687   3.832  49.582  1.00  0.00     0.203 C 
ENDBRANCH   1  24
TORSDOF 2
ENDMDL
MODEL 5
REMARK VINA RESULT:      -7.5      3.273      5.320
REMARK  2 active torsions:
REMARK  status: ('A' for Active; 'I' for Inactive)
REMARK    1  A    between atoms: O1_2  and  C2_3 
REMARK    2  A    between atoms: C6_8  and  C7_9 
ROOT
HETATM    1  C2  UNL     1      23.108   2.519  48.489  1.00  0.00     0.197 C 
HETATM    2  C3  UNL     1      22.398   1.949  49.568  1.00  0.00    -0.102 C 
HETATM    3  C4  UNL     1      21.802   1.494  50.480  1.00  0.00     0.310 A 
HETATM    4  N1  UNL     1      21.095   0.978  51.571  1.00  0.00     0.138 N 
HETATM    5  C5  UNL     1      22.213   1.772  52.107  1.00  0.00     0.302 A 
HETATM    6  C6  UNL     1      23.279   2.426  52.605  1.00  0.00     0.089 C 
HETATM    7  N2  UNL     1      23.247   3.894  52.634  1.00  0.00    -0.280 NA
HETATM    8  C13 UNL     1      23.116   4.494  51.459  1.00  0.00     0.166 C 
HETATM    9  C14 UNL     1      22.968   4.445  49.869  1.00  0.00     0.083 C 
HETATM   10  C15 UNL     1      22.888   4.088  48.481  1.00  0.00     0.148 C 
HETATM   11  O2  UNL     1      22.695   5.798  50.436  1.00  0.00    -0.327 OA
HETATM   12  C16 UNL     1      21.261   5.682  50.975  1.00  0.00     0.316 C 
HETATM   13  N3  UNL     1      20.956   4.594  51.527  1.00  0.00    -0.410 NA
HETATM   14  P1  UNL     1      20.812   3.092  52.194  1.00  0.00     0.107 P 
HETATM   15  H5  UNL     1      20.711   0.708  50.668  1.00  0.00     0.320 HD
HETATM   16  H13 UNL     1      20.359   3.117  53.571  1.00  0.00     0.099 HD
ENDROOT
BRANCH   6  17
HETATM   17  C7  UNL     1      24.447   1.611  52.966  1.00  0.00    -0.007 A 
HETATM   18  C8  UNL     1      24.305   0.245  53.192  1.00  0.00     0.013 A 
HETATM   19  C9  UNL     1      25.380  -0.554  53.539  1.00  0.00     0.002 A 
HETATM   20  C10 UNL     1      26.623   0.025  53.662  1.00  0.00     0.019 A 
HETATM   21  C11 UNL     1      26.790   1.378  53.441  1.00  0.00     0.011 A 
HETATM   22 BR1  UNL     1      28.493   2.216  53.603  1.00  0.00    -0.051 Br
HETATM   23  C12 UNL     1      25.705   2.169  53.096  1.00  0.00     0.032 A 
ENDBRANCH   6  17
BRANCH   1  24
HETATM   24  O1  UNL     1      22.541   2.147  47.283  1.00  0.00    -0.379 OA
HETATM   25  C1  UNL     1      21.858   3.245  46.771  1.00  0.00     0.203 C 
ENDBRANCH   1  24
TORSDOF 2
ENDMDL
MODEL 6
REMARK VINA RESULT:      -7.4      7.594     10.417
REMARK  2 active torsions:
REMARK  status: ('A' for Active; 'I' for Inactive)
REMARK    1  A    between atoms: O1_2  and  C2_3 
REMARK    2  A    between atoms: C6_8  and  C7_9 
ROOT
HETATM    1  C2  UNL     1      32.790   5.836  44.408  1.00  0.00     0.197 C 
HETATM    2  C3  UNL     1      33.047   6.609  45.561  1.00  0.00    -0.102 C 
HETATM    3  C4  UNL     1      33.267   7.236  46.537  1.00  0.00     0.310 A 
HETATM    4  N1  UNL     1      33.535   7.957  47.705  1.00  0.00     0.138 N 
HETATM    5  C5  UNL     1      32.589   6.884  48.056  1.00  0.00     0.302 A 
HETATM    6  C6  UNL     1      31.661   5.960  48.369  1.00  0.00     0.089 C 
HETATM    7  N2  UNL     1      32.093   4.565  48.530  1.00  0.00    -0.280 NA
HETATM    8  C13 UNL     1      32.651   4.005  47.466  1.00  0.00     0.166 C 
HETATM    9  C14 UNL     1      33.139   4.062  45.946  1.00  0.00     0.083 C 
HETATM   10  C15 UNL     1      33.432   4.398  44.582  1.00  0.00     0.148 C 
HETATM   11  O2  UNL     1      33.640   2.859  46.672  1.00  0.00    -0.327 OA
HETATM   12  C16 UNL     1      34.821   3.396  47.493  1.00  0.00     0.316 C 
HETATM   13  N3  UNL     1      34.678   4.537  48.002  1.00  0.00    -0.410 NA
HETATM   14  P1  UNL     1      34.242   6.029  48.553  1.00  0.00     0.107 P 
HETATM   15  H5  UNL     1      34.024   8.308  46.885  1.00  0.00     0.320 HD
HETATM   16  H13 UNL     1      34.357   6.165  49.991  1.00  0.00     0.099 HD
ENDROOT
BRANCH   6  17
HETATM   17  C7  UNL     1      30.263   6.409  48.402  1.00  0.00    -0.007 A 
HETATM   18  C8  UNL     1      29.229   5.491  48.246  1.00  0.00     0.013 A 
HETATM   19  C9  UNL     1      27.900   5.876  48.267  1.00  0.00     0.002 A 
HETATM   20  C10 UNL     1      27.599   7.207  48.448  1.00  0.00     0.019 A 
HETATM   21  C11 UNL     1      28.608   8.137  48.607  1.00  0.00     0.011 A 
HETATM   22 BR1  UNL     1      28.232   9.988  48.858  1.00  0.00    -0.051 Br
HETATM   23  C12 UNL     1      29.935   7.740  48.583  1.00  0.00     0.032 A 
ENDBRANCH   6  17
BRANCH   1  24
HETATM   24  O1  UNL     1      33.492   6.331  43.323  1.00  0.00    -0.379 OA
HETATM   25  C1  UNL     1      33.783   5.267  42.475  1.00  0.00     0.203 C 
ENDBRANCH   1  24
TORSDOF 2
ENDMDL
MODEL 7
REMARK VINA RESULT:      -7.2      7.191     10.116
REMARK  2 active torsions:
REMARK  status: ('A' for Active; 'I' for Inactive)
REMARK    1  A    between atoms: O1_2  and  C2_3 
REMARK    2  A    between atoms: C6_8  and  C7_9 
ROOT
HETATM    1  C2  UNL     1      30.744  10.776  47.827  1.00  0.00     0.197 C 
HETATM    2  C3  UNL     1      31.044   9.675  48.658  1.00  0.00    -0.102 C 
HETATM    3  C4  UNL     1      31.305   8.743  49.335  1.00  0.00     0.310 A 
HETATM    4  N1  UNL     1      31.625   7.629  50.117  1.00  0.00     0.138 N 
HETATM    5  C5  UNL     1      30.932   7.139  48.914  1.00  0.00     0.302 A 
HETATM    6  C6  UNL     1      30.226   6.689  47.860  1.00  0.00     0.089 C 
HETATM    7  N2  UNL     1      30.899   6.598  46.557  1.00  0.00    -0.280 NA
HETATM    8  C13 UNL     1      31.372   7.736  46.069  1.00  0.00     0.166 C 
HETATM    9  C14 UNL     1      31.608   9.313  46.169  1.00  0.00     0.083 C 
HETATM   10  C15 UNL     1      31.632  10.706  46.516  1.00  0.00     0.148 C 
HETATM   11  O2  UNL     1      32.403   8.675  45.080  1.00  0.00    -0.327 OA
HETATM   12  C16 UNL     1      33.592   8.044  45.820  1.00  0.00     0.316 C 
HETATM   13  N3  UNL     1      33.343   7.517  46.934  1.00  0.00    -0.410 NA
HETATM   14  P1  UNL     1      32.758   6.903  48.349  1.00  0.00     0.107 P 
HETATM   15  H5  UNL     1      31.920   8.513  50.524  1.00  0.00     0.320 HD
HETATM   16  H13 UNL     1      33.066   5.499  48.535  1.00  0.00     0.099 HD
ENDROOT
BRANCH   6  17
HETATM   17  C7  UNL     1      28.795   6.440  48.077  1.00  0.00    -0.007 A 
HETATM   18  C8  UNL     1      27.856   7.410  47.740  1.00  0.00     0.013 A 
HETATM   19  C9  UNL     1      26.500   7.216  47.935  1.00  0.00     0.002 A 
HETATM   20  C10 UNL     1      26.074   6.023  48.477  1.00  0.00     0.019 A 
HETATM   21  C11 UNL     1      26.986   5.044  48.818  1.00  0.00     0.011 A 
HETATM   22 BR1  UNL     1      26.435   3.383  49.572  1.00  0.00    -0.051 Br
HETATM   23  C12 UNL     1      28.341   5.252  48.620  1.00  0.00     0.032 A 
ENDBRANCH   6  17
BRANCH   1  24
HETATM   24  O1  UNL     1      31.183  11.955  48.404  1.00  0.00    -0.379 OA
HETATM   25  C1  UNL     1      30.121  12.511  49.110  1.00  0.00     0.203 C 
ENDBRANCH   1  24
TORSDOF 2
ENDMDL
MODEL 8
REMARK VINA RESULT:      -7.1      1.981      2.545
REMARK  2 active torsions:
REMARK  status: ('A' for Active; 'I' for Inactive)
REMARK    1  A    between atoms: O1_2  and  C2_3 
REMARK    2  A    between atoms: C6_8  and  C7_9 
ROOT
HETATM    1  C2  UNL     1      23.967   2.592  50.928  1.00  0.00     0.197 C 
HETATM    2  C3  UNL     1      24.082   3.955  51.281  1.00  0.00    -0.102 C 
HETATM    3  C4  UNL     1      24.162   5.099  51.560  1.00  0.00     0.310 A 
HETATM    4  N1  UNL     1      24.239   6.460  51.872  1.00  0.00     0.138 N 
HETATM    5  C5  UNL     1      24.422   6.331  50.416  1.00  0.00     0.302 A 
HETATM    6  C6  UNL     1      24.672   6.216  49.099  1.00  0.00     0.089 C 
HETATM    7  N2  UNL     1      23.542   5.972  48.192  1.00  0.00    -0.280 NA
HETATM    8  C13 UNL     1      22.853   4.861  48.410  1.00  0.00     0.166 C 
HETATM    9  C14 UNL     1      22.594   3.510  49.224  1.00  0.00     0.083 C 
HETATM   10  C15 UNL     1      22.636   2.372  50.097  1.00  0.00     0.148 C 
HETATM   11  O2  UNL     1      21.466   3.867  48.315  1.00  0.00    -0.327 OA
HETATM   12  C16 UNL     1      20.705   4.954  49.089  1.00  0.00     0.316 C 
HETATM   13  N3  UNL     1      21.405   5.781  49.728  1.00  0.00    -0.410 NA
HETATM   14  P1  UNL     1      22.536   6.724  50.469  1.00  0.00     0.107 P 
HETATM   15  H5  UNL     1      24.084   5.863  52.680  1.00  0.00     0.320 HD
HETATM   16  H13 UNL     1      22.403   8.133  50.156  1.00  0.00     0.099 HD
ENDROOT
BRANCH   6  17
HETATM   17  C7  UNL     1      26.083   6.221  48.689  1.00  0.00    -0.007 A 
HETATM   18  C8  UNL     1      26.874   5.094  48.886  1.00  0.00     0.013 A 
HETATM   19  C9  UNL     1      28.207   5.062  48.518  1.00  0.00     0.002 A 
HETATM   20  C10 UNL     1      28.761   6.182  47.939  1.00  0.00     0.019 A 
HETATM   21  C11 UNL     1      27.996   7.313  47.731  1.00  0.00     0.011 A 
HETATM   22 BR1  UNL     1      28.726   8.883  46.935  1.00  0.00    -0.051 Br
HETATM   23  C12 UNL     1      26.662   7.333  48.106  1.00  0.00     0.032 A 
ENDBRANCH   6  17
BRANCH   1  24
HETATM   24  O1  UNL     1      23.731   1.818  52.051  1.00  0.00    -0.379 OA
HETATM   25  C1  UNL     1      22.572   1.080  51.830  1.00  0.00     0.203 C 
ENDBRANCH   1  24
TORSDOF 2
ENDMDL
MODEL 9
REMARK VINA RESULT:      -7.0      5.964      8.880
REMARK  2 active torsions:
REMARK  status: ('A' for Active; 'I' for Inactive)
REMARK    1  A    between atoms: O1_2  and  C2_3 
REMARK    2  A    between atoms: C6_8  and  C7_9 
ROOT
HETATM    1  C2  UNL     1      31.614   7.206  47.543  1.00  0.00     0.197 C 
HETATM    2  C3  UNL     1      30.416   7.533  46.872  1.00  0.00    -0.102 C 
HETATM    3  C4  UNL     1      29.411   7.825  46.324  1.00  0.00     0.310 A 
HETATM    4  N1  UNL     1      28.219   8.191  45.691  1.00  0.00     0.138 N 
HETATM    5  C5  UNL     1      27.951   8.136  47.138  1.00  0.00     0.302 A 
HETATM    6  C6  UNL     1      27.676   8.008  48.450  1.00  0.00     0.089 C 
HETATM    7  N2  UNL     1      28.108   9.075  49.361  1.00  0.00    -0.280 NA
HETATM    8  C13 UNL     1      29.413   9.307  49.404  1.00  0.00     0.166 C 
HETATM    9  C14 UNL     1      30.908   8.991  48.939  1.00  0.00     0.083 C 
HETATM   10  C15 UNL     1      32.115   8.461  48.371  1.00  0.00     0.148 C 
HETATM   11  O2  UNL     1      30.796  10.265  49.707  1.00  0.00    -0.327 OA
HETATM   12  C16 UNL     1      30.257  11.266  48.673  1.00  0.00     0.316 C 
HETATM   13  N3  UNL     1      29.394  10.831  47.869  1.00  0.00    -0.410 NA
HETATM   14  P1  UNL     1      28.291  10.023  46.946  1.00  0.00     0.107 P 
HETATM   15  H5  UNL     1      28.993   8.039  45.050  1.00  0.00     0.320 HD
HETATM   16  H13 UNL     1      26.995  10.670  46.904  1.00  0.00     0.099 HD
ENDROOT
BRANCH   6  17
HETATM   17  C7  UNL     1      27.069   6.741  48.879  1.00  0.00    -0.007 A 
HETATM   18  C8  UNL     1      27.664   5.529  48.542  1.00  0.00     0.013 A 
HETATM   19  C9  UNL     1      27.121   4.315  48.924  1.00  0.00     0.002 A 
HETATM   20  C10 UNL     1      25.956   4.314  49.659  1.00  0.00     0.019 A 
HETATM   21  C11 UNL     1      25.347   5.504  50.008  1.00  0.00     0.011 A 
HETATM   22 BR1  UNL     1      23.735   5.542  51.023  1.00  0.00    -0.051 Br
HETATM   23  C12 UNL     1      25.901   6.713  49.618  1.00  0.00     0.032 A 
ENDBRANCH   6  17
BRANCH   1  24
HETATM   24  O1  UNL     1      32.647   7.033  46.638  1.00  0.00    -0.379 OA
HETATM   25  C1  UNL     1      33.389   5.926  47.037  1.00  0.00     0.203 C 
ENDBRANCH   1  24
TORSDOF 2
ENDMDL
