MODEL 1
REMARK VINA RESULT:      -7.0      0.000      0.000
REMARK  9 active torsions:
REMARK  status: ('A' for Active; 'I' for Inactive)
REMARK    1  A    between atoms: C2_2  and  O1_3 
REMARK    2  A    between atoms: O1_3  and  C3_4 
REMARK    3  A    between atoms: C5_8  and  N3_9 
REMARK    4  A    between atoms: C12_16  and  N4_17 
REMARK    5  A    between atoms: N4_17  and  C13_18 
REMARK    6  A    between atoms: C13_18  and  C14_19 
REMARK    7  A    between atoms: C14_19  and  C15_20 
REMARK    8  A    between atoms: C15_20  and  C16_21 
REMARK    9  A    between atoms: C16_21  and  O2_22 
ROOT
HETATM    1  C3  UNL     1      24.968   2.370  52.535  1.00  0.00     0.173 C 
HETATM    2  N1  UNL     1      24.149   1.561  53.127  1.00  0.00    -0.220 NA
HETATM    3  C4  UNL     1      24.129   0.142  53.383  1.00  0.00     0.232 C 
HETATM    4  N2  UNL     1      24.979  -0.827  53.395  1.00  0.00    -0.243 NA
HETATM    5  C5  UNL     1      26.369  -1.074  53.177  1.00  0.00     0.374 C 
HETATM    6  C6  UNL     1      27.199   0.166  53.375  1.00  0.00     0.004 A 
HETATM    7  C7  UNL     1      28.171  -0.171  54.315  1.00  0.00     0.012 A 
HETATM    8  C8  UNL     1      29.122   0.758  54.739  1.00  0.00     0.001 A 
HETATM    9  C9  UNL     1      29.081   2.024  54.205  1.00  0.00     0.001 A 
HETATM   10  C10 UNL     1      28.101   2.317  53.275  1.00  0.00     0.010 A 
HETATM   11  C11 UNL     1      27.158   1.431  52.842  1.00  0.00    -0.018 A 
HETATM   12  C12 UNL     1      26.283   2.079  51.859  1.00  0.00     0.193 C 
ENDROOT
BRANCH  12  13
HETATM   13  N4  UNL     1      26.815   3.264  51.256  1.00  0.00    -0.377 N 
HETATM   14  H13 UNL     1      27.328   4.167  51.206  1.00  0.00     0.160 HD
BRANCH  13  15
HETATM   15  C13 UNL     1      26.464   3.260  49.889  1.00  0.00     0.136 C 
BRANCH  15  16
HETATM   16  C14 UNL     1      26.769   4.316  49.176  1.00  0.00    -0.131 C 
BRANCH  16  17
HETATM   17  C15 UNL     1      26.861   5.513  48.618  1.00  0.00     0.099 C 
BRANCH  17  18
HETATM   18  C16 UNL     1      28.199   6.026  48.279  1.00  0.00     0.185 C 
BRANCH  18  19
HETATM   19  O2  UNL     1      29.213   5.134  48.515  1.00  0.00    -0.395 OA
HETATM   20  C17 UNL     1      30.411   5.530  47.941  1.00  0.00     0.201 C 
ENDBRANCH  18  19
ENDBRANCH  17  18
ENDBRANCH  16  17
ENDBRANCH  15  16
ENDBRANCH  13  15
ENDBRANCH  12  13
BRANCH   1  21
HETATM   21  O1  UNL     1      24.340   3.620  52.667  1.00  0.00    -0.306 OA
BRANCH  21  22
HETATM   22  C2  UNL     1      23.266   3.926  51.809  1.00  0.00     0.134 C 
HETATM   23  C1  UNL     1      23.553   5.194  51.487  1.00  0.00     0.038 C 
ENDBRANCH  21  22
ENDBRANCH   1  21
BRANCH   5  24
HETATM   24  N3  UNL     1      26.585  -1.649  51.860  1.00  0.00     0.107 N 
HETATM   25  H6  UNL     1      26.548  -2.691  52.015  1.00  0.00     0.316 HD
HETATM   26  H7  UNL     1      25.744  -1.428  51.289  1.00  0.00     0.316 HD
ENDBRANCH   5  24
TORSDOF 9
ENDMDL
MODEL 2
REMARK VINA RESULT:      -6.6      2.749      6.397
REMARK  9 active torsions:
REMARK  status: ('A' for Active; 'I' for Inactive)
REMARK    1  A    between atoms: C2_2  and  O1_3 
REMARK    2  A    between atoms: O1_3  and  C3_4 
REMARK    3  A    between atoms: C5_8  and  N3_9 
REMARK    4  A    between atoms: C12_16  and  N4_17 
REMARK    5  A    between atoms: N4_17  and  C13_18 
REMARK    6  A    between atoms: C13_18  and  C14_19 
REMARK    7  A    between atoms: C14_19  and  C15_20 
REMARK    8  A    between atoms: C15_20  and  C16_21 
REMARK    9  A    between atoms: C16_21  and  O2_22 
ROOT
HETATM    1  C3  UNL     1      23.486   3.242  50.038  1.00  0.00     0.173 C 
HETATM    2  N1  UNL     1      22.546   4.066  49.704  1.00  0.00    -0.220 NA
HETATM    3  C4  UNL     1      22.312   5.475  49.904  1.00  0.00     0.232 C 
HETATM    4  N2  UNL     1      23.008   6.513  50.221  1.00  0.00    -0.243 NA
HETATM    5  C5  UNL     1      24.350   6.879  50.546  1.00  0.00     0.374 C 
HETATM    6  C6  UNL     1      25.351   5.899  49.994  1.00  0.00     0.004 A 
HETATM    7  C7  UNL     1      26.245   6.652  49.236  1.00  0.00     0.012 A 
HETATM    8  C8  UNL     1      27.315   6.052  48.572  1.00  0.00     0.001 A 
HETATM    9  C9  UNL     1      27.472   4.691  48.682  1.00  0.00     0.001 A 
HETATM   10  C10 UNL     1      26.563   3.981  49.444  1.00  0.00     0.010 A 
HETATM   11  C11 UNL     1      25.507   4.539  50.104  1.00  0.00    -0.018 A 
HETATM   12  C12 UNL     1      24.755   3.495  50.809  1.00  0.00     0.193 C 
ENDROOT
BRANCH  12  13
HETATM   13  N4  UNL     1      25.468   2.272  51.027  1.00  0.00    -0.377 N 
HETATM   14  H13 UNL     1      26.077   1.463  50.794  1.00  0.00     0.160 HD
BRANCH  13  15
HETATM   15  C13 UNL     1      25.252   1.867  52.362  1.00  0.00     0.136 C 
BRANCH  15  16
HETATM   16  C14 UNL     1      25.404   0.597  52.648  1.00  0.00    -0.131 C 
BRANCH  16  17
HETATM   17  C15 UNL     1      25.823  -0.595  53.042  1.00  0.00     0.099 C 
BRANCH  17  18
HETATM   18  C16 UNL     1      27.267  -0.882  52.990  1.00  0.00     0.185 C 
BRANCH  18  19
HETATM   19  O2  UNL     1      27.851  -1.021  54.221  1.00  0.00    -0.395 OA
HETATM   20  C17 UNL     1      28.428   0.157  54.671  1.00  0.00     0.201 C 
ENDBRANCH  18  19
ENDBRANCH  17  18
ENDBRANCH  16  17
ENDBRANCH  15  16
ENDBRANCH  13  15
ENDBRANCH  12  13
BRANCH   1  21
HETATM   21  O1  UNL     1      23.048   2.018  49.503  1.00  0.00    -0.306 OA
BRANCH  21  22
HETATM   22  C2  UNL     1      21.745   1.579  49.809  1.00  0.00     0.134 C 
HETATM   23  C1  UNL     1      21.977   0.840  50.901  1.00  0.00     0.038 C 
ENDBRANCH  21  22
ENDBRANCH   1  21
BRANCH   5  24
HETATM   24  N3  UNL     1      24.502   7.037  51.982  1.00  0.00     0.107 N 
HETATM   25  H6  UNL     1      23.619   6.630  52.390  1.00  0.00     0.316 HD
HETATM   26  H7  UNL     1      25.263   6.394  52.281  1.00  0.00     0.316 HD
ENDBRANCH   5  24
TORSDOF 9
ENDMDL
MODEL 3
REMARK VINA RESULT:      -6.6      2.026      2.655
REMARK  9 active torsions:
REMARK  status: ('A' for Active; 'I' for Inactive)
REMARK    1  A    between atoms: C2_2  and  O1_3 
REMARK    2  A    between atoms: O1_3  and  C3_4 
REMARK    3  A    between atoms: C5_8  and  N3_9 
REMARK    4  A    between atoms: C12_16  and  N4_17 
REMARK    5  A    between atoms: N4_17  and  C13_18 
REMARK    6  A    between atoms: C13_18  and  C14_19 
REMARK    7  A    between atoms: C14_19  and  C15_20 
REMARK    8  A    between atoms: C15_20  and  C16_21 
REMARK    9  A    between atoms: C16_21  and  O2_22 
ROOT
HETATM    1  C3  UNL     1      24.929   2.276  52.575  1.00  0.00     0.173 C 
HETATM    2  N1  UNL     1      24.166   1.438  53.201  1.00  0.00    -0.220 NA
HETATM    3  C4  UNL     1      24.219   0.023  53.472  1.00  0.00     0.232 C 
HETATM    4  N2  UNL     1      25.113  -0.907  53.467  1.00  0.00    -0.243 NA
HETATM    5  C5  UNL     1      26.505  -1.093  53.209  1.00  0.00     0.374 C 
HETATM    6  C6  UNL     1      27.283   0.186  53.369  1.00  0.00     0.004 A 
HETATM    7  C7  UNL     1      28.298  -0.096  54.282  1.00  0.00     0.012 A 
HETATM    8  C8  UNL     1      29.217   0.880  54.666  1.00  0.00     0.001 A 
HETATM    9  C9  UNL     1      29.103   2.137  54.120  1.00  0.00     0.001 A 
HETATM   10  C10 UNL     1      28.082   2.374  53.219  1.00  0.00     0.010 A 
HETATM   11  C11 UNL     1      27.168   1.441  52.824  1.00  0.00    -0.018 A 
HETATM   12  C12 UNL     1      26.235   2.037  51.862  1.00  0.00     0.193 C 
ENDROOT
BRANCH  12  13
HETATM   13  N4  UNL     1      26.694   3.238  51.231  1.00  0.00    -0.377 N 
HETATM   14  H13 UNL     1      27.129   4.180  51.163  1.00  0.00     0.160 HD
BRANCH  13  15
HETATM   15  C13 UNL     1      26.414   3.145  49.850  1.00  0.00     0.136 C 
BRANCH  15  16
HETATM   16  C14 UNL     1      25.340   3.749  49.402  1.00  0.00    -0.131 C 
BRANCH  16  17
HETATM   17  C15 UNL     1      24.424   4.606  48.979  1.00  0.00     0.099 C 
BRANCH  17  18
HETATM   18  C16 UNL     1      23.084   4.090  48.648  1.00  0.00     0.185 C 
BRANCH  18  19
HETATM   19  O2  UNL     1      22.962   2.732  48.785  1.00  0.00    -0.395 OA
HETATM   20  C17 UNL     1      22.411   2.134  47.661  1.00  0.00     0.201 C 
ENDBRANCH  18  19
ENDBRANCH  17  18
ENDBRANCH  16  17
ENDBRANCH  15  16
ENDBRANCH  13  15
ENDBRANCH  12  13
BRANCH   1  21
HETATM   21  O1  UNL     1      24.248   3.498  52.714  1.00  0.00    -0.306 OA
BRANCH  21  22
HETATM   22  C2  UNL     1      22.906   3.570  52.297  1.00  0.00     0.134 C 
HETATM   23  C1  UNL     1      22.706   4.894  52.316  1.00  0.00     0.038 C 
ENDBRANCH  21  22
ENDBRANCH   1  21
BRANCH   5  24
HETATM   24  N3  UNL     1      26.707  -1.673  51.892  1.00  0.00     0.107 N 
HETATM   25  H6  UNL     1      27.726  -1.502  51.679  1.00  0.00     0.316 HD
HETATM   26  H7  UNL     1      26.619  -2.704  51.996  1.00  0.00     0.316 HD
ENDBRANCH   5  24
TORSDOF 9
ENDMDL
MODEL 4
REMARK VINA RESULT:      -6.5      3.066      7.008
REMARK  9 active torsions:
REMARK  status: ('A' for Active; 'I' for Inactive)
REMARK    1  A    between atoms: C2_2  and  O1_3 
REMARK    2  A    between atoms: O1_3  and  C3_4 
REMARK    3  A    between atoms: C5_8  and  N3_9 
REMARK    4  A    between atoms: C12_16  and  N4_17 
REMARK    5  A    between atoms: N4_17  and  C13_18 
REMARK    6  A    between atoms: C13_18  and  C14_19 
REMARK    7  A    between atoms: C14_19  and  C15_20 
REMARK    8  A    between atoms: C15_20  and  C16_21 
REMARK    9  A    between atoms: C16_21  and  O2_22 
ROOT
HETATM    1  C3  UNL     1      23.129   2.940  50.404  1.00  0.00     0.173 C 
HETATM    2  N1  UNL     1      22.232   3.787  50.013  1.00  0.00    -0.220 NA
HETATM    3  C4  UNL     1      22.070   5.216  50.114  1.00  0.00     0.232 C 
HETATM    4  N2  UNL     1      22.819   6.236  50.359  1.00  0.00    -0.243 NA
HETATM    5  C5  UNL     1      24.179   6.555  50.660  1.00  0.00     0.374 C 
HETATM    6  C6  UNL     1      25.127   5.489  50.180  1.00  0.00     0.004 A 
HETATM    7  C7  UNL     1      26.057   6.141  49.373  1.00  0.00     0.012 A 
HETATM    8  C8  UNL     1      27.094   5.442  48.753  1.00  0.00     0.001 A 
HETATM    9  C9  UNL     1      27.181   4.086  48.958  1.00  0.00     0.001 A 
HETATM   10  C10 UNL     1      26.238   3.478  49.766  1.00  0.00     0.010 A 
HETATM   11  C11 UNL     1      25.213   4.134  50.384  1.00  0.00    -0.018 A 
HETATM   12  C12 UNL     1      24.411   3.181  51.158  1.00  0.00     0.193 C 
ENDROOT
BRANCH  12  13
HETATM   13  N4  UNL     1      25.060   1.942  51.462  1.00  0.00    -0.377 N 
HETATM   14  H13 UNL     1      25.586   1.063  51.277  1.00  0.00     0.160 HD
BRANCH  13  15
HETATM   15  C13 UNL     1      24.965   1.722  52.853  1.00  0.00     0.136 C 
BRANCH  15  16
HETATM   16  C14 UNL     1      24.314   0.660  53.262  1.00  0.00    -0.131 C 
BRANCH  16  17
HETATM   17  C15 UNL     1      23.424  -0.280  53.538  1.00  0.00     0.099 C 
BRANCH  17  18
HETATM   18  C16 UNL     1      23.563  -1.024  54.802  1.00  0.00     0.185 C 
BRANCH  18  19
HETATM   19  O2  UNL     1      22.370  -1.423  55.346  1.00  0.00    -0.395 OA
HETATM   20  C17 UNL     1      21.381  -1.591  54.388  1.00  0.00     0.201 C 
ENDBRANCH  18  19
ENDBRANCH  17  18
ENDBRANCH  16  17
ENDBRANCH  15  16
ENDBRANCH  13  15
ENDBRANCH  12  13
BRANCH   1  21
HETATM   21  O1  UNL     1      22.627   1.706  49.955  1.00  0.00    -0.306 OA
BRANCH  21  22
HETATM   22  C2  UNL     1      21.240   1.477  50.031  1.00  0.00     0.134 C 
HETATM   23  C1  UNL     1      21.205   0.395  50.819  1.00  0.00     0.038 C 
ENDBRANCH  21  22
ENDBRANCH   1  21
BRANCH   5  24
HETATM   24  N3  UNL     1      24.341   6.804  52.082  1.00  0.00     0.107 N 
HETATM   25  H6  UNL     1      25.226   6.292  52.343  1.00  0.00     0.316 HD
HETATM   26  H7  UNL     1      24.569   7.814  52.191  1.00  0.00     0.316 HD
ENDBRANCH   5  24
TORSDOF 9
ENDMDL
MODEL 5
REMARK VINA RESULT:      -6.1      3.354      6.068
REMARK  9 active torsions:
REMARK  status: ('A' for Active; 'I' for Inactive)
REMARK    1  A    between atoms: C2_2  and  O1_3 
REMARK    2  A    between atoms: O1_3  and  C3_4 
REMARK    3  A    between atoms: C5_8  and  N3_9 
REMARK    4  A    between atoms: C12_16  and  N4_17 
REMARK    5  A    between atoms: N4_17  and  C13_18 
REMARK    6  A    between atoms: C13_18  and  C14_19 
REMARK    7  A    between atoms: C14_19  and  C15_20 
REMARK    8  A    between atoms: C15_20  and  C16_21 
REMARK    9  A    between atoms: C16_21  and  O2_22 
ROOT
HETATM    1  C3  UNL     1      24.927   1.156  53.027  1.00  0.00     0.173 C 
HETATM    2  N1  UNL     1      24.828  -0.051  53.483  1.00  0.00    -0.220 NA
HETATM    3  C4  UNL     1      23.734  -0.894  53.897  1.00  0.00     0.232 C 
HETATM    4  N2  UNL     1      22.454  -0.928  53.738  1.00  0.00    -0.243 NA
HETATM    5  C5  UNL     1      21.407  -0.200  53.095  1.00  0.00     0.374 C 
HETATM    6  C6  UNL     1      21.916   0.618  51.938  1.00  0.00     0.004 A 
HETATM    7  C7  UNL     1      21.154   0.236  50.836  1.00  0.00     0.012 A 
HETATM    8  C8  UNL     1      21.364   0.802  49.579  1.00  0.00     0.001 A 
HETATM    9  C9  UNL     1      22.347   1.755  49.447  1.00  0.00     0.001 A 
HETATM   10  C10 UNL     1      23.081   2.104  50.566  1.00  0.00     0.010 A 
HETATM   11  C11 UNL     1      22.899   1.568  51.807  1.00  0.00    -0.018 A 
HETATM   12  C12 UNL     1      23.847   2.170  52.751  1.00  0.00     0.193 C 
ENDROOT
BRANCH  12  13
HETATM   13  N4  UNL     1      24.416   3.415  52.333  1.00  0.00    -0.377 N 
HETATM   14  H13 UNL     1      25.055   4.053  51.816  1.00  0.00     0.160 HD
BRANCH  13  15
HETATM   15  C13 UNL     1      23.727   4.458  52.990  1.00  0.00     0.136 C 
BRANCH  15  16
HETATM   16  C14 UNL     1      22.827   5.123  52.307  1.00  0.00    -0.131 C 
BRANCH  16  17
HETATM   17  C15 UNL     1      22.036   5.646  51.384  1.00  0.00     0.099 C 
BRANCH  17  18
HETATM   18  C16 UNL     1      20.799   4.927  51.033  1.00  0.00     0.185 C 
BRANCH  18  19
HETATM   19  O2  UNL     1      20.437   3.968  51.943  1.00  0.00    -0.395 OA
HETATM   20  C17 UNL     1      19.258   3.326  51.595  1.00  0.00     0.201 C 
ENDBRANCH  18  19
ENDBRANCH  17  18
ENDBRANCH  16  17
ENDBRANCH  15  16
ENDBRANCH  13  15
ENDBRANCH  12  13
BRANCH   1  21
HETATM   21  O1  UNL     1      26.311   1.318  52.838  1.00  0.00    -0.306 OA
BRANCH  21  22
HETATM   22  C2  UNL     1      27.164   1.155  53.946  1.00  0.00     0.134 C 
HETATM   23  C1  UNL     1      28.356   1.093  53.340  1.00  0.00     0.038 C 
ENDBRANCH  21  22
ENDBRANCH   1  21
BRANCH   5  24
HETATM   24  N3  UNL     1      20.698   0.629  54.055  1.00  0.00     0.107 N 
HETATM   25  H6  UNL     1      20.019   1.189  53.474  1.00  0.00     0.316 HD
HETATM   26  H7  UNL     1      20.106  -0.006  54.629  1.00  0.00     0.316 HD
ENDBRANCH   5  24
TORSDOF 9
ENDMDL
MODEL 6
REMARK VINA RESULT:      -6.1      2.449      4.933
REMARK  9 active torsions:
REMARK  status: ('A' for Active; 'I' for Inactive)
REMARK    1  A    between atoms: C2_2  and  O1_3 
REMARK    2  A    between atoms: O1_3  and  C3_4 
REMARK    3  A    between atoms: C5_8  and  N3_9 
REMARK    4  A    between atoms: C12_16  and  N4_17 
REMARK    5  A    between atoms: N4_17  and  C13_18 
REMARK    6  A    between atoms: C13_18  and  C14_19 
REMARK    7  A    between atoms: C14_19  and  C15_20 
REMARK    8  A    between atoms: C15_20  and  C16_21 
REMARK    9  A    between atoms: C16_21  and  O2_22 
ROOT
HETATM    1  C3  UNL     1      25.059   1.585  52.450  1.00  0.00     0.173 C 
HETATM    2  N1  UNL     1      24.973   0.375  52.901  1.00  0.00    -0.220 NA
HETATM    3  C4  UNL     1      23.888  -0.488  53.296  1.00  0.00     0.232 C 
HETATM    4  N2  UNL     1      22.612  -0.543  53.117  1.00  0.00    -0.243 NA
HETATM    5  C5  UNL     1      21.562   0.169  52.461  1.00  0.00     0.374 C 
HETATM    6  C6  UNL     1      22.074   0.999  51.314  1.00  0.00     0.004 A 
HETATM    7  C7  UNL     1      21.335   0.608  50.200  1.00  0.00     0.012 A 
HETATM    8  C8  UNL     1      21.555   1.183  48.948  1.00  0.00     0.001 A 
HETATM    9  C9  UNL     1      22.523   2.152  48.834  1.00  0.00     0.001 A 
HETATM   10  C10 UNL     1      23.233   2.510  49.965  1.00  0.00     0.010 A 
HETATM   11  C11 UNL     1      23.042   1.967  51.202  1.00  0.00    -0.018 A 
HETATM   12  C12 UNL     1      23.966   2.581  52.161  1.00  0.00     0.193 C 
ENDROOT
BRANCH  12  13
HETATM   13  N4  UNL     1      24.519   3.838  51.756  1.00  0.00    -0.377 N 
HETATM   14  H13 UNL     1      25.193   4.488  51.302  1.00  0.00     0.160 HD
BRANCH  13  15
HETATM   15  C13 UNL     1      23.679   4.866  52.235  1.00  0.00     0.136 C 
BRANCH  15  16
HETATM   16  C14 UNL     1      23.749   6.037  51.649  1.00  0.00    -0.131 C 
BRANCH  16  17
HETATM   17  C15 UNL     1      24.093   7.123  50.975  1.00  0.00     0.099 C 
BRANCH  17  18
HETATM   18  C16 UNL     1      25.434   7.174  50.368  1.00  0.00     0.185 C 
BRANCH  18  19
HETATM   19  O2  UNL     1      25.851   5.981  49.838  1.00  0.00    -0.395 OA
HETATM   20  C17 UNL     1      26.672   6.150  48.733  1.00  0.00     0.201 C 
ENDBRANCH  18  19
ENDBRANCH  17  18
ENDBRANCH  16  17
ENDBRANCH  15  16
ENDBRANCH  13  15
ENDBRANCH  12  13
BRANCH   1  21
HETATM   21  O1  UNL     1      26.442   1.771  52.282  1.00  0.00    -0.306 OA
BRANCH  21  22
HETATM   22  C2  UNL     1      27.310   1.295  53.284  1.00  0.00     0.134 C 
HETATM   23  C1  UNL     1      28.157   2.327  53.395  1.00  0.00     0.038 C 
ENDBRANCH  21  22
ENDBRANCH   1  21
BRANCH   5  24
HETATM   24  N3  UNL     1      20.825   0.983  53.413  1.00  0.00     0.107 N 
HETATM   25  H6  UNL     1      19.975   1.311  52.881  1.00  0.00     0.316 HD
HETATM   26  H7  UNL     1      20.457   0.340  54.144  1.00  0.00     0.316 HD
ENDBRANCH   5  24
TORSDOF 9
ENDMDL
MODEL 7
REMARK VINA RESULT:      -6.0      3.733      6.908
REMARK  9 active torsions:
REMARK  status: ('A' for Active; 'I' for Inactive)
REMARK    1  A    between atoms: C2_2  and  O1_3 
REMARK    2  A    between atoms: O1_3  and  C3_4 
REMARK    3  A    between atoms: C5_8  and  N3_9 
REMARK    4  A    between atoms: C12_16  and  N4_17 
REMARK    5  A    between atoms: N4_17  and  C13_18 
REMARK    6  A    between atoms: C13_18  and  C14_19 
REMARK    7  A    between atoms: C14_19  and  C15_20 
REMARK    8  A    between atoms: C15_20  and  C16_21 
REMARK    9  A    between atoms: C16_21  and  O2_22 
ROOT
HETATM    1  C3  UNL     1      20.975   2.967  52.229  1.00  0.00     0.173 C 
HETATM    2  N1  UNL     1      21.198   4.240  52.295  1.00  0.00    -0.220 NA
HETATM    3  C4  UNL     1      22.328   5.089  52.009  1.00  0.00     0.232 C 
HETATM    4  N2  UNL     1      23.428   5.005  51.342  1.00  0.00    -0.243 NA
HETATM    5  C5  UNL     1      24.153   4.081  50.529  1.00  0.00     0.374 C 
HETATM    6  C6  UNL     1      23.253   3.041  49.917  1.00  0.00     0.004 A 
HETATM    7  C7  UNL     1      23.482   3.098  48.544  1.00  0.00     0.012 A 
HETATM    8  C8  UNL     1      22.803   2.259  47.661  1.00  0.00     0.001 A 
HETATM    9  C9  UNL     1      21.895   1.365  48.177  1.00  0.00     0.001 A 
HETATM   10  C10 UNL     1      21.697   1.341  49.545  1.00  0.00     0.010 A 
HETATM   11  C11 UNL     1      22.346   2.149  50.433  1.00  0.00    -0.018 A 
HETATM   12  C12 UNL     1      21.892   1.852  51.796  1.00  0.00     0.193 C 
ENDROOT
BRANCH  12  13
HETATM   13  N4  UNL     1      21.258   0.580  51.964  1.00  0.00    -0.377 N 
HETATM   14  H13 UNL     1      20.601  -0.200  51.757  1.00  0.00     0.160 HD
BRANCH  13  15
HETATM   15  C13 UNL     1      21.839  -0.059  53.082  1.00  0.00     0.136 C 
BRANCH  15  16
HETATM   16  C14 UNL     1      23.147  -0.112  53.144  1.00  0.00    -0.131 C 
BRANCH  16  17
HETATM   17  C15 UNL     1      24.425  -0.069  53.487  1.00  0.00     0.099 C 
BRANCH  17  18
HETATM   18  C16 UNL     1      24.864  -0.859  54.650  1.00  0.00     0.185 C 
BRANCH  18  19
HETATM   19  O2  UNL     1      26.107  -0.519  55.116  1.00  0.00    -0.395 OA
HETATM   20  C17 UNL     1      26.627   0.595  54.474  1.00  0.00     0.201 C 
ENDBRANCH  18  19
ENDBRANCH  17  18
ENDBRANCH  16  17
ENDBRANCH  15  16
ENDBRANCH  13  15
ENDBRANCH  12  13
BRANCH   1  21
HETATM   21  O1  UNL     1      19.643   2.849  52.663  1.00  0.00    -0.306 OA
BRANCH  21  22
HETATM   22  C2  UNL     1      18.614   3.251  51.790  1.00  0.00     0.134 C 
HETATM   23  C1  UNL     1      18.105   2.065  51.434  1.00  0.00     0.038 C 
ENDBRANCH  21  22
ENDBRANCH   1  21
BRANCH   5  24
HETATM   24  N3  UNL     1      25.228   3.466  51.291  1.00  0.00     0.107 N 
HETATM   25  H6  UNL     1      25.959   3.222  50.571  1.00  0.00     0.316 HD
HETATM   26  H7  UNL     1      25.658   4.216  51.871  1.00  0.00     0.316 HD
ENDBRANCH   5  24
TORSDOF 9
ENDMDL
MODEL 8
REMARK VINA RESULT:      -6.0      2.830      4.582
REMARK  9 active torsions:
REMARK  status: ('A' for Active; 'I' for Inactive)
REMARK    1  A    between atoms: C2_2  and  O1_3 
REMARK    2  A    between atoms: O1_3  and  C3_4 
REMARK    3  A    between atoms: C5_8  and  N3_9 
REMARK    4  A    between atoms: C12_16  and  N4_17 
REMARK    5  A    between atoms: N4_17  and  C13_18 
REMARK    6  A    between atoms: C13_18  and  C14_19 
REMARK    7  A    between atoms: C14_19  and  C15_20 
REMARK    8  A    between atoms: C15_20  and  C16_21 
REMARK    9  A    between atoms: C16_21  and  O2_22 
ROOT
HETATM    1  C3  UNL     1      24.071   3.259  50.483  1.00  0.00     0.173 C 
HETATM    2  N1  UNL     1      25.240   3.066  49.963  1.00  0.00    -0.220 NA
HETATM    3  C4  UNL     1      26.544   2.741  50.485  1.00  0.00     0.232 C 
HETATM    4  N2  UNL     1      27.030   2.252  51.575  1.00  0.00    -0.243 NA
HETATM    5  C5  UNL     1      26.602   1.765  52.848  1.00  0.00     0.374 C 
HETATM    6  C6  UNL     1      25.173   1.293  52.820  1.00  0.00     0.004 A 
HETATM    7  C7  UNL     1      25.194  -0.018  53.290  1.00  0.00     0.012 A 
HETATM    8  C8  UNL     1      24.023  -0.769  53.396  1.00  0.00     0.001 A 
HETATM    9  C9  UNL     1      22.836  -0.183  53.024  1.00  0.00     0.001 A 
HETATM   10  C10 UNL     1      22.859   1.119  52.562  1.00  0.00     0.010 A 
HETATM   11  C11 UNL     1      23.988   1.878  52.447  1.00  0.00    -0.018 A 
HETATM   12  C12 UNL     1      23.642   3.205  51.927  1.00  0.00     0.193 C 
ENDROOT
BRANCH  12  13
HETATM   13  N4  UNL     1      22.265   3.573  52.060  1.00  0.00    -0.377 N 
HETATM   14  H13 UNL     1      21.232   3.450  52.035  1.00  0.00     0.160 HD
BRANCH  13  15
HETATM   15  C13 UNL     1      22.206   4.917  52.489  1.00  0.00     0.136 C 
BRANCH  15  16
HETATM   16  C14 UNL     1      21.923   5.833  51.595  1.00  0.00    -0.131 C 
BRANCH  16  17
HETATM   17  C15 UNL     1      21.832   6.604  50.523  1.00  0.00     0.099 C 
BRANCH  17  18
HETATM   18  C16 UNL     1      22.990   7.441  50.163  1.00  0.00     0.185 C 
BRANCH  18  19
HETATM   19  O2  UNL     1      24.065   6.731  49.698  1.00  0.00    -0.395 OA
HETATM   20  C17 UNL     1      25.209   6.947  50.452  1.00  0.00     0.201 C 
ENDBRANCH  18  19
ENDBRANCH  17  18
ENDBRANCH  16  17
ENDBRANCH  15  16
ENDBRANCH  13  15
ENDBRANCH  12  13
BRANCH   1  21
HETATM   21  O1  UNL     1      23.262   3.538  49.368  1.00  0.00    -0.306 OA
BRANCH  21  22
HETATM   22  C2  UNL     1      23.051   2.519  48.420  1.00  0.00     0.134 C 
HETATM   23  C1  UNL     1      21.940   1.948  48.904  1.00  0.00     0.038 C 
ENDBRANCH  21  22
ENDBRANCH   1  21
BRANCH   5  24
HETATM   24  N3  UNL     1      26.805   2.773  53.875  1.00  0.00     0.107 N 
HETATM   25  H6  UNL     1      26.098   2.539  54.621  1.00  0.00     0.316 HD
HETATM   26  H7  UNL     1      27.732   2.583  54.309  1.00  0.00     0.316 HD
ENDBRANCH   5  24
TORSDOF 9
ENDMDL
MODEL 9
REMARK VINA RESULT:      -5.9      2.993      4.232
REMARK  9 active torsions:
REMARK  status: ('A' for Active; 'I' for Inactive)
REMARK    1  A    between atoms: C2_2  and  O1_3 
REMARK    2  A    between atoms: O1_3  and  C3_4 
REMARK    3  A    between atoms: C5_8  and  N3_9 
REMARK    4  A    between atoms: C12_16  and  N4_17 
REMARK    5  A    between atoms: N4_17  and  C13_18 
REMARK    6  A    between atoms: C13_18  and  C14_19 
REMARK    7  A    between atoms: C14_19  and  C15_20 
REMARK    8  A    between atoms: C15_20  and  C16_21 
REMARK    9  A    between atoms: C16_21  and  O2_22 
ROOT
HETATM    1  C3  UNL     1      23.290   4.484  50.987  1.00  0.00     0.173 C 
HETATM    2  N1  UNL     1      22.030   4.730  50.822  1.00  0.00    -0.220 NA
HETATM    3  C4  UNL     1      20.919   4.007  50.254  1.00  0.00     0.232 C 
HETATM    4  N2  UNL     1      20.645   2.784  49.949  1.00  0.00    -0.243 NA
HETATM    5  C5  UNL     1      21.234   1.483  49.985  1.00  0.00     0.374 C 
HETATM    6  C6  UNL     1      22.322   1.385  51.022  1.00  0.00     0.004 A 
HETATM    7  C7  UNL     1      21.978   0.307  51.835  1.00  0.00     0.012 A 
HETATM    8  C8  UNL     1      22.778  -0.070  52.914  1.00  0.00     0.001 A 
HETATM    9  C9  UNL     1      23.923   0.649  53.161  1.00  0.00     0.001 A 
HETATM   10  C10 UNL     1      24.227   1.712  52.330  1.00  0.00     0.010 A 
HETATM   11  C11 UNL     1      23.465   2.104  51.268  1.00  0.00    -0.018 A 
HETATM   12  C12 UNL     1      24.086   3.260  50.613  1.00  0.00     0.193 C 
ENDROOT
BRANCH  12  13
HETATM   13  N4  UNL     1      25.475   3.452  50.902  1.00  0.00    -0.377 N 
HETATM   14  H13 UNL     1      26.316   3.652  51.481  1.00  0.00     0.160 HD
BRANCH  13  15
HETATM   15  C13 UNL     1      26.205   3.268  49.707  1.00  0.00     0.136 C 
BRANCH  15  16
HETATM   16  C14 UNL     1      26.906   4.280  49.257  1.00  0.00    -0.131 C 
BRANCH  16  17
HETATM   17  C15 UNL     1      27.386   5.330  48.609  1.00  0.00     0.099 C 
BRANCH  17  18
HETATM   18  C16 UNL     1      28.819   5.345  48.267  1.00  0.00     0.185 C 
BRANCH  18  19
HETATM   19  O2  UNL     1      29.323   6.599  48.039  1.00  0.00    -0.395 OA
HETATM   20  C17 UNL     1      30.590   6.767  48.577  1.00  0.00     0.201 C 
ENDBRANCH  18  19
ENDBRANCH  17  18
ENDBRANCH  16  17
ENDBRANCH  15  16
ENDBRANCH  13  15
ENDBRANCH  12  13
BRANCH   1  21
HETATM   21  O1  UNL     1      23.767   5.648  51.615  1.00  0.00    -0.306 OA
BRANCH  21  22
HETATM   22  C2  UNL     1      23.643   6.875  50.937  1.00  0.00     0.134 C 
HETATM   23  C1  UNL     1      24.928   7.158  50.688  1.00  0.00     0.038 C 
ENDBRANCH  21  22
ENDBRANCH   1  21
BRANCH   5  24
HETATM   24  N3  UNL     1      21.724   1.108  48.669  1.00  0.00     0.107 N 
HETATM   25  H6  UNL     1      22.774   1.168  48.749  1.00  0.00     0.316 HD
HETATM   26  H7  UNL     1      21.518   0.096  48.544  1.00  0.00     0.316 HD
ENDBRANCH   5  24
TORSDOF 9
ENDMDL
