MODEL 1
REMARK VINA RESULT:      -7.0      0.000      0.000
REMARK  6 active torsions:
REMARK  status: ('A' for Active; 'I' for Inactive)
REMARK    1  A    between atoms: C2_3  and  N2_4 
REMARK    2  A    between atoms: C2_3  and  C3_5 
REMARK    3  A    between atoms: C6_8  and  C7_9 
REMARK    4  A    between atoms: C7_9  and  N3_10 
REMARK    5  A    between atoms: C12_17  and  O1_18 
REMARK    6  A    between atoms: O1_18  and  C13_19 
ROOT
HETATM    1  N1  UNL     1      28.031  -2.927  52.777  1.00  0.00    -0.195 NA
HETATM    2  C1  UNL     1      27.917  -1.823  53.093  1.00  0.00     0.100 C 
HETATM    3  C2  UNL     1      27.790  -0.434  53.484  1.00  0.00     0.356 C 
ENDROOT
BRANCH   3   4
HETATM    4  N2  UNL     1      28.012  -0.250  54.911  1.00  0.00     0.100 N 
HETATM    5  H2  UNL     1      27.174   0.256  55.305  1.00  0.00     0.315 HD
HETATM    6  H3  UNL     1      28.186  -1.165  55.385  1.00  0.00     0.315 HD
ENDBRANCH   3   4
BRANCH   3   7
HETATM    7  C3  UNL     1      26.426   0.066  53.179  1.00  0.00    -0.009 A 
HETATM    8  C4  UNL     1      26.312   1.262  52.504  1.00  0.00     0.011 A 
HETATM    9  C5  UNL     1      25.103   1.807  52.176  1.00  0.00     0.012 A 
HETATM   10  C6  UNL     1      23.958   1.136  52.531  1.00  0.00    -0.007 A 
HETATM   11  C12 UNL     1      23.949  -0.064  53.205  1.00  0.00     0.083 A 
HETATM   12  C14 UNL     1      25.224  -0.573  53.515  1.00  0.00     0.048 A 
BRANCH  10  13
HETATM   13  C7  UNL     1      22.621   1.645  52.218  1.00  0.00     0.158 C 
BRANCH  13  14
HETATM   14  N3  UNL     1      22.432   1.853  50.817  1.00  0.00    -0.406 N 
HETATM   15  C8  UNL     1      21.665   0.846  50.166  1.00  0.00     0.132 C 
HETATM   16  C9  UNL     1      21.166   1.285  48.813  1.00  0.00     0.121 C 
HETATM   17  N4  UNL     1      20.295   2.406  48.999  1.00  0.00    -0.253 NA
HETATM   18  I1  UNL     1      19.823   3.431  47.282  1.00  0.00     0.020 I 
HETATM   19  C10 UNL     1      20.667   3.266  50.081  1.00  0.00     0.121 C 
HETATM   20  C11 UNL     1      22.164   3.191  50.417  1.00  0.00     0.132 C 
ENDBRANCH  13  14
ENDBRANCH  10  13
BRANCH  11  21
HETATM   21  O1  UNL     1      23.062  -0.925  53.673  1.00  0.00    -0.290 OA
BRANCH  21  22
HETATM   22  C13 UNL     1      22.280  -1.147  54.772  1.00  0.00     0.505 C 
HETATM   23  F1  UNL     1      21.547   0.019  55.084  1.00  0.00    -0.184 F 
HETATM   24  F2  UNL     1      23.067  -1.387  55.920  1.00  0.00    -0.184 F 
ENDBRANCH  21  22
ENDBRANCH  11  21
ENDBRANCH   3   7
TORSDOF 6
ENDMDL
MODEL 2
REMARK VINA RESULT:      -7.0      1.959      2.479
REMARK  6 active torsions:
REMARK  status: ('A' for Active; 'I' for Inactive)
REMARK    1  A    between atoms: C2_3  and  N2_4 
REMARK    2  A    between atoms: C2_3  and  C3_5 
REMARK    3  A    between atoms: C6_8  and  C7_9 
REMARK    4  A    between atoms: C7_9  and  N3_10 
REMARK    5  A    between atoms: C12_17  and  O1_18 
REMARK    6  A    between atoms: O1_18  and  C13_19 
ROOT
HETATM    1  N1  UNL     1      29.419   1.816  54.849  1.00  0.00    -0.195 NA
HETATM    2  C1  UNL     1      28.692   0.949  54.623  1.00  0.00     0.100 C 
HETATM    3  C2  UNL     1      27.782  -0.145  54.356  1.00  0.00     0.356 C 
ENDROOT
BRANCH   3   4
HETATM    4  N2  UNL     1      28.425  -1.216  53.608  1.00  0.00     0.100 N 
HETATM    5  H2  UNL     1      27.827  -1.427  52.766  1.00  0.00     0.315 HD
HETATM    6  H3  UNL     1      29.405  -0.957  53.349  1.00  0.00     0.315 HD
ENDBRANCH   3   4
BRANCH   3   7
HETATM    7  C3  UNL     1      26.628   0.327  53.549  1.00  0.00    -0.009 A 
HETATM    8  C4  UNL     1      26.890   1.103  52.440  1.00  0.00     0.011 A 
HETATM    9  C5  UNL     1      25.900   1.585  51.632  1.00  0.00     0.012 A 
HETATM   10  C6  UNL     1      24.594   1.285  51.937  1.00  0.00    -0.007 A 
HETATM   11  C12 UNL     1      24.214   0.520  53.016  1.00  0.00     0.083 A 
HETATM   12  C14 UNL     1      25.279   0.053  53.809  1.00  0.00     0.048 A 
BRANCH  10  13
HETATM   13  C7  UNL     1      23.470   1.757  51.126  1.00  0.00     0.158 C 
BRANCH  13  14
HETATM   14  N3  UNL     1      23.572   3.147  50.811  1.00  0.00    -0.406 N 
HETATM   15  C8  UNL     1      23.269   3.472  49.458  1.00  0.00     0.132 C 
HETATM   16  C9  UNL     1      23.009   4.943  49.263  1.00  0.00     0.121 C 
HETATM   17  N4  UNL     1      21.861   5.303  50.038  1.00  0.00    -0.253 NA
HETATM   18  I1  UNL     1      21.562   7.324  50.259  1.00  0.00     0.020 I 
HETATM   19  C10 UNL     1      21.730   4.579  51.265  1.00  0.00     0.121 C 
HETATM   20  C11 UNL     1      23.071   4.046  51.791  1.00  0.00     0.132 C 
ENDBRANCH  13  14
ENDBRANCH  10  13
BRANCH  11  21
HETATM   21  O1  UNL     1      23.097   0.069  53.561  1.00  0.00    -0.290 OA
BRANCH  21  22
HETATM   22  C13 UNL     1      22.649  -0.921  54.389  1.00  0.00     0.505 C 
HETATM   23  F1  UNL     1      21.950  -1.894  53.641  1.00  0.00    -0.184 F 
HETATM   24  F2  UNL     1      21.693  -0.428  55.306  1.00  0.00    -0.184 F 
ENDBRANCH  21  22
ENDBRANCH  11  21
ENDBRANCH   3   7
TORSDOF 6
ENDMDL
MODEL 3
REMARK VINA RESULT:      -7.0      1.000      1.517
REMARK  6 active torsions:
REMARK  status: ('A' for Active; 'I' for Inactive)
REMARK    1  A    between atoms: C2_3  and  N2_4 
REMARK    2  A    between atoms: C2_3  and  C3_5 
REMARK    3  A    between atoms: C6_8  and  C7_9 
REMARK    4  A    between atoms: C7_9  and  N3_10 
REMARK    5  A    between atoms: C12_17  and  O1_18 
REMARK    6  A    between atoms: O1_18  and  C13_19 
ROOT
HETATM    1  N1  UNL     1      29.409   1.883  54.624  1.00  0.00    -0.195 NA
HETATM    2  C1  UNL     1      28.654   1.011  54.573  1.00  0.00     0.100 C 
HETATM    3  C2  UNL     1      27.713  -0.088  54.524  1.00  0.00     0.356 C 
ENDROOT
BRANCH   3   4
HETATM    4  N2  UNL     1      28.181  -1.165  53.663  1.00  0.00     0.100 N 
HETATM    5  H2  UNL     1      29.006  -0.804  53.113  1.00  0.00     0.315 HD
HETATM    6  H3  UNL     1      28.414  -2.018  54.221  1.00  0.00     0.315 HD
ENDBRANCH   3   4
BRANCH   3   7
HETATM    7  C3  UNL     1      26.408   0.372  53.988  1.00  0.00    -0.009 A 
HETATM    8  C4  UNL     1      26.343   1.635  53.441  1.00  0.00     0.011 A 
HETATM    9  C5  UNL     1      25.191   2.152  52.920  1.00  0.00     0.012 A 
HETATM   10  C6  UNL     1      24.053   1.381  52.943  1.00  0.00    -0.007 A 
HETATM   11  C12 UNL     1      23.998   0.108  53.463  1.00  0.00     0.083 A 
HETATM   12  C14 UNL     1      25.216  -0.367  53.983  1.00  0.00     0.048 A 
BRANCH  10  13
HETATM   13  C7  UNL     1      22.775   1.853  52.405  1.00  0.00     0.158 C 
BRANCH  13  14
HETATM   14  N3  UNL     1      22.779   1.929  50.979  1.00  0.00    -0.406 N 
HETATM   15  C8  UNL     1      21.859   1.052  50.336  1.00  0.00     0.132 C 
HETATM   16  C9  UNL     1      21.614   1.427  48.898  1.00  0.00     0.121 C 
HETATM   17  N4  UNL     1      21.025   2.732  48.868  1.00  0.00    -0.253 NA
HETATM   18  I1  UNL     1      20.983   3.623  47.017  1.00  0.00     0.020 I 
HETATM   19  C10 UNL     1      21.486   3.608  49.902  1.00  0.00     0.121 C 
HETATM   20  C11 UNL     1      22.881   3.234  50.425  1.00  0.00     0.132 C 
ENDBRANCH  13  14
ENDBRANCH  10  13
BRANCH  11  21
HETATM   21  O1  UNL     1      23.104  -0.851  53.629  1.00  0.00    -0.290 OA
BRANCH  21  22
HETATM   22  C13 UNL     1      22.204  -1.311  54.550  1.00  0.00     0.505 C 
HETATM   23  F1  UNL     1      21.573  -0.222  55.190  1.00  0.00    -0.184 F 
HETATM   24  F2  UNL     1      22.852  -2.007  55.595  1.00  0.00    -0.184 F 
ENDBRANCH  21  22
ENDBRANCH  11  21
ENDBRANCH   3   7
TORSDOF 6
ENDMDL
MODEL 4
REMARK VINA RESULT:      -7.0      1.852      2.051
REMARK  6 active torsions:
REMARK  status: ('A' for Active; 'I' for Inactive)
REMARK    1  A    between atoms: C2_3  and  N2_4 
REMARK    2  A    between atoms: C2_3  and  C3_5 
REMARK    3  A    between atoms: C6_8  and  C7_9 
REMARK    4  A    between atoms: C7_9  and  N3_10 
REMARK    5  A    between atoms: C12_17  and  O1_18 
REMARK    6  A    between atoms: O1_18  and  C13_19 
ROOT
HETATM    1  N1  UNL     1      28.389  -3.014  52.864  1.00  0.00    -0.195 NA
HETATM    2  C1  UNL     1      28.368  -1.889  53.119  1.00  0.00     0.100 C 
HETATM    3  C2  UNL     1      28.358  -0.475  53.432  1.00  0.00     0.356 C 
ENDROOT
BRANCH   3   4
HETATM    4  N2  UNL     1      28.631  -0.230  54.841  1.00  0.00     0.100 N 
HETATM    5  H2  UNL     1      28.798  -1.162  55.305  1.00  0.00     0.315 HD
HETATM    6  H3  UNL     1      29.437   0.426  54.959  1.00  0.00     0.315 HD
ENDBRANCH   3   4
BRANCH   3   7
HETATM    7  C3  UNL     1      27.029   0.113  53.130  1.00  0.00    -0.009 A 
HETATM    8  C4  UNL     1      26.992   1.360  52.545  1.00  0.00     0.011 A 
HETATM    9  C5  UNL     1      25.821   1.987  52.226  1.00  0.00     0.012 A 
HETATM   10  C6  UNL     1      24.635   1.348  52.498  1.00  0.00    -0.007 A 
HETATM   11  C12 UNL     1      24.549   0.103  53.079  1.00  0.00     0.083 A 
HETATM   12  C14 UNL     1      25.789  -0.489  53.383  1.00  0.00     0.048 A 
BRANCH  10  13
HETATM   13  C7  UNL     1      23.334   1.944  52.189  1.00  0.00     0.158 C 
BRANCH  13  14
HETATM   14  N3  UNL     1      23.455   3.213  51.545  1.00  0.00    -0.406 N 
HETATM   15  C8  UNL     1      22.997   3.240  50.196  1.00  0.00     0.132 C 
HETATM   16  C9  UNL     1      22.779   4.642  49.690  1.00  0.00     0.121 C 
HETATM   17  N4  UNL     1      21.754   5.251  50.482  1.00  0.00    -0.253 NA
HETATM   18  I1  UNL     1      21.574   7.285  50.252  1.00  0.00     0.020 I 
HETATM   19  C10 UNL     1      21.749   4.839  51.852  1.00  0.00     0.121 C 
HETATM   20  C11 UNL     1      23.121   4.347  52.335  1.00  0.00     0.132 C 
ENDBRANCH  13  14
ENDBRANCH  10  13
BRANCH  11  21
HETATM   21  O1  UNL     1      23.609  -0.746  53.456  1.00  0.00    -0.290 OA
BRANCH  21  22
HETATM   22  C13 UNL     1      22.661  -0.913  54.426  1.00  0.00     0.505 C 
HETATM   23  F1  UNL     1      23.278  -1.259  55.648  1.00  0.00    -0.184 F 
HETATM   24  F2  UNL     1      21.817  -2.009  54.134  1.00  0.00    -0.184 F 
ENDBRANCH  21  22
ENDBRANCH  11  21
ENDBRANCH   3   7
TORSDOF 6
ENDMDL
MODEL 5
REMARK VINA RESULT:      -6.7      1.984      2.494
REMARK  6 active torsions:
REMARK  status: ('A' for Active; 'I' for Inactive)
REMARK    1  A    between atoms: C2_3  and  N2_4 
REMARK    2  A    between atoms: C2_3  and  C3_5 
REMARK    3  A    between atoms: C6_8  and  C7_9 
REMARK    4  A    between atoms: C7_9  and  N3_10 
REMARK    5  A    between atoms: C12_17  and  O1_18 
REMARK    6  A    between atoms: O1_18  and  C13_19 
ROOT
HETATM    1  N1  UNL     1      27.385  -0.459  54.979  1.00  0.00    -0.195 NA
HETATM    2  C1  UNL     1      27.141   0.387  54.233  1.00  0.00     0.100 C 
HETATM    3  C2  UNL     1      26.851   1.447  53.290  1.00  0.00     0.356 C 
ENDROOT
BRANCH   3   4
HETATM    4  N2  UNL     1      26.920   2.761  53.914  1.00  0.00     0.100 N 
HETATM    5  H2  UNL     1      26.567   2.668  54.903  1.00  0.00     0.315 HD
HETATM    6  H3  UNL     1      27.891   3.147  53.869  1.00  0.00     0.315 HD
ENDBRANCH   3   4
BRANCH   3   7
HETATM    7  C3  UNL     1      25.481   1.289  52.740  1.00  0.00    -0.009 A 
HETATM    8  C4  UNL     1      25.107   2.105  51.694  1.00  0.00     0.011 A 
HETATM    9  C5  UNL     1      23.871   2.038  51.117  1.00  0.00     0.012 A 
HETATM   10  C6  UNL     1      22.967   1.122  51.598  1.00  0.00    -0.007 A 
HETATM   11  C12 UNL     1      23.229   0.257  52.635  1.00  0.00     0.083 A 
HETATM   12  C14 UNL     1      24.518   0.375  53.187  1.00  0.00     0.048 A 
BRANCH  10  13
HETATM   13  C7  UNL     1      21.621   0.980  51.038  1.00  0.00     0.158 C 
BRANCH  13  14
HETATM   14  N3  UNL     1      20.722   1.979  51.521  1.00  0.00    -0.406 N 
HETATM   15  C8  UNL     1      20.545   3.090  50.648  1.00  0.00     0.132 C 
HETATM   16  C9  UNL     1      19.329   3.908  50.995  1.00  0.00     0.121 C 
HETATM   17  N4  UNL     1      18.171   3.079  50.843  1.00  0.00    -0.253 NA
HETATM   18  I1  UNL     1      16.444   3.844  51.652  1.00  0.00     0.020 I 
HETATM   19  C10 UNL     1      18.386   1.704  51.175  1.00  0.00     0.121 C 
HETATM   20  C11 UNL     1      19.546   1.501  52.162  1.00  0.00     0.132 C 
ENDBRANCH  13  14
ENDBRANCH  10  13
BRANCH  11  21
HETATM   21  O1  UNL     1      22.605  -0.698  53.304  1.00  0.00    -0.290 OA
BRANCH  21  22
HETATM   22  C13 UNL     1      21.712  -0.864  54.325  1.00  0.00     0.505 C 
HETATM   23  F1  UNL     1      21.339   0.393  54.848  1.00  0.00    -0.184 F 
HETATM   24  F2  UNL     1      22.302  -1.540  55.417  1.00  0.00    -0.184 F 
ENDBRANCH  21  22
ENDBRANCH  11  21
ENDBRANCH   3   7
TORSDOF 6
ENDMDL
MODEL 6
REMARK VINA RESULT:      -6.7      3.673      4.316
REMARK  6 active torsions:
REMARK  status: ('A' for Active; 'I' for Inactive)
REMARK    1  A    between atoms: C2_3  and  N2_4 
REMARK    2  A    between atoms: C2_3  and  C3_5 
REMARK    3  A    between atoms: C6_8  and  C7_9 
REMARK    4  A    between atoms: C7_9  and  N3_10 
REMARK    5  A    between atoms: C12_17  and  O1_18 
REMARK    6  A    between atoms: O1_18  and  C13_19 
ROOT
HETATM    1  N1  UNL     1      28.669  -1.178  53.848  1.00  0.00    -0.195 NA
HETATM    2  C1  UNL     1      28.692  -0.054  53.589  1.00  0.00     0.100 C 
HETATM    3  C2  UNL     1      28.737   1.354  53.254  1.00  0.00     0.356 C 
ENDROOT
BRANCH   3   4
HETATM    4  N2  UNL     1      29.275   2.155  54.345  1.00  0.00     0.100 N 
HETATM    5  H2  UNL     1      28.871   3.126  54.262  1.00  0.00     0.315 HD
HETATM    6  H3  UNL     1      29.070   1.714  55.271  1.00  0.00     0.315 HD
ENDBRANCH   3   4
BRANCH   3   7
HETATM    7  C3  UNL     1      27.371   1.860  52.965  1.00  0.00    -0.009 A 
HETATM    8  C4  UNL     1      26.466   1.907  54.003  1.00  0.00     0.011 A 
HETATM    9  C5  UNL     1      25.187   2.357  53.842  1.00  0.00     0.012 A 
HETATM   10  C6  UNL     1      24.788   2.779  52.597  1.00  0.00    -0.007 A 
HETATM   11  C12 UNL     1      25.603   2.779  51.489  1.00  0.00     0.083 A 
HETATM   12  C14 UNL     1      26.908   2.305  51.719  1.00  0.00     0.048 A 
BRANCH  10  13
HETATM   13  C7  UNL     1      23.437   3.279  52.334  1.00  0.00     0.158 C 
BRANCH  13  14
HETATM   14  N3  UNL     1      22.583   2.275  51.783  1.00  0.00    -0.406 N 
HETATM   15  C8  UNL     1      22.364   1.152  52.630  1.00  0.00     0.132 C 
HETATM   16  C9  UNL     1      21.183   0.323  52.196  1.00  0.00     0.121 C 
HETATM   17  N4  UNL     1      20.008   1.137  52.283  1.00  0.00    -0.253 NA
HETATM   18  I1  UNL     1      18.346   0.362  51.356  1.00  0.00     0.020 I 
HETATM   19  C10 UNL     1      20.226   2.518  51.980  1.00  0.00     0.121 C 
HETATM   20  C11 UNL     1      21.445   2.747  51.073  1.00  0.00     0.132 C 
ENDBRANCH  13  14
ENDBRANCH  10  13
BRANCH  11  21
HETATM   21  O1  UNL     1      25.529   3.105  50.210  1.00  0.00    -0.290 OA
BRANCH  21  22
HETATM   22  C13 UNL     1      25.865   4.117  49.355  1.00  0.00     0.505 C 
HETATM   23  F1  UNL     1      27.162   3.900  48.840  1.00  0.00    -0.184 F 
HETATM   24  F2  UNL     1      25.957   5.353  50.035  1.00  0.00    -0.184 F 
ENDBRANCH  21  22
ENDBRANCH  11  21
ENDBRANCH   3   7
TORSDOF 6
ENDMDL
MODEL 7
REMARK VINA RESULT:      -6.5      3.339      4.112
REMARK  6 active torsions:
REMARK  status: ('A' for Active; 'I' for Inactive)
REMARK    1  A    between atoms: C2_3  and  N2_4 
REMARK    2  A    between atoms: C2_3  and  C3_5 
REMARK    3  A    between atoms: C6_8  and  C7_9 
REMARK    4  A    between atoms: C7_9  and  N3_10 
REMARK    5  A    between atoms: C12_17  and  O1_18 
REMARK    6  A    between atoms: O1_18  and  C13_19 
ROOT
HETATM    1  N1  UNL     1      29.295   1.770  54.671  1.00  0.00    -0.195 NA
HETATM    2  C1  UNL     1      28.512   0.959  54.429  1.00  0.00     0.100 C 
HETATM    3  C2  UNL     1      27.530  -0.067  54.141  1.00  0.00     0.356 C 
ENDROOT
BRANCH   3   4
HETATM    4  N2  UNL     1      28.093  -1.148  53.345  1.00  0.00     0.100 N 
HETATM    5  H2  UNL     1      27.578  -2.034  53.594  1.00  0.00     0.315 HD
HETATM    6  H3  UNL     1      28.042  -0.929  52.324  1.00  0.00     0.315 HD
ENDBRANCH   3   4
BRANCH   3   7
HETATM    7  C3  UNL     1      26.395   0.504  53.374  1.00  0.00    -0.009 A 
HETATM    8  C4  UNL     1      25.160  -0.093  53.506  1.00  0.00     0.011 A 
HETATM    9  C5  UNL     1      24.053   0.356  52.845  1.00  0.00     0.012 A 
HETATM   10  C6  UNL     1      24.176   1.446  52.017  1.00  0.00    -0.007 A 
HETATM   11  C12 UNL     1      25.356   2.122  51.808  1.00  0.00     0.083 A 
HETATM   12  C14 UNL     1      26.459   1.611  52.516  1.00  0.00     0.048 A 
BRANCH  10  13
HETATM   13  C7  UNL     1      23.042   1.996  51.271  1.00  0.00     0.158 C 
BRANCH  13  14
HETATM   14  N3  UNL     1      21.831   1.276  51.510  1.00  0.00    -0.406 N 
HETATM   15  C8  UNL     1      20.872   1.975  52.297  1.00  0.00     0.132 C 
HETATM   16  C9  UNL     1      19.496   1.368  52.203  1.00  0.00     0.121 C 
HETATM   17  N4  UNL     1      19.057   1.462  50.843  1.00  0.00    -0.253 NA
HETATM   18  I1  UNL     1      17.398   0.338  50.388  1.00  0.00     0.020 I 
HETATM   19  C10 UNL     1      20.105   1.332  49.877  1.00  0.00     0.121 C 
HETATM   20  C11 UNL     1      21.313   0.545  50.407  1.00  0.00     0.132 C 
ENDBRANCH  13  14
ENDBRANCH  10  13
BRANCH  11  21
HETATM   21  O1  UNL     1      25.788   3.157  51.108  1.00  0.00    -0.290 OA
BRANCH  21  22
HETATM   22  C13 UNL     1      26.665   3.464  50.105  1.00  0.00     0.505 C 
HETATM   23  F1  UNL     1      26.132   4.496  49.302  1.00  0.00    -0.184 F 
HETATM   24  F2  UNL     1      26.828   2.376  49.218  1.00  0.00    -0.184 F 
ENDBRANCH  21  22
ENDBRANCH  11  21
ENDBRANCH   3   7
TORSDOF 6
ENDMDL
MODEL 8
REMARK VINA RESULT:      -6.5      2.647      3.177
REMARK  6 active torsions:
REMARK  status: ('A' for Active; 'I' for Inactive)
REMARK    1  A    between atoms: C2_3  and  N2_4 
REMARK    2  A    between atoms: C2_3  and  C3_5 
REMARK    3  A    between atoms: C6_8  and  C7_9 
REMARK    4  A    between atoms: C7_9  and  N3_10 
REMARK    5  A    between atoms: C12_17  and  O1_18 
REMARK    6  A    between atoms: O1_18  and  C13_19 
ROOT
HETATM    1  N1  UNL     1      27.155   0.987  54.678  1.00  0.00    -0.195 NA
HETATM    2  C1  UNL     1      26.695   0.900  53.624  1.00  0.00     0.100 C 
HETATM    3  C2  UNL     1      26.127   0.777  52.298  1.00  0.00     0.356 C 
ENDROOT
BRANCH   3   4
HETATM    4  N2  UNL     1      26.708   1.735  51.368  1.00  0.00     0.100 N 
HETATM    5  H2  UNL     1      26.454   1.432  50.390  1.00  0.00     0.315 HD
HETATM    6  H3  UNL     1      26.388   2.707  51.582  1.00  0.00     0.315 HD
ENDBRANCH   3   4
BRANCH   3   7
HETATM    7  C3  UNL     1      24.665   1.028  52.336  1.00  0.00    -0.009 A 
HETATM    8  C4  UNL     1      24.123   1.839  51.362  1.00  0.00     0.011 A 
HETATM    9  C5  UNL     1      22.789   2.131  51.308  1.00  0.00     0.012 A 
HETATM   10  C6  UNL     1      21.958   1.594  52.261  1.00  0.00    -0.007 A 
HETATM   11  C12 UNL     1      22.385   0.771  53.278  1.00  0.00     0.083 A 
HETATM   12  C14 UNL     1      23.767   0.509  53.279  1.00  0.00     0.048 A 
BRANCH  10  13
HETATM   13  C7  UNL     1      20.516   1.851  52.278  1.00  0.00     0.158 C 
BRANCH  13  14
HETATM   14  N3  UNL     1      19.773   0.836  51.600  1.00  0.00    -0.406 N 
HETATM   15  C8  UNL     1      18.844   0.134  52.421  1.00  0.00     0.132 C 
HETATM   16  C9  UNL     1      17.829  -0.634  51.614  1.00  0.00     0.121 C 
HETATM   17  N4  UNL     1      17.069   0.301  50.842  1.00  0.00    -0.253 NA
HETATM   18  I1  UNL     1      15.912  -0.533  49.363  1.00  0.00     0.020 I 
HETATM   19  C10 UNL     1      17.814   1.438  50.397  1.00  0.00     0.121 C 
HETATM   20  C11 UNL     1      19.322   1.163  50.293  1.00  0.00     0.132 C 
ENDBRANCH  13  14
ENDBRANCH  10  13
BRANCH  11  21
HETATM   21  O1  UNL     1      21.865   0.121  54.305  1.00  0.00    -0.290 OA
BRANCH  21  22
HETATM   22  C13 UNL     1      21.680  -1.152  54.767  1.00  0.00     0.505 C 
HETATM   23  F1  UNL     1      22.734  -1.504  55.640  1.00  0.00    -0.184 F 
HETATM   24  F2  UNL     1      21.762  -2.095  53.718  1.00  0.00    -0.184 F 
ENDBRANCH  21  22
ENDBRANCH  11  21
ENDBRANCH   3   7
TORSDOF 6
ENDMDL
MODEL 9
REMARK VINA RESULT:      -6.4      3.589      4.571
REMARK  6 active torsions:
REMARK  status: ('A' for Active; 'I' for Inactive)
REMARK    1  A    between atoms: C2_3  and  N2_4 
REMARK    2  A    between atoms: C2_3  and  C3_5 
REMARK    3  A    between atoms: C6_8  and  C7_9 
REMARK    4  A    between atoms: C7_9  and  N3_10 
REMARK    5  A    between atoms: C12_17  and  O1_18 
REMARK    6  A    between atoms: O1_18  and  C13_19 
ROOT
HETATM    1  N1  UNL     1      21.501  -1.476  55.104  1.00  0.00    -0.195 NA
HETATM    2  C1  UNL     1      22.643  -1.462  54.943  1.00  0.00     0.100 C 
HETATM    3  C2  UNL     1      24.077  -1.461  54.741  1.00  0.00     0.356 C 
ENDROOT
BRANCH   3   4
HETATM    4  N2  UNL     1      24.802  -1.313  55.995  1.00  0.00     0.100 N 
HETATM    5  H2  UNL     1      24.740  -0.301  56.286  1.00  0.00     0.315 HD
HETATM    6  H3  UNL     1      24.428  -1.963  56.723  1.00  0.00     0.315 HD
ENDBRANCH   3   4
BRANCH   3   7
HETATM    7  C3  UNL     1      24.475  -0.332  53.863  1.00  0.00    -0.009 A 
HETATM    8  C4  UNL     1      23.478   0.360  53.209  1.00  0.00     0.011 A 
HETATM    9  C5  UNL     1      23.739   1.414  52.381  1.00  0.00     0.012 A 
HETATM   10  C6  UNL     1      25.044   1.799  52.194  1.00  0.00    -0.007 A 
HETATM   11  C12 UNL     1      26.120   1.185  52.793  1.00  0.00     0.083 A 
HETATM   12  C14 UNL     1      25.786   0.106  53.634  1.00  0.00     0.048 A 
BRANCH  10  13
HETATM   13  C7  UNL     1      25.415   2.919  51.326  1.00  0.00     0.158 C 
BRANCH  13  14
HETATM   14  N3  UNL     1      24.276   3.597  50.794  1.00  0.00    -0.406 N 
HETATM   15  C8  UNL     1      23.926   4.796  51.479  1.00  0.00     0.132 C 
HETATM   16  C9  UNL     1      22.992   5.666  50.678  1.00  0.00     0.121 C 
HETATM   17  N4  UNL     1      23.666   6.061  49.478  1.00  0.00    -0.253 NA
HETATM   18  I1  UNL     1      22.460   6.902  48.044  1.00  0.00     0.020 I 
HETATM   19  C10 UNL     1      24.557   5.073  48.952  1.00  0.00     0.121 C 
HETATM   20  C11 UNL     1      24.185   3.645  49.376  1.00  0.00     0.132 C 
ENDBRANCH  13  14
ENDBRANCH  10  13
BRANCH  11  21
HETATM   21  O1  UNL     1      27.436   1.306  52.820  1.00  0.00    -0.290 OA
BRANCH  21  22
HETATM   22  C13 UNL     1      28.459   1.535  53.697  1.00  0.00     0.505 C 
HETATM   23  F1  UNL     1      28.869   2.884  53.615  1.00  0.00    -0.184 F 
HETATM   24  F2  UNL     1      29.610   0.795  53.345  1.00  0.00    -0.184 F 
ENDBRANCH  21  22
ENDBRANCH  11  21
ENDBRANCH   3   7
TORSDOF 6
ENDMDL
