MODEL 1
REMARK VINA RESULT:      -8.8      0.000      0.000
REMARK  5 active torsions:
REMARK  status: ('A' for Active; 'I' for Inactive)
REMARK    1  A    between atoms: C1_2  and  C2_3 
REMARK    2  A    between atoms: C1_2  and  C9_11 
REMARK    3  A    between atoms: C2_3  and  O2_4 
REMARK    4  A    between atoms: O2_4  and  C3_5 
REMARK    5  A    between atoms: N1_18  and  C16_19 
ROOT
HETATM    1  C9  UNL     1      22.463  -0.137  53.448  1.00  0.00     0.013 A 
HETATM    2  C10 UNL     1      21.343  -0.237  52.657  1.00  0.00     0.016 A 
HETATM    3  C11 UNL     1      21.025   0.537  51.564  1.00  0.00     0.010 A 
HETATM    4  C12 UNL     1      21.966   1.500  51.275  1.00  0.00    -0.036 A 
HETATM    5  C13 UNL     1      23.115   1.672  52.011  1.00  0.00    -0.030 A 
HETATM    6  C14 UNL     1      23.350   0.852  53.087  1.00  0.00     0.024 A 
HETATM    7  C15 UNL     1      24.094   2.730  51.651  1.00  0.00     0.182 C 
HETATM    8  N1  UNL     1      23.972   2.963  50.225  1.00  0.00    -0.312 N 
HETATM    9  N2  UNL     1      23.023   2.358  49.362  1.00  0.00    -0.234 NA
HETATM   10  C21 UNL     1      21.768   2.411  50.129  1.00  0.00     0.149 C 
HETATM   11  H18 UNL     1      22.951   2.956  48.509  1.00  0.00     0.147 HD
ENDROOT
BRANCH   1  12
HETATM   12  C1  UNL     1      22.767  -0.939  54.616  1.00  0.00     0.183 C 
HETATM   13  O1  UNL     1      21.851  -1.772  54.976  1.00  0.00    -0.290 OA
BRANCH  12  14
HETATM   14  C2  UNL     1      23.805  -1.174  55.618  1.00  0.00     0.259 C 
BRANCH  14  15
HETATM   15  O2  UNL     1      25.069  -1.504  55.133  1.00  0.00    -0.344 OA
BRANCH  15  16
HETATM   16  C3  UNL     1      25.867  -0.706  54.321  1.00  0.00     0.069 A 
HETATM   17  C4  UNL     1      26.064  -1.168  53.036  1.00  0.00     0.037 A 
HETATM   18  C5  UNL     1      26.842  -0.420  52.197  1.00  0.00     0.003 A 
HETATM   19  C6  UNL     1      27.392   0.765  52.684  1.00  0.00     0.000 A 
HETATM   20  C7  UNL     1      27.180   1.214  53.989  1.00  0.00     0.003 A 
HETATM   21  C8  UNL     1      26.384   0.448  54.847  1.00  0.00     0.037 A 
ENDBRANCH  15  16
ENDBRANCH  14  15
ENDBRANCH  12  14
ENDBRANCH   1  12
BRANCH   8  22
HETATM   22  C16 UNL     1      24.908   3.890  49.689  1.00  0.00     0.027 A 
HETATM   23  C17 UNL     1      26.137   3.385  49.653  1.00  0.00     0.026 A 
HETATM   24  C18 UNL     1      27.043   4.406  49.086  1.00  0.00    -0.002 A 
HETATM   25  C19 UNL     1      26.328   5.485  48.801  1.00  0.00    -0.021 A 
HETATM   26  C20 UNL     1      24.901   5.275  49.151  1.00  0.00     0.085 A 
ENDBRANCH   8  22
TORSDOF 5
ENDMDL
MODEL 2
REMARK VINA RESULT:      -8.6      3.487      6.857
REMARK  5 active torsions:
REMARK  status: ('A' for Active; 'I' for Inactive)
REMARK    1  A    between atoms: C1_2  and  C2_3 
REMARK    2  A    between atoms: C1_2  and  C9_11 
REMARK    3  A    between atoms: C2_3  and  O2_4 
REMARK    4  A    between atoms: O2_4  and  C3_5 
REMARK    5  A    between atoms: N1_18  and  C16_19 
ROOT
HETATM    1  C9  UNL     1      21.877   0.013  53.409  1.00  0.00     0.013 A 
HETATM    2  C10 UNL     1      21.873   1.200  52.715  1.00  0.00     0.016 A 
HETATM    3  C11 UNL     1      22.961   1.974  52.385  1.00  0.00     0.010 A 
HETATM    4  C12 UNL     1      24.162   1.457  52.819  1.00  0.00    -0.036 A 
HETATM    5  C13 UNL     1      24.261   0.277  53.519  1.00  0.00    -0.030 A 
HETATM    6  C14 UNL     1      23.119  -0.430  53.805  1.00  0.00     0.024 A 
HETATM    7  C15 UNL     1      25.585  -0.231  53.962  1.00  0.00     0.182 C 
HETATM    8  N1  UNL     1      26.575   0.275  53.032  1.00  0.00    -0.312 N 
HETATM    9  N2  UNL     1      26.327   1.168  51.959  1.00  0.00    -0.234 NA
HETATM   10  C21 UNL     1      25.423   2.174  52.541  1.00  0.00     0.149 C 
HETATM   11  H18 UNL     1      27.239   1.607  51.701  1.00  0.00     0.147 HD
ENDROOT
BRANCH   1  12
HETATM   12  C1  UNL     1      20.718  -0.774  53.778  1.00  0.00     0.183 C 
HETATM   13  O1  UNL     1      20.930  -1.712  54.638  1.00  0.00    -0.290 OA
BRANCH  12  14
HETATM   14  C2  UNL     1      19.286  -0.912  53.521  1.00  0.00     0.259 C 
BRANCH  14  15
HETATM   15  O2  UNL     1      18.725  -2.156  53.801  1.00  0.00    -0.344 OA
BRANCH  15  16
HETATM   16  C3  UNL     1      17.497  -2.621  53.344  1.00  0.00     0.069 A 
HETATM   17  C4  UNL     1      17.209  -3.938  53.638  1.00  0.00     0.037 A 
HETATM   18  C5  UNL     1      16.013  -4.444  53.210  1.00  0.00     0.003 A 
HETATM   19  C6  UNL     1      15.152  -3.604  52.503  1.00  0.00     0.000 A 
HETATM   20  C7  UNL     1      15.465  -2.274  52.216  1.00  0.00     0.003 A 
HETATM   21  C8  UNL     1      16.689  -1.757  52.655  1.00  0.00     0.037 A 
ENDBRANCH  15  16
ENDBRANCH  14  15
ENDBRANCH  12  14
ENDBRANCH   1  12
BRANCH   8  22
HETATM   22  C16 UNL     1      27.899  -0.193  53.256  1.00  0.00     0.027 A 
HETATM   23  C17 UNL     1      28.003  -1.502  53.046  1.00  0.00     0.026 A 
HETATM   24  C18 UNL     1      29.402  -1.905  53.299  1.00  0.00    -0.002 A 
HETATM   25  C19 UNL     1      30.088  -0.827  53.649  1.00  0.00    -0.021 A 
HETATM   26  C20 UNL     1      29.212   0.371  53.660  1.00  0.00     0.085 A 
ENDBRANCH   8  22
TORSDOF 5
ENDMDL
MODEL 3
REMARK VINA RESULT:      -8.6      1.785      4.834
REMARK  5 active torsions:
REMARK  status: ('A' for Active; 'I' for Inactive)
REMARK    1  A    between atoms: C1_2  and  C2_3 
REMARK    2  A    between atoms: C1_2  and  C9_11 
REMARK    3  A    between atoms: C2_3  and  O2_4 
REMARK    4  A    between atoms: O2_4  and  C3_5 
REMARK    5  A    between atoms: N1_18  and  C16_19 
ROOT
HETATM    1  C9  UNL     1      23.705  -0.573  53.933  1.00  0.00     0.013 A 
HETATM    2  C10 UNL     1      24.998  -0.888  54.280  1.00  0.00     0.016 A 
HETATM    3  C11 UNL     1      26.153  -0.367  53.742  1.00  0.00     0.010 A 
HETATM    4  C12 UNL     1      25.933   0.567  52.754  1.00  0.00    -0.036 A 
HETATM    5  C13 UNL     1      24.674   0.942  52.343  1.00  0.00    -0.030 A 
HETATM    6  C14 UNL     1      23.578   0.369  52.937  1.00  0.00     0.024 A 
HETATM    7  C15 UNL     1      24.500   1.956  51.271  1.00  0.00     0.182 C 
HETATM    8  N1  UNL     1      25.662   2.821  51.302  1.00  0.00    -0.312 N 
HETATM    9  N2  UNL     1      26.796   2.662  52.139  1.00  0.00    -0.234 NA
HETATM   10  C21 UNL     1      27.075   1.218  52.079  1.00  0.00     0.149 C 
HETATM   11  H18 UNL     1      27.580   3.200  51.707  1.00  0.00     0.147 HD
ENDROOT
BRANCH   1  12
HETATM   12  C1  UNL     1      22.499  -1.156  54.486  1.00  0.00     0.183 C 
HETATM   13  O1  UNL     1      22.596  -1.603  55.692  1.00  0.00    -0.290 OA
BRANCH  12  14
HETATM   14  C2  UNL     1      21.104  -1.448  54.162  1.00  0.00     0.259 C 
BRANCH  14  15
HETATM   15  O2  UNL     1      20.285  -0.351  53.904  1.00  0.00    -0.344 OA
BRANCH  15  16
HETATM   16  C3  UNL     1      19.498  -0.166  52.774  1.00  0.00     0.069 A 
HETATM   17  C4  UNL     1      20.071   0.570  51.758  1.00  0.00     0.037 A 
HETATM   18  C5  UNL     1      19.337   0.781  50.625  1.00  0.00     0.003 A 
HETATM   19  C6  UNL     1      18.052   0.242  50.557  1.00  0.00     0.000 A 
HETATM   20  C7  UNL     1      17.491  -0.501  51.597  1.00  0.00     0.003 A 
HETATM   21  C8  UNL     1      18.243  -0.716  52.758  1.00  0.00     0.037 A 
ENDBRANCH  15  16
ENDBRANCH  14  15
ENDBRANCH  12  14
ENDBRANCH   1  12
BRANCH   8  22
HETATM   22  C16 UNL     1      25.617   3.915  50.393  1.00  0.00     0.027 A 
HETATM   23  C17 UNL     1      26.739   4.015  49.686  1.00  0.00     0.026 A 
HETATM   24  C18 UNL     1      26.611   5.169  48.771  1.00  0.00    -0.002 A 
HETATM   25  C19 UNL     1      25.420   5.719  48.959  1.00  0.00    -0.021 A 
HETATM   26  C20 UNL     1      24.664   4.985  50.005  1.00  0.00     0.085 A 
ENDBRANCH   8  22
TORSDOF 5
ENDMDL
MODEL 4
REMARK VINA RESULT:      -8.5      3.187      6.336
REMARK  5 active torsions:
REMARK  status: ('A' for Active; 'I' for Inactive)
REMARK    1  A    between atoms: C1_2  and  C2_3 
REMARK    2  A    between atoms: C1_2  and  C9_11 
REMARK    3  A    between atoms: C2_3  and  O2_4 
REMARK    4  A    between atoms: O2_4  and  C3_5 
REMARK    5  A    between atoms: N1_18  and  C16_19 
ROOT
HETATM    1  C9  UNL     1      23.211   3.348  52.017  1.00  0.00     0.013 A 
HETATM    2  C10 UNL     1      22.297   2.467  52.544  1.00  0.00     0.016 A 
HETATM    3  C11 UNL     1      22.538   1.190  52.997  1.00  0.00     0.010 A 
HETATM    4  C12 UNL     1      23.856   0.803  52.888  1.00  0.00    -0.036 A 
HETATM    5  C13 UNL     1      24.837   1.619  52.373  1.00  0.00    -0.030 A 
HETATM    6  C14 UNL     1      24.504   2.879  51.945  1.00  0.00     0.024 A 
HETATM    7  C15 UNL     1      26.242   1.145  52.281  1.00  0.00     0.182 C 
HETATM    8  N1  UNL     1      26.437   0.162  53.327  1.00  0.00    -0.312 N 
HETATM    9  N2  UNL     1      25.437  -0.323  54.209  1.00  0.00    -0.234 NA
HETATM   10  C21 UNL     1      24.274  -0.542  53.333  1.00  0.00     0.149 C 
HETATM   11  H18 UNL     1      25.775  -1.233  54.595  1.00  0.00     0.147 HD
ENDROOT
BRANCH   1  12
HETATM   12  C1  UNL     1      22.935   4.679  51.513  1.00  0.00     0.183 C 
HETATM   13  O1  UNL     1      21.698   5.045  51.552  1.00  0.00    -0.290 OA
BRANCH  12  14
HETATM   14  C2  UNL     1      23.583   5.852  50.933  1.00  0.00     0.259 C 
BRANCH  14  15
HETATM   15  O2  UNL     1      24.034   5.724  49.621  1.00  0.00    -0.344 OA
BRANCH  15  16
HETATM   16  C3  UNL     1      25.362   5.657  49.215  1.00  0.00     0.069 A 
HETATM   17  C4  UNL     1      25.962   4.421  49.333  1.00  0.00     0.037 A 
HETATM   18  C5  UNL     1      27.268   4.301  48.948  1.00  0.00     0.003 A 
HETATM   19  C6  UNL     1      27.921   5.432  48.458  1.00  0.00     0.000 A 
HETATM   20  C7  UNL     1      27.294   6.675  48.347  1.00  0.00     0.003 A 
HETATM   21  C8  UNL     1      25.957   6.796  48.742  1.00  0.00     0.037 A 
ENDBRANCH  15  16
ENDBRANCH  14  15
ENDBRANCH  12  14
ENDBRANCH   1  12
BRANCH   8  22
HETATM   22  C16 UNL     1      27.765  -0.334  53.443  1.00  0.00     0.027 A 
HETATM   23  C17 UNL     1      27.861  -1.593  53.025  1.00  0.00     0.026 A 
HETATM   24  C18 UNL     1      29.264  -2.029  53.178  1.00  0.00    -0.002 A 
HETATM   25  C19 UNL     1      29.961  -1.019  53.680  1.00  0.00    -0.021 A 
HETATM   26  C20 UNL     1      29.088   0.160  53.902  1.00  0.00     0.085 A 
ENDBRANCH   8  22
TORSDOF 5
ENDMDL
MODEL 5
REMARK VINA RESULT:      -8.4      2.866      5.788
REMARK  5 active torsions:
REMARK  status: ('A' for Active; 'I' for Inactive)
REMARK    1  A    between atoms: C1_2  and  C2_3 
REMARK    2  A    between atoms: C1_2  and  C9_11 
REMARK    3  A    between atoms: C2_3  and  O2_4 
REMARK    4  A    between atoms: O2_4  and  C3_5 
REMARK    5  A    between atoms: N1_18  and  C16_19 
ROOT
HETATM    1  C9  UNL     1      21.784   1.142  52.915  1.00  0.00     0.013 A 
HETATM    2  C10 UNL     1      21.384   0.303  53.929  1.00  0.00     0.016 A 
HETATM    3  C11 UNL     1      22.171  -0.572  54.643  1.00  0.00     0.010 A 
HETATM    4  C12 UNL     1      23.494  -0.566  54.261  1.00  0.00    -0.036 A 
HETATM    5  C13 UNL     1      23.982   0.240  53.258  1.00  0.00    -0.030 A 
HETATM    6  C14 UNL     1      23.123   1.082  52.599  1.00  0.00     0.024 A 
HETATM    7  C15 UNL     1      25.421   0.201  52.890  1.00  0.00     0.182 C 
HETATM    8  N1  UNL     1      26.158  -0.203  54.071  1.00  0.00    -0.312 N 
HETATM    9  N2  UNL     1      25.592  -0.584  55.315  1.00  0.00    -0.234 NA
HETATM   10  C21 UNL     1      24.466  -1.452  54.935  1.00  0.00     0.149 C 
HETATM   11  H18 UNL     1      26.315  -1.134  55.830  1.00  0.00     0.147 HD
ENDROOT
BRANCH   1  12
HETATM   12  C1  UNL     1      20.936   2.033  52.150  1.00  0.00     0.183 C 
HETATM   13  O1  UNL     1      20.178   2.814  52.841  1.00  0.00    -0.290 OA
BRANCH  12  14
HETATM   14  C2  UNL     1      20.593   2.408  50.779  1.00  0.00     0.259 C 
BRANCH  14  15
HETATM   15  O2  UNL     1      21.163   3.584  50.298  1.00  0.00    -0.344 OA
BRANCH  15  16
HETATM   16  C3  UNL     1      22.522   3.866  50.232  1.00  0.00     0.069 A 
HETATM   17  C4  UNL     1      22.942   4.963  50.955  1.00  0.00     0.037 A 
HETATM   18  C5  UNL     1      24.270   5.284  50.923  1.00  0.00     0.003 A 
HETATM   19  C6  UNL     1      25.127   4.487  50.164  1.00  0.00     0.000 A 
HETATM   20  C7  UNL     1      24.681   3.381  49.438  1.00  0.00     0.003 A 
HETATM   21  C8  UNL     1      23.321   3.053  49.472  1.00  0.00     0.037 A 
ENDBRANCH  15  16
ENDBRANCH  14  15
ENDBRANCH  12  14
ENDBRANCH   1  12
BRANCH   8  22
HETATM   22  C16 UNL     1      27.573  -0.203  53.921  1.00  0.00     0.027 A 
HETATM   23  C17 UNL     1      28.003  -1.294  53.294  1.00  0.00     0.026 A 
HETATM   24  C18 UNL     1      29.474  -1.216  53.181  1.00  0.00    -0.002 A 
HETATM   25  C19 UNL     1      29.875  -0.084  53.741  1.00  0.00    -0.021 A 
HETATM   26  C20 UNL     1      28.717   0.678  54.270  1.00  0.00     0.085 A 
ENDBRANCH   8  22
TORSDOF 5
ENDMDL
MODEL 6
REMARK VINA RESULT:      -8.3      2.559      5.507
REMARK  5 active torsions:
REMARK  status: ('A' for Active; 'I' for Inactive)
REMARK    1  A    between atoms: C1_2  and  C2_3 
REMARK    2  A    between atoms: C1_2  and  C9_11 
REMARK    3  A    between atoms: C2_3  and  O2_4 
REMARK    4  A    between atoms: O2_4  and  C3_5 
REMARK    5  A    between atoms: N1_18  and  C16_19 
ROOT
HETATM    1  C9  UNL     1      24.824   2.127  51.538  1.00  0.00     0.013 A 
HETATM    2  C10 UNL     1      24.464   2.763  50.373  1.00  0.00     0.016 A 
HETATM    3  C11 UNL     1      23.277   2.635  49.688  1.00  0.00     0.010 A 
HETATM    4  C12 UNL     1      22.388   1.764  50.279  1.00  0.00    -0.036 A 
HETATM    5  C13 UNL     1      22.664   1.085  51.443  1.00  0.00    -0.030 A 
HETATM    6  C14 UNL     1      23.876   1.275  52.058  1.00  0.00     0.024 A 
HETATM    7  C15 UNL     1      21.664   0.157  52.032  1.00  0.00     0.182 C 
HETATM    8  N1  UNL     1      20.353   0.620  51.625  1.00  0.00    -0.312 N 
HETATM    9  N2  UNL     1      20.088   1.702  50.747  1.00  0.00    -0.234 NA
HETATM   10  C21 UNL     1      21.067   1.520  49.663  1.00  0.00     0.149 C 
HETATM   11  H18 UNL     1      19.118   1.577  50.382  1.00  0.00     0.147 HD
ENDROOT
BRANCH   1  12
HETATM   12  C1  UNL     1      26.093   2.247  52.228  1.00  0.00     0.183 C 
HETATM   13  O1  UNL     1      27.108   2.536  51.487  1.00  0.00    -0.290 OA
BRANCH  12  14
HETATM   14  C2  UNL     1      26.699   2.156  53.555  1.00  0.00     0.259 C 
BRANCH  14  15
HETATM   15  O2  UNL     1      26.698   0.897  54.151  1.00  0.00    -0.344 OA
BRANCH  15  16
HETATM   16  C3  UNL     1      27.418  -0.212  53.722  1.00  0.00     0.069 A 
HETATM   17  C4  UNL     1      26.683  -1.198  53.097  1.00  0.00     0.037 A 
HETATM   18  C5  UNL     1      27.344  -2.310  52.656  1.00  0.00     0.003 A 
HETATM   19  C6  UNL     1      28.722  -2.387  52.861  1.00  0.00     0.000 A 
HETATM   20  C7  UNL     1      29.446  -1.377  53.496  1.00  0.00     0.003 A 
HETATM   21  C8  UNL     1      28.769  -0.238  53.947  1.00  0.00     0.037 A 
ENDBRANCH  15  16
ENDBRANCH  14  15
ENDBRANCH  12  14
ENDBRANCH   1  12
BRANCH   8  22
HETATM   22  C16 UNL     1      19.263  -0.107  52.181  1.00  0.00     0.027 A 
HETATM   23  C17 UNL     1      18.164   0.008  51.441  1.00  0.00     0.026 A 
HETATM   24  C18 UNL     1      17.086  -0.771  52.084  1.00  0.00    -0.002 A 
HETATM   25  C19 UNL     1      17.574  -1.326  53.185  1.00  0.00    -0.021 A 
HETATM   26  C20 UNL     1      19.002  -0.965  53.364  1.00  0.00     0.085 A 
ENDBRANCH   8  22
TORSDOF 5
ENDMDL
MODEL 7
REMARK VINA RESULT:      -8.3      3.869      7.010
REMARK  5 active torsions:
REMARK  status: ('A' for Active; 'I' for Inactive)
REMARK    1  A    between atoms: C1_2  and  C2_3 
REMARK    2  A    between atoms: C1_2  and  C9_11 
REMARK    3  A    between atoms: C2_3  and  O2_4 
REMARK    4  A    between atoms: O2_4  and  C3_5 
REMARK    5  A    between atoms: N1_18  and  C16_19 
ROOT
HETATM    1  C9  UNL     1      21.561  -0.035  53.010  1.00  0.00     0.013 A 
HETATM    2  C10 UNL     1      21.303  -0.535  54.265  1.00  0.00     0.016 A 
HETATM    3  C11 UNL     1      22.220  -1.014  55.173  1.00  0.00     0.010 A 
HETATM    4  C12 UNL     1      23.522  -0.962  54.727  1.00  0.00    -0.036 A 
HETATM    5  C13 UNL     1      23.871  -0.478  53.487  1.00  0.00    -0.030 A 
HETATM    6  C14 UNL     1      22.888  -0.021  52.646  1.00  0.00     0.024 A 
HETATM    7  C15 UNL     1      25.294  -0.449  53.061  1.00  0.00     0.182 C 
HETATM    8  N1  UNL     1      26.102  -0.339  54.259  1.00  0.00    -0.312 N 
HETATM    9  N2  UNL     1      25.619  -0.357  55.592  1.00  0.00    -0.234 NA
HETATM   10  C21 UNL     1      24.622  -1.441  55.589  1.00  0.00     0.149 C 
HETATM   11  H18 UNL     1      26.421  -0.606  56.212  1.00  0.00     0.147 HD
ENDROOT
BRANCH   1  12
HETATM   12  C1  UNL     1      20.580   0.435  52.052  1.00  0.00     0.183 C 
HETATM   13  O1  UNL     1      20.940   1.444  51.334  1.00  0.00    -0.290 OA
BRANCH  12  14
HETATM   14  C2  UNL     1      19.231   0.172  51.556  1.00  0.00     0.259 C 
BRANCH  14  15
HETATM   15  O2  UNL     1      18.250  -0.052  52.520  1.00  0.00    -0.344 OA
BRANCH  15  16
HETATM   16  C3  UNL     1      17.550  -1.236  52.716  1.00  0.00     0.069 A 
HETATM   17  C4  UNL     1      16.309  -1.303  52.117  1.00  0.00     0.037 A 
HETATM   18  C5  UNL     1      15.578  -2.447  52.280  1.00  0.00     0.003 A 
HETATM   19  C6  UNL     1      16.126  -3.482  53.038  1.00  0.00     0.000 A 
HETATM   20  C7  UNL     1      17.385  -3.392  53.635  1.00  0.00     0.003 A 
HETATM   21  C8  UNL     1      18.132  -2.221  53.468  1.00  0.00     0.037 A 
ENDBRANCH  15  16
ENDBRANCH  14  15
ENDBRANCH  12  14
ENDBRANCH   1  12
BRANCH   8  22
HETATM   22  C16 UNL     1      27.499  -0.205  54.028  1.00  0.00     0.027 A 
HETATM   23  C17 UNL     1      27.977  -1.206  53.294  1.00  0.00     0.026 A 
HETATM   24  C18 UNL     1      29.426  -0.991  53.102  1.00  0.00    -0.002 A 
HETATM   25  C19 UNL     1      29.767   0.128  53.724  1.00  0.00    -0.021 A 
HETATM   26  C20 UNL     1      28.586   0.746  54.376  1.00  0.00     0.085 A 
ENDBRANCH   8  22
TORSDOF 5
ENDMDL
MODEL 8
REMARK VINA RESULT:      -8.3      4.972      8.425
REMARK  5 active torsions:
REMARK  status: ('A' for Active; 'I' for Inactive)
REMARK    1  A    between atoms: C1_2  and  C2_3 
REMARK    2  A    between atoms: C1_2  and  C9_11 
REMARK    3  A    between atoms: C2_3  and  O2_4 
REMARK    4  A    between atoms: O2_4  and  C3_5 
REMARK    5  A    between atoms: N1_18  and  C16_19 
ROOT
HETATM    1  C9  UNL     1      27.850   5.979  48.302  1.00  0.00     0.013 A 
HETATM    2  C10 UNL     1      26.697   6.728  48.350  1.00  0.00     0.016 A 
HETATM    3  C11 UNL     1      25.487   6.359  48.890  1.00  0.00     0.010 A 
HETATM    4  C12 UNL     1      25.485   5.091  49.430  1.00  0.00    -0.036 A 
HETATM    5  C13 UNL     1      26.590   4.272  49.427  1.00  0.00    -0.030 A 
HETATM    6  C14 UNL     1      27.757   4.725  48.864  1.00  0.00     0.024 A 
HETATM    7  C15 UNL     1      26.526   2.914  50.024  1.00  0.00     0.182 C 
HETATM    8  N1  UNL     1      25.511   2.944  51.058  1.00  0.00    -0.312 N 
HETATM    9  N2  UNL     1      24.672   4.045  51.368  1.00  0.00    -0.234 NA
HETATM   10  C21 UNL     1      24.257   4.551  50.049  1.00  0.00     0.149 C 
HETATM   11  H18 UNL     1      23.847   3.672  51.888  1.00  0.00     0.147 HD
ENDROOT
BRANCH   1  12
HETATM   12  C1  UNL     1      29.108   6.370  47.699  1.00  0.00     0.183 C 
HETATM   13  O1  UNL     1      29.029   7.261  46.770  1.00  0.00    -0.290 OA
BRANCH  12  14
HETATM   14  C2  UNL     1      30.545   6.111  47.753  1.00  0.00     0.259 C 
BRANCH  14  15
HETATM   15  O2  UNL     1      30.934   4.774  47.751  1.00  0.00    -0.344 OA
BRANCH  15  16
HETATM   16  C3  UNL     1      32.231   4.299  47.599  1.00  0.00     0.069 A 
HETATM   17  C4  UNL     1      33.219   5.055  48.194  1.00  0.00     0.037 A 
HETATM   18  C5  UNL     1      34.513   4.631  48.074  1.00  0.00     0.003 A 
HETATM   19  C6  UNL     1      34.763   3.461  47.358  1.00  0.00     0.000 A 
HETATM   20  C7  UNL     1      33.748   2.711  46.762  1.00  0.00     0.003 A 
HETATM   21  C8  UNL     1      32.423   3.145  46.886  1.00  0.00     0.037 A 
ENDBRANCH  15  16
ENDBRANCH  14  15
ENDBRANCH  12  14
ENDBRANCH   1  12
BRANCH   8  22
HETATM   22  C16 UNL     1      25.380   1.739  51.803  1.00  0.00     0.027 A 
HETATM   23  C17 UNL     1      26.493   1.012  51.766  1.00  0.00     0.026 A 
HETATM   24  C18 UNL     1      26.275  -0.215  52.560  1.00  0.00    -0.002 A 
HETATM   25  C19 UNL     1      25.041  -0.182  53.045  1.00  0.00    -0.021 A 
HETATM   26  C20 UNL     1      24.344   1.056  52.619  1.00  0.00     0.085 A 
ENDBRANCH   8  22
TORSDOF 5
ENDMDL
MODEL 9
REMARK VINA RESULT:      -7.9      2.313      5.211
REMARK  5 active torsions:
REMARK  status: ('A' for Active; 'I' for Inactive)
REMARK    1  A    between atoms: C1_2  and  C2_3 
REMARK    2  A    between atoms: C1_2  and  C9_11 
REMARK    3  A    between atoms: C2_3  and  O2_4 
REMARK    4  A    between atoms: O2_4  and  C3_5 
REMARK    5  A    between atoms: N1_18  and  C16_19 
ROOT
HETATM    1  C9  UNL     1      22.042   3.109  51.016  1.00  0.00     0.013 A 
HETATM    2  C10 UNL     1      22.548   3.456  49.785  1.00  0.00     0.016 A 
HETATM    3  C11 UNL     1      23.874   3.577  49.436  1.00  0.00     0.010 A 
HETATM    4  C12 UNL     1      24.746   3.309  50.468  1.00  0.00    -0.036 A 
HETATM    5  C13 UNL     1      24.328   2.955  51.731  1.00  0.00    -0.030 A 
HETATM    6  C14 UNL     1      22.984   2.860  51.988  1.00  0.00     0.024 A 
HETATM    7  C15 UNL     1      25.317   2.679  52.804  1.00  0.00     0.182 C 
HETATM    8  N1  UNL     1      26.531   2.213  52.164  1.00  0.00    -0.312 N 
HETATM    9  N2  UNL     1      26.756   2.133  50.766  1.00  0.00    -0.234 NA
HETATM   10  C21 UNL     1      26.204   3.396  50.250  1.00  0.00     0.149 C 
HETATM   11  H18 UNL     1      27.789   2.102  50.617  1.00  0.00     0.147 HD
ENDROOT
BRANCH   1  12
HETATM   12  C1  UNL     1      20.641   3.019  51.377  1.00  0.00     0.183 C 
HETATM   13  O1  UNL     1      20.010   4.142  51.454  1.00  0.00    -0.290 OA
BRANCH  12  14
HETATM   14  C2  UNL     1      19.594   2.056  51.712  1.00  0.00     0.259 C 
BRANCH  14  15
HETATM   15  O2  UNL     1      19.980   0.719  51.774  1.00  0.00    -0.344 OA
BRANCH  15  16
HETATM   16  C3  UNL     1      20.858   0.163  52.696  1.00  0.00     0.069 A 
HETATM   17  C4  UNL     1      20.503   0.304  54.021  1.00  0.00     0.037 A 
HETATM   18  C5  UNL     1      21.334  -0.226  54.969  1.00  0.00     0.003 A 
HETATM   19  C6  UNL     1      22.492  -0.878  54.546  1.00  0.00     0.000 A 
HETATM   20  C7  UNL     1      22.833  -1.010  53.198  1.00  0.00     0.003 A 
HETATM   21  C8  UNL     1      21.981  -0.467  52.229  1.00  0.00     0.037 A 
ENDBRANCH  15  16
ENDBRANCH  14  15
ENDBRANCH  12  14
ENDBRANCH   1  12
BRANCH   8  22
HETATM   22  C16 UNL     1      27.562   1.811  53.058  1.00  0.00     0.027 A 
HETATM   23  C17 UNL     1      27.418   0.547  53.442  1.00  0.00     0.026 A 
HETATM   24  C18 UNL     1      28.523   0.211  54.364  1.00  0.00    -0.002 A 
HETATM   25  C19 UNL     1      29.291   1.282  54.500  1.00  0.00    -0.021 A 
HETATM   26  C20 UNL     1      28.766   2.409  53.689  1.00  0.00     0.085 A 
ENDBRANCH   8  22
TORSDOF 5
ENDMDL
