MODEL 1
REMARK VINA RESULT:     -10.1      0.000      0.000
REMARK  3 active torsions:
REMARK  status: ('A' for Active; 'I' for Inactive)
REMARK    1  A    between atoms: C3_4  and  C4_5 
REMARK    2  A    between atoms: C9_12  and  C10_13 
REMARK    3  A    between atoms: C15_19  and  N5_20 
ROOT
HETATM    1  C4  UNL     1      24.505   3.582  50.124  1.00  0.00    -0.022 A 
HETATM    2  C5  UNL     1      23.165   3.752  49.847  1.00  0.00     0.014 A 
HETATM    3  C6  UNL     1      22.292   2.882  50.460  1.00  0.00     0.033 A 
HETATM    4  C7  UNL     1      22.686   1.863  51.327  1.00  0.00     0.070 A 
HETATM    5  N2  UNL     1      21.815   1.027  51.914  1.00  0.00    -0.241 NA
HETATM    6  C8  UNL     1      22.259   0.049  52.753  1.00  0.00     0.234 A 
HETATM    7  N3  UNL     1      23.577  -0.046  52.967  1.00  0.00    -0.240 NA
HETATM    8  C9  UNL     1      24.463   0.781  52.390  1.00  0.00     0.082 A 
HETATM    9  C18 UNL     1      24.047   1.789  51.529  1.00  0.00     0.023 A 
HETATM   10  C19 UNL     1      25.001   2.607  50.966  1.00  0.00     0.028 A 
ENDROOT
BRANCH   8  11
HETATM   11  C10 UNL     1      25.859   0.530  52.739  1.00  0.00     0.008 A 
HETATM   12  C11 UNL     1      26.893   1.276  53.073  1.00  0.00     0.020 A 
HETATM   13  C12 UNL     1      27.981   0.597  53.305  1.00  0.00     0.081 A 
HETATM   14  N4  UNL     1      29.255   0.888  53.664  1.00  0.00    -0.259 NA
HETATM   15  C16 UNL     1      27.753  -0.752  53.134  1.00  0.00     0.021 A 
HETATM   16  C13 UNL     1      30.187  -0.069  53.833  1.00  0.00     0.119 A 
HETATM   17  C14 UNL     1      29.944  -1.422  53.659  1.00  0.00     0.049 A 
HETATM   18  C15 UNL     1      28.653  -1.783  53.288  1.00  0.00     0.039 A 
HETATM   19  C17 UNL     1      26.455  -0.823  52.786  1.00  0.00     0.031 A 
BRANCH  18  20
HETATM   20  N5  UNL     1      28.293  -3.143  53.083  1.00  0.00    -0.398 N 
HETATM   21  H10 UNL     1      28.549  -3.824  53.841  1.00  0.00     0.156 HD
HETATM   22  H11 UNL     1      27.797  -3.380  52.198  1.00  0.00     0.156 HD
ENDBRANCH  18  20
ENDBRANCH   8  11
BRANCH   1  23
HETATM   23  C3  UNL     1      25.450   4.492  49.486  1.00  0.00     0.010 A 
HETATM   24  C2  UNL     1      26.793   4.301  49.220  1.00  0.00     0.125 A 
HETATM   25  N1  UNL     1      27.365   5.348  48.621  1.00  0.00    -0.285 N 
HETATM   26  C1  UNL     1      28.736   5.484  48.207  1.00  0.00     0.179 C 
HETATM   27  N6  UNL     1      26.405   6.224  48.492  1.00  0.00    -0.185 NA
HETATM   28  C20 UNL     1      25.236   5.782  48.986  1.00  0.00     0.152 A 
ENDBRANCH   1  23
TORSDOF 3
ENDMDL
MODEL 2
REMARK VINA RESULT:     -10.0      1.094      1.915
REMARK  3 active torsions:
REMARK  status: ('A' for Active; 'I' for Inactive)
REMARK    1  A    between atoms: C3_4  and  C4_5 
REMARK    2  A    between atoms: C9_12  and  C10_13 
REMARK    3  A    between atoms: C15_19  and  N5_20 
ROOT
HETATM    1  C4  UNL     1      23.778   3.023  51.097  1.00  0.00    -0.022 A 
HETATM    2  C5  UNL     1      22.426   3.289  51.137  1.00  0.00     0.014 A 
HETATM    3  C6  UNL     1      21.660   2.477  51.944  1.00  0.00     0.033 A 
HETATM    4  C7  UNL     1      22.173   1.426  52.704  1.00  0.00     0.070 A 
HETATM    5  N2  UNL     1      21.406   0.648  53.484  1.00  0.00    -0.241 NA
HETATM    6  C8  UNL     1      21.965  -0.365  54.205  1.00  0.00     0.234 A 
HETATM    7  N3  UNL     1      23.286  -0.554  54.108  1.00  0.00    -0.240 NA
HETATM    8  C9  UNL     1      24.069   0.214  53.333  1.00  0.00     0.082 A 
HETATM    9  C18 UNL     1      23.535   1.256  52.584  1.00  0.00     0.023 A 
HETATM   10  C19 UNL     1      24.387   2.009  51.808  1.00  0.00     0.028 A 
ENDROOT
BRANCH   8  11
HETATM   11  C10 UNL     1      25.487  -0.137  53.350  1.00  0.00     0.008 A 
HETATM   12  C11 UNL     1      26.188  -1.230  53.121  1.00  0.00     0.020 A 
HETATM   13  C12 UNL     1      27.473  -1.071  53.261  1.00  0.00     0.081 A 
HETATM   14  N4  UNL     1      28.572  -1.857  53.143  1.00  0.00    -0.259 NA
HETATM   15  C16 UNL     1      27.763   0.227  53.620  1.00  0.00     0.021 A 
HETATM   16  C13 UNL     1      29.814  -1.386  53.360  1.00  0.00     0.119 A 
HETATM   17  C14 UNL     1      30.091  -0.077  53.720  1.00  0.00     0.049 A 
HETATM   18  C15 UNL     1      29.003   0.778  53.857  1.00  0.00     0.039 A 
HETATM   19  C17 UNL     1      26.560   0.826  53.682  1.00  0.00     0.031 A 
BRANCH  18  20
HETATM   20  N5  UNL     1      29.171   2.141  54.223  1.00  0.00    -0.398 N 
HETATM   21  H10 UNL     1      28.327   2.763  54.148  1.00  0.00     0.156 HD
HETATM   22  H11 UNL     1      30.116   2.440  54.543  1.00  0.00     0.156 HD
ENDBRANCH  18  20
ENDBRANCH   8  11
BRANCH   1  23
HETATM   23  C3  UNL     1      24.609   3.870  50.248  1.00  0.00     0.010 A 
HETATM   24  C2  UNL     1      25.953   3.747  49.952  1.00  0.00     0.125 A 
HETATM   25  N1  UNL     1      26.402   4.703  49.136  1.00  0.00    -0.285 N 
HETATM   26  C1  UNL     1      27.739   4.873  48.631  1.00  0.00     0.179 C 
HETATM   27  N6  UNL     1      25.361   5.453  48.896  1.00  0.00    -0.185 NA
HETATM   28  C20 UNL     1      24.257   5.017  49.526  1.00  0.00     0.152 A 
ENDBRANCH   1  23
TORSDOF 3
ENDMDL
MODEL 3
REMARK VINA RESULT:      -9.9      1.579      6.516
REMARK  3 active torsions:
REMARK  status: ('A' for Active; 'I' for Inactive)
REMARK    1  A    between atoms: C3_4  and  C4_5 
REMARK    2  A    between atoms: C9_12  and  C10_13 
REMARK    3  A    between atoms: C15_19  and  N5_20 
ROOT
HETATM    1  C4  UNL     1      24.767   0.064  53.189  1.00  0.00    -0.022 A 
HETATM    2  C5  UNL     1      23.843  -0.884  53.576  1.00  0.00     0.014 A 
HETATM    3  C6  UNL     1      22.566  -0.740  53.083  1.00  0.00     0.033 A 
HETATM    4  C7  UNL     1      22.170   0.291  52.232  1.00  0.00     0.070 A 
HETATM    5  N2  UNL     1      20.918   0.410  51.763  1.00  0.00    -0.241 NA
HETATM    6  C8  UNL     1      20.589   1.439  50.932  1.00  0.00     0.234 A 
HETATM    7  N3  UNL     1      21.547   2.315  50.606  1.00  0.00    -0.240 NA
HETATM    8  C9  UNL     1      22.805   2.213  51.064  1.00  0.00     0.082 A 
HETATM    9  C18 UNL     1      23.176   1.177  51.913  1.00  0.00     0.023 A 
HETATM   10  C19 UNL     1      24.480   1.123  52.351  1.00  0.00     0.028 A 
ENDROOT
BRANCH   8  11
HETATM   11  C10 UNL     1      23.716   3.258  50.604  1.00  0.00     0.008 A 
HETATM   12  C11 UNL     1      24.719   3.322  49.751  1.00  0.00     0.020 A 
HETATM   13  C12 UNL     1      25.259   4.504  49.659  1.00  0.00     0.081 A 
HETATM   14  N4  UNL     1      26.275   5.061  48.954  1.00  0.00    -0.259 NA
HETATM   15  C16 UNL     1      24.622   5.392  50.499  1.00  0.00     0.021 A 
HETATM   16  C13 UNL     1      26.606   6.359  49.082  1.00  0.00     0.119 A 
HETATM   17  C14 UNL     1      25.956   7.241  49.929  1.00  0.00     0.049 A 
HETATM   18  C15 UNL     1      24.904   6.728  50.681  1.00  0.00     0.039 A 
HETATM   19  C17 UNL     1      23.667   4.653  51.093  1.00  0.00     0.031 A 
BRANCH  18  20
HETATM   20  N5  UNL     1      24.167   7.543  51.582  1.00  0.00    -0.398 N 
HETATM   21  H10 UNL     1      23.606   7.050  52.322  1.00  0.00     0.156 HD
HETATM   22  H11 UNL     1      24.229   8.576  51.457  1.00  0.00     0.156 HD
ENDBRANCH  18  20
ENDBRANCH   8  11
BRANCH   1  23
HETATM   23  C3  UNL     1      26.127  -0.068  53.699  1.00  0.00     0.010 A 
HETATM   24  C2  UNL     1      27.256  -0.527  53.047  1.00  0.00     0.125 A 
HETATM   25  N1  UNL     1      28.347  -0.518  53.816  1.00  0.00    -0.285 N 
HETATM   26  C1  UNL     1      29.680  -0.926  53.457  1.00  0.00     0.179 C 
HETATM   27  N6  UNL     1      27.941  -0.056  54.968  1.00  0.00    -0.185 NA
HETATM   28  C20 UNL     1      26.628   0.233  54.971  1.00  0.00     0.152 A 
ENDBRANCH   1  23
TORSDOF 3
ENDMDL
MODEL 4
REMARK VINA RESULT:      -9.8      1.829      2.455
REMARK  3 active torsions:
REMARK  status: ('A' for Active; 'I' for Inactive)
REMARK    1  A    between atoms: C3_4  and  C4_5 
REMARK    2  A    between atoms: C9_12  and  C10_13 
REMARK    3  A    between atoms: C15_19  and  N5_20 
ROOT
HETATM    1  C4  UNL     1      22.749   3.042  52.010  1.00  0.00    -0.022 A 
HETATM    2  C5  UNL     1      21.374   2.951  52.057  1.00  0.00     0.014 A 
HETATM    3  C6  UNL     1      20.848   1.837  52.673  1.00  0.00     0.033 A 
HETATM    4  C7  UNL     1      21.620   0.823  53.239  1.00  0.00     0.070 A 
HETATM    5  N2  UNL     1      21.085  -0.254  53.836  1.00  0.00    -0.241 NA
HETATM    6  C8  UNL     1      21.890  -1.214  54.373  1.00  0.00     0.234 A 
HETATM    7  N3  UNL     1      23.214  -1.047  54.284  1.00  0.00    -0.240 NA
HETATM    8  C9  UNL     1      23.768   0.023  53.691  1.00  0.00     0.082 A 
HETATM    9  C18 UNL     1      22.979   1.022  53.133  1.00  0.00     0.023 A 
HETATM   10  C19 UNL     1      23.603   2.095  52.539  1.00  0.00     0.028 A 
ENDROOT
BRANCH   8  11
HETATM   11  C10 UNL     1      25.229   0.039  53.688  1.00  0.00     0.008 A 
HETATM   12  C11 UNL     1      26.160   0.948  53.899  1.00  0.00     0.020 A 
HETATM   13  C12 UNL     1      27.376   0.495  53.783  1.00  0.00     0.081 A 
HETATM   14  N4  UNL     1      28.625   1.010  53.898  1.00  0.00    -0.259 NA
HETATM   15  C16 UNL     1      27.363  -0.846  53.463  1.00  0.00     0.021 A 
HETATM   16  C13 UNL     1      29.728   0.261  53.713  1.00  0.00     0.119 A 
HETATM   17  C14 UNL     1      29.700  -1.087  53.392  1.00  0.00     0.049 A 
HETATM   18  C15 UNL     1      28.445  -1.673  53.259  1.00  0.00     0.039 A 
HETATM   19  C17 UNL     1      26.055  -1.154  53.398  1.00  0.00     0.031 A 
BRANCH  18  20
HETATM   20  N5  UNL     1      28.299  -3.048  52.932  1.00  0.00    -0.398 N 
HETATM   21  H10 UNL     1      27.353  -3.478  53.089  1.00  0.00     0.156 HD
HETATM   22  H11 UNL     1      29.135  -3.545  52.558  1.00  0.00     0.156 HD
ENDBRANCH  18  20
ENDBRANCH   8  11
BRANCH   1  23
HETATM   23  C3  UNL     1      23.328   4.213  51.361  1.00  0.00     0.010 A 
HETATM   24  C2  UNL     1      23.039   5.549  51.568  1.00  0.00     0.125 A 
HETATM   25  N1  UNL     1      23.759   6.368  50.798  1.00  0.00    -0.285 N 
HETATM   26  C1  UNL     1      23.711   7.805  50.757  1.00  0.00     0.179 C 
HETATM   27  N6  UNL     1      24.517   5.577  50.088  1.00  0.00    -0.185 NA
HETATM   28  C20 UNL     1      24.314   4.280  50.371  1.00  0.00     0.152 A 
ENDBRANCH   1  23
TORSDOF 3
ENDMDL
MODEL 5
REMARK VINA RESULT:      -9.3      2.863      7.598
REMARK  3 active torsions:
REMARK  status: ('A' for Active; 'I' for Inactive)
REMARK    1  A    between atoms: C3_4  and  C4_5 
REMARK    2  A    between atoms: C9_12  and  C10_13 
REMARK    3  A    between atoms: C15_19  and  N5_20 
ROOT
HETATM    1  C4  UNL     1      21.099  -0.635  53.580  1.00  0.00    -0.022 A 
HETATM    2  C5  UNL     1      21.369  -1.607  54.520  1.00  0.00     0.014 A 
HETATM    3  C6  UNL     1      22.670  -1.696  54.961  1.00  0.00     0.033 A 
HETATM    4  C7  UNL     1      23.702  -0.872  54.514  1.00  0.00     0.070 A 
HETATM    5  N2  UNL     1      24.965  -0.977  54.960  1.00  0.00    -0.241 NA
HETATM    6  C8  UNL     1      25.933  -0.142  54.487  1.00  0.00     0.234 A 
HETATM    7  N3  UNL     1      25.585   0.773  53.575  1.00  0.00    -0.240 NA
HETATM    8  C9  UNL     1      24.328   0.894  53.118  1.00  0.00     0.082 A 
HETATM    9  C18 UNL     1      23.315   0.060  53.577  1.00  0.00     0.023 A 
HETATM   10  C19 UNL     1      22.046   0.231  53.072  1.00  0.00     0.028 A 
ENDROOT
BRANCH   8  11
HETATM   11  C10 UNL     1      24.132   1.948  52.126  1.00  0.00     0.008 A 
HETATM   12  C11 UNL     1      23.878   1.986  50.833  1.00  0.00     0.020 A 
HETATM   13  C12 UNL     1      23.783   3.192  50.349  1.00  0.00     0.081 A 
HETATM   14  N4  UNL     1      23.545   3.739  49.131  1.00  0.00    -0.259 NA
HETATM   15  C16 UNL     1      23.977   4.127  51.343  1.00  0.00     0.021 A 
HETATM   16  C13 UNL     1      23.507   5.071  48.941  1.00  0.00     0.119 A 
HETATM   17  C14 UNL     1      23.702   6.001  49.950  1.00  0.00     0.049 A 
HETATM   18  C15 UNL     1      23.952   5.499  51.224  1.00  0.00     0.039 A 
HETATM   19  C17 UNL     1      24.193   3.390  52.448  1.00  0.00     0.031 A 
BRANCH  18  20
HETATM   20  N5  UNL     1      24.167   6.362  52.332  1.00  0.00    -0.398 N 
HETATM   21  H10 UNL     1      24.094   5.935  53.290  1.00  0.00     0.156 HD
HETATM   22  H11 UNL     1      24.386   7.360  52.130  1.00  0.00     0.156 HD
ENDBRANCH  18  20
ENDBRANCH   8  11
BRANCH   1  23
HETATM   23  C3  UNL     1      19.726  -0.522  53.098  1.00  0.00     0.010 A 
HETATM   24  C2  UNL     1      19.205   0.355  52.166  1.00  0.00     0.125 A 
HETATM   25  N1  UNL     1      17.897   0.186  51.957  1.00  0.00    -0.285 N 
HETATM   26  C1  UNL     1      17.047   0.922  51.061  1.00  0.00     0.179 C 
HETATM   27  N6  UNL     1      17.558  -0.797  52.748  1.00  0.00    -0.185 NA
HETATM   28  C20 UNL     1      18.598  -1.267  53.458  1.00  0.00     0.152 A 
ENDBRANCH   1  23
TORSDOF 3
ENDMDL
MODEL 6
REMARK VINA RESULT:      -9.2      2.577      6.368
REMARK  3 active torsions:
REMARK  status: ('A' for Active; 'I' for Inactive)
REMARK    1  A    between atoms: C3_4  and  C4_5 
REMARK    2  A    between atoms: C9_12  and  C10_13 
REMARK    3  A    between atoms: C15_19  and  N5_20 
ROOT
HETATM    1  C4  UNL     1      25.484   1.671  52.173  1.00  0.00    -0.022 A 
HETATM    2  C5  UNL     1      26.627   1.448  52.910  1.00  0.00     0.014 A 
HETATM    3  C6  UNL     1      26.521   0.572  53.967  1.00  0.00     0.033 A 
HETATM    4  C7  UNL     1      25.343  -0.085  54.319  1.00  0.00     0.070 A 
HETATM    5  N2  UNL     1      25.264  -0.936  55.355  1.00  0.00    -0.241 NA
HETATM    6  C8  UNL     1      24.084  -1.550  55.652  1.00  0.00     0.234 A 
HETATM    7  N3  UNL     1      23.022  -1.278  54.885  1.00  0.00    -0.240 NA
HETATM    8  C9  UNL     1      23.081  -0.430  53.845  1.00  0.00     0.082 A 
HETATM    9  C18 UNL     1      24.267   0.214  53.513  1.00  0.00     0.023 A 
HETATM   10  C19 UNL     1      24.268   1.073  52.437  1.00  0.00     0.028 A 
ENDROOT
BRANCH   8  11
HETATM   11  C10 UNL     1      21.825  -0.254  53.121  1.00  0.00     0.008 A 
HETATM   12  C11 UNL     1      21.461   0.337  52.000  1.00  0.00     0.020 A 
HETATM   13  C12 UNL     1      20.188   0.237  51.739  1.00  0.00     0.081 A 
HETATM   14  N4  UNL     1      19.358   0.656  50.753  1.00  0.00    -0.259 NA
HETATM   15  C16 UNL     1      19.548  -0.477  52.729  1.00  0.00     0.021 A 
HETATM   16  C13 UNL     1      18.040   0.385  50.764  1.00  0.00     0.119 A 
HETATM   17  C14 UNL     1      17.409  -0.335  51.766  1.00  0.00     0.049 A 
HETATM   18  C15 UNL     1      18.210  -0.792  52.808  1.00  0.00     0.039 A 
HETATM   19  C17 UNL     1      20.531  -0.792  53.593  1.00  0.00     0.031 A 
BRANCH  18  20
HETATM   20  N5  UNL     1      17.668  -1.541  53.887  1.00  0.00    -0.398 N 
HETATM   21  H10 UNL     1      16.648  -1.401  54.101  1.00  0.00     0.156 HD
HETATM   22  H11 UNL     1      18.311  -2.180  54.400  1.00  0.00     0.156 HD
ENDBRANCH  18  20
ENDBRANCH   8  11
BRANCH   1  23
HETATM   23  C3  UNL     1      25.572   2.596  51.048  1.00  0.00     0.010 A 
HETATM   24  C2  UNL     1      26.689   3.223  50.529  1.00  0.00     0.125 A 
HETATM   25  N1  UNL     1      26.412   4.013  49.489  1.00  0.00    -0.285 N 
HETATM   26  C1  UNL     1      27.332   4.807  48.718  1.00  0.00     0.179 C 
HETATM   27  N6  UNL     1      25.121   3.908  49.324  1.00  0.00    -0.185 NA
HETATM   28  C20 UNL     1      24.555   3.080  50.218  1.00  0.00     0.152 A 
ENDBRANCH   1  23
TORSDOF 3
ENDMDL
MODEL 7
REMARK VINA RESULT:      -8.9      2.093      7.269
REMARK  3 active torsions:
REMARK  status: ('A' for Active; 'I' for Inactive)
REMARK    1  A    between atoms: C3_4  and  C4_5 
REMARK    2  A    between atoms: C9_12  and  C10_13 
REMARK    3  A    between atoms: C15_19  and  N5_20 
ROOT
HETATM    1  C4  UNL     1      22.693  -0.296  53.768  1.00  0.00    -0.022 A 
HETATM    2  C5  UNL     1      23.115  -1.203  54.717  1.00  0.00     0.014 A 
HETATM    3  C6  UNL     1      24.459  -1.205  55.017  1.00  0.00     0.033 A 
HETATM    4  C7  UNL     1      25.391  -0.354  54.422  1.00  0.00     0.070 A 
HETATM    5  N2  UNL     1      26.697  -0.374  54.732  1.00  0.00    -0.241 NA
HETATM    6  C8  UNL     1      27.562   0.482  54.118  1.00  0.00     0.234 A 
HETATM    7  N3  UNL     1      27.069   1.331  53.209  1.00  0.00    -0.240 NA
HETATM    8  C9  UNL     1      25.766   1.366  52.886  1.00  0.00     0.082 A 
HETATM    9  C18 UNL     1      24.855   0.508  53.491  1.00  0.00     0.023 A 
HETATM   10  C19 UNL     1      23.532   0.589  53.121  1.00  0.00     0.028 A 
ENDROOT
BRANCH   8  11
HETATM   11  C10 UNL     1      25.407   2.355  51.874  1.00  0.00     0.008 A 
HETATM   12  C11 UNL     1      24.280   2.828  51.378  1.00  0.00     0.020 A 
HETATM   13  C12 UNL     1      24.448   3.733  50.456  1.00  0.00     0.081 A 
HETATM   14  N4  UNL     1      23.640   4.490  49.674  1.00  0.00    -0.259 NA
HETATM   15  C16 UNL     1      25.790   3.960  50.241  1.00  0.00     0.021 A 
HETATM   16  C13 UNL     1      24.129   5.371  48.781  1.00  0.00     0.119 A 
HETATM   17  C14 UNL     1      25.482   5.590  48.576  1.00  0.00     0.049 A 
HETATM   18  C15 UNL     1      26.362   4.841  49.350  1.00  0.00     0.039 A 
HETATM   19  C17 UNL     1      26.405   3.126  51.100  1.00  0.00     0.031 A 
BRANCH  18  20
HETATM   20  N5  UNL     1      27.770   4.984  49.222  1.00  0.00    -0.398 N 
HETATM   21  H10 UNL     1      28.136   5.283  48.283  1.00  0.00     0.156 HD
HETATM   22  H11 UNL     1      28.353   4.786  50.063  1.00  0.00     0.156 HD
ENDBRANCH  18  20
ENDBRANCH   8  11
BRANCH   1  23
HETATM   23  C3  UNL     1      21.273  -0.277  53.435  1.00  0.00     0.010 A 
HETATM   24  C2  UNL     1      20.285  -1.171  53.801  1.00  0.00     0.125 A 
HETATM   25  N1  UNL     1      19.082  -0.853  53.317  1.00  0.00    -0.285 N 
HETATM   26  C1  UNL     1      17.843  -1.561  53.504  1.00  0.00     0.179 C 
HETATM   27  N6  UNL     1      19.276   0.244  52.636  1.00  0.00    -0.185 NA
HETATM   28  C20 UNL     1      20.558   0.645  52.662  1.00  0.00     0.152 A 
ENDBRANCH   1  23
TORSDOF 3
ENDMDL
MODEL 8
REMARK VINA RESULT:      -8.6      2.093      6.805
REMARK  3 active torsions:
REMARK  status: ('A' for Active; 'I' for Inactive)
REMARK    1  A    between atoms: C3_4  and  C4_5 
REMARK    2  A    between atoms: C9_12  and  C10_13 
REMARK    3  A    between atoms: C15_19  and  N5_20 
ROOT
HETATM    1  C4  UNL     1      22.750   0.403  52.576  1.00  0.00    -0.022 A 
HETATM    2  C5  UNL     1      21.621  -0.379  52.689  1.00  0.00     0.014 A 
HETATM    3  C6  UNL     1      20.552  -0.041  51.889  1.00  0.00     0.033 A 
HETATM    4  C7  UNL     1      20.558   1.027  50.992  1.00  0.00     0.070 A 
HETATM    5  N2  UNL     1      19.503   1.337  50.221  1.00  0.00    -0.241 NA
HETATM    6  C8  UNL     1      19.566   2.393  49.361  1.00  0.00     0.234 A 
HETATM    7  N3  UNL     1      20.702   3.100  49.315  1.00  0.00    -0.240 NA
HETATM    8  C9  UNL     1      21.767   2.805  50.078  1.00  0.00     0.082 A 
HETATM    9  C18 UNL     1      21.738   1.736  50.965  1.00  0.00     0.023 A 
HETATM   10  C19 UNL     1      22.860   1.482  51.721  1.00  0.00     0.028 A 
ENDROOT
BRANCH   8  11
HETATM   11  C10 UNL     1      22.919   3.684  49.895  1.00  0.00     0.008 A 
HETATM   12  C11 UNL     1      24.053   3.620  49.226  1.00  0.00     0.020 A 
HETATM   13  C12 UNL     1      24.806   4.675  49.361  1.00  0.00     0.081 A 
HETATM   14  N4  UNL     1      26.015   5.077  48.897  1.00  0.00    -0.259 NA
HETATM   15  C16 UNL     1      24.199   5.598  50.186  1.00  0.00     0.021 A 
HETATM   16  C13 UNL     1      26.546   6.269  49.227  1.00  0.00     0.119 A 
HETATM   17  C14 UNL     1      25.925   7.188  50.057  1.00  0.00     0.049 A 
HETATM   18  C15 UNL     1      24.680   6.832  50.565  1.00  0.00     0.039 A 
HETATM   19  C17 UNL     1      23.036   5.016  50.529  1.00  0.00     0.031 A 
BRANCH  18  20
HETATM   20  N5  UNL     1      23.954   7.698  51.426  1.00  0.00    -0.398 N 
HETATM   21  H10 UNL     1      24.267   8.701  51.469  1.00  0.00     0.156 HD
HETATM   22  H11 UNL     1      23.158   7.289  51.960  1.00  0.00     0.156 HD
ENDBRANCH  18  20
ENDBRANCH   8  11
BRANCH   1  23
HETATM   23  C3  UNL     1      23.895   0.064  53.415  1.00  0.00     0.010 A 
HETATM   24  C2  UNL     1      25.154   0.634  53.434  1.00  0.00     0.125 A 
HETATM   25  N1  UNL     1      25.970   0.077  54.332  1.00  0.00    -0.285 N 
HETATM   26  C1  UNL     1      27.338   0.424  54.612  1.00  0.00     0.179 C 
HETATM   27  N6  UNL     1      25.254  -0.856  54.900  1.00  0.00    -0.185 NA
HETATM   28  C20 UNL     1      24.007  -0.921  54.403  1.00  0.00     0.152 A 
ENDBRANCH   1  23
TORSDOF 3
ENDMDL
MODEL 9
REMARK VINA RESULT:      -8.6      2.322      7.458
REMARK  3 active torsions:
REMARK  status: ('A' for Active; 'I' for Inactive)
REMARK    1  A    between atoms: C3_4  and  C4_5 
REMARK    2  A    between atoms: C9_12  and  C10_13 
REMARK    3  A    between atoms: C15_19  and  N5_20 
ROOT
HETATM    1  C4  UNL     1      23.915  -0.143  53.839  1.00  0.00    -0.022 A 
HETATM    2  C5  UNL     1      24.747  -0.724  54.772  1.00  0.00     0.014 A 
HETATM    3  C6  UNL     1      26.060  -0.310  54.773  1.00  0.00     0.033 A 
HETATM    4  C7  UNL     1      26.577   0.644  53.898  1.00  0.00     0.070 A 
HETATM    5  N2  UNL     1      27.862   1.033  53.918  1.00  0.00    -0.241 NA
HETATM    6  C8  UNL     1      28.311   1.971  53.038  1.00  0.00     0.234 A 
HETATM    7  N3  UNL     1      27.437   2.484  52.164  1.00  0.00    -0.240 NA
HETATM    8  C9  UNL     1      26.148   2.109  52.129  1.00  0.00     0.082 A 
HETATM    9  C18 UNL     1      25.655   1.155  53.011  1.00  0.00     0.023 A 
HETATM   10  C19 UNL     1      24.325   0.810  52.928  1.00  0.00     0.028 A 
ENDROOT
BRANCH   8  11
HETATM   11  C10 UNL     1      25.340   2.774  51.110  1.00  0.00     0.008 A 
HETATM   12  C11 UNL     1      25.335   3.965  50.543  1.00  0.00     0.020 A 
HETATM   13  C12 UNL     1      24.396   4.122  49.653  1.00  0.00     0.081 A 
HETATM   14  N4  UNL     1      23.989   5.119  48.830  1.00  0.00    -0.259 NA
HETATM   15  C16 UNL     1      23.642   2.974  49.540  1.00  0.00     0.021 A 
HETATM   16  C13 UNL     1      22.947   4.973  47.991  1.00  0.00     0.119 A 
HETATM   17  C14 UNL     1      22.197   3.812  47.887  1.00  0.00     0.049 A 
HETATM   18  C15 UNL     1      22.566   2.752  48.708  1.00  0.00     0.039 A 
HETATM   19  C17 UNL     1      24.200   2.127  50.424  1.00  0.00     0.031 A 
BRANCH  18  20
HETATM   20  N5  UNL     1      21.867   1.515  48.684  1.00  0.00    -0.398 N 
HETATM   21  H10 UNL     1      20.946   1.498  48.177  1.00  0.00     0.156 HD
HETATM   22  H11 UNL     1      22.308   0.705  49.168  1.00  0.00     0.156 HD
ENDBRANCH  18  20
ENDBRANCH   8  11
BRANCH   1  23
HETATM   23  C3  UNL     1      22.519  -0.566  53.819  1.00  0.00     0.010 A 
HETATM   24  C2  UNL     1      21.463  -0.036  53.101  1.00  0.00     0.125 A 
HETATM   25  N1  UNL     1      20.308  -0.669  53.320  1.00  0.00    -0.285 N 
HETATM   26  C1  UNL     1      19.023  -0.379  52.742  1.00  0.00     0.179 C 
HETATM   27  N6  UNL     1      20.600  -1.610  54.177  1.00  0.00    -0.185 NA
HETATM   28  C20 UNL     1      21.900  -1.608  54.519  1.00  0.00     0.152 A 
ENDBRANCH   1  23
TORSDOF 3
ENDMDL
