MODEL 1
REMARK VINA RESULT:      -8.3      0.000      0.000
REMARK  7 active torsions:
REMARK  status: ('A' for Active; 'I' for Inactive)
REMARK    1  A    between atoms: O1_2  and  C2_3 
REMARK    2  A    between atoms: C3_4  and  O2_5 
REMARK    3  A    between atoms: C9_13  and  O3_14 
REMARK    4  A    between atoms: O3_14  and  C10_15 
REMARK    5  A    between atoms: C13_18  and  N3_19 
REMARK       I    between atoms: N3_19  and  C14_20 
REMARK       I    between atoms: C14_20  and  N4_22 
REMARK    6  A    between atoms: N4_22  and  C15_23 
REMARK    7  A    between atoms: C18_26  and  O5_27 
ROOT
HETATM    1  C10 UNL     1      22.381   1.807  51.102  1.00  0.00     0.077 A 
HETATM    2  C11 UNL     1      22.307   2.958  51.853  1.00  0.00     0.039 A 
HETATM    3  C12 UNL     1      22.599   4.186  51.296  1.00  0.00     0.032 A 
HETATM    4  C13 UNL     1      22.973   4.293  49.972  1.00  0.00     0.036 A 
HETATM    5  C22 UNL     1      23.052   3.147  49.205  1.00  0.00     0.032 A 
HETATM    6  C23 UNL     1      22.760   1.925  49.765  1.00  0.00     0.039 A 
ENDROOT
BRANCH   1   7
HETATM    7  O3  UNL     1      22.135   0.498  51.456  1.00  0.00    -0.295 OA
BRANCH   7   8
HETATM    8  C9  UNL     1      22.277  -0.018  52.721  1.00  0.00     0.163 C 
HETATM    9  C5  UNL     1      23.428  -0.013  53.600  1.00  0.00     0.174 A 
HETATM   10  C3  UNL     1      24.787   0.117  53.171  1.00  0.00     0.097 A 
HETATM   11  C6  UNL     1      23.300  -0.895  54.736  1.00  0.00     0.057 A 
HETATM   12  C2  UNL     1      25.454  -0.623  54.074  1.00  0.00     0.100 A 
HETATM   13  C7  UNL     1      24.539  -1.257  55.046  1.00  0.00     0.067 A 
HETATM   14  N1  UNL     1      22.038  -1.405  55.231  1.00  0.00    -0.245 NA
HETATM   15  C8  UNL     1      21.043  -1.230  54.361  1.00  0.00     0.235 C 
HETATM   16  N2  UNL     1      21.183  -0.571  53.112  1.00  0.00    -0.221 NA
BRANCH  10  17
HETATM   17  O2  UNL     1      25.218   0.855  52.087  1.00  0.00    -0.356 OA
HETATM   18  C4  UNL     1      25.861   2.114  52.217  1.00  0.00     0.209 C 
ENDBRANCH  10  17
BRANCH  12  19
HETATM   19  O1  UNL     1      26.837  -0.817  54.130  1.00  0.00    -0.353 OA
HETATM   20  C1  UNL     1      27.676   0.130  54.763  1.00  0.00     0.210 C 
ENDBRANCH  12  19
ENDBRANCH   7   8
ENDBRANCH   1   7
BRANCH   4  21
HETATM   21  N3  UNL     1      23.235   5.638  49.574  1.00  0.00    -0.309 N 
HETATM   22  C14 UNL     1      24.579   6.042  49.555  1.00  0.00     0.325 C 
HETATM   23  O4  UNL     1      25.388   5.166  49.892  1.00  0.00    -0.247 OA
HETATM   24  N4  UNL     1      25.046   7.310  49.197  1.00  0.00    -0.309 N 
HETATM   25  H13 UNL     1      24.247   7.950  48.935  1.00  0.00     0.170 HD
HETATM   26  H12 UNL     1      22.486   6.341  49.296  1.00  0.00     0.170 HD
BRANCH  24  27
HETATM   27  C15 UNL     1      26.370   7.806  49.148  1.00  0.00     0.036 A 
HETATM   28  C16 UNL     1      27.381   7.350  48.369  1.00  0.00     0.032 A 
HETATM   29  C17 UNL     1      28.655   7.880  48.368  1.00  0.00     0.039 A 
HETATM   30  C18 UNL     1      28.965   8.937  49.191  1.00  0.00     0.068 A 
HETATM   31  C20 UNL     1      27.954   9.416  49.990  1.00  0.00     0.039 A 
HETATM   32  C21 UNL     1      26.706   8.864  49.963  1.00  0.00     0.032 A 
BRANCH  30  33
HETATM   33  O5  UNL     1      30.206   9.544  49.270  1.00  0.00    -0.356 OA
HETATM   34  C19 UNL     1      30.423  10.891  48.964  1.00  0.00     0.210 C 
ENDBRANCH  30  33
ENDBRANCH  24  27
ENDBRANCH   4  21
TORSDOF 7
ENDMDL
MODEL 2
REMARK VINA RESULT:      -7.6      4.172      5.631
REMARK  7 active torsions:
REMARK  status: ('A' for Active; 'I' for Inactive)
REMARK    1  A    between atoms: O1_2  and  C2_3 
REMARK    2  A    between atoms: C3_4  and  O2_5 
REMARK    3  A    between atoms: C9_13  and  O3_14 
REMARK    4  A    between atoms: O3_14  and  C10_15 
REMARK    5  A    between atoms: C13_18  and  N3_19 
REMARK       I    between atoms: N3_19  and  C14_20 
REMARK       I    between atoms: C14_20  and  N4_22 
REMARK    6  A    between atoms: N4_22  and  C15_23 
REMARK    7  A    between atoms: C18_26  and  O5_27 
ROOT
HETATM    1  C10 UNL     1      22.302   1.882  51.233  1.00  0.00     0.077 A 
HETATM    2  C11 UNL     1      22.850   2.526  50.147  1.00  0.00     0.039 A 
HETATM    3  C12 UNL     1      22.797   3.899  50.039  1.00  0.00     0.032 A 
HETATM    4  C13 UNL     1      22.194   4.665  51.016  1.00  0.00     0.036 A 
HETATM    5  C22 UNL     1      21.640   4.035  52.112  1.00  0.00     0.032 A 
HETATM    6  C23 UNL     1      21.695   2.663  52.215  1.00  0.00     0.039 A 
ENDROOT
BRANCH   1   7
HETATM    7  O3  UNL     1      22.245   0.538  51.534  1.00  0.00    -0.295 OA
BRANCH   7   8
HETATM    8  C9  UNL     1      22.412   0.002  52.787  1.00  0.00     0.163 C 
HETATM    9  C5  UNL     1      23.575   0.009  53.651  1.00  0.00     0.174 A 
HETATM   10  C3  UNL     1      24.925   0.169  53.207  1.00  0.00     0.097 A 
HETATM   11  C6  UNL     1      23.476  -0.896  54.772  1.00  0.00     0.057 A 
HETATM   12  C2  UNL     1      25.616  -0.576  54.087  1.00  0.00     0.100 A 
HETATM   13  C7  UNL     1      24.725  -1.243  55.060  1.00  0.00     0.067 A 
HETATM   14  N1  UNL     1      22.229  -1.436  55.273  1.00  0.00    -0.245 NA
HETATM   15  C8  UNL     1      21.220  -1.261  54.420  1.00  0.00     0.235 C 
HETATM   16  N2  UNL     1      21.332  -0.577  53.182  1.00  0.00    -0.221 NA
BRANCH  10  17
HETATM   17  O2  UNL     1      25.330   0.934  52.131  1.00  0.00    -0.356 OA
HETATM   18  C4  UNL     1      25.956   2.200  52.277  1.00  0.00     0.209 C 
ENDBRANCH  10  17
BRANCH  12  19
HETATM   19  O1  UNL     1      27.002  -0.748  54.122  1.00  0.00    -0.353 OA
HETATM   20  C1  UNL     1      27.828   0.163  54.822  1.00  0.00     0.210 C 
ENDBRANCH  12  19
ENDBRANCH   7   8
ENDBRANCH   1   7
BRANCH   4  21
HETATM   21  N3  UNL     1      22.236   6.063  50.734  1.00  0.00    -0.309 N 
HETATM   22  C14 UNL     1      21.076   6.633  50.186  1.00  0.00     0.325 C 
HETATM   23  O4  UNL     1      20.141   5.839  50.011  1.00  0.00    -0.247 OA
HETATM   24  N4  UNL     1      20.912   7.977  49.839  1.00  0.00    -0.309 N 
HETATM   25  H13 UNL     1      21.788   8.533  50.042  1.00  0.00     0.170 HD
HETATM   26  H12 UNL     1      23.079   6.689  50.910  1.00  0.00     0.170 HD
BRANCH  24  27
HETATM   27  C15 UNL     1      19.790   8.639  49.285  1.00  0.00     0.036 A 
HETATM   28  C16 UNL     1      19.241   8.425  48.065  1.00  0.00     0.032 A 
HETATM   29  C17 UNL     1      18.142   9.106  47.583  1.00  0.00     0.039 A 
HETATM   30  C18 UNL     1      17.533  10.070  48.352  1.00  0.00     0.068 A 
HETATM   31  C20 UNL     1      18.074  10.303  49.593  1.00  0.00     0.039 A 
HETATM   32  C21 UNL     1      19.163   9.608  50.036  1.00  0.00     0.032 A 
BRANCH  30  33
HETATM   33  O5  UNL     1      16.429  10.811  47.968  1.00  0.00    -0.356 OA
HETATM   34  C19 UNL     1      15.715  10.570  46.790  1.00  0.00     0.210 C 
ENDBRANCH  30  33
ENDBRANCH  24  27
ENDBRANCH   4  21
TORSDOF 7
ENDMDL
MODEL 3
REMARK VINA RESULT:      -7.4      8.385     10.758
REMARK  7 active torsions:
REMARK  status: ('A' for Active; 'I' for Inactive)
REMARK    1  A    between atoms: O1_2  and  C2_3 
REMARK    2  A    between atoms: C3_4  and  O2_5 
REMARK    3  A    between atoms: C9_13  and  O3_14 
REMARK    4  A    between atoms: O3_14  and  C10_15 
REMARK    5  A    between atoms: C13_18  and  N3_19 
REMARK       I    between atoms: N3_19  and  C14_20 
REMARK       I    between atoms: C14_20  and  N4_22 
REMARK    6  A    between atoms: N4_22  and  C15_23 
REMARK    7  A    between atoms: C18_26  and  O5_27 
ROOT
HETATM    1  C10 UNL     1      30.953   6.140  48.105  1.00  0.00     0.077 A 
HETATM    2  C11 UNL     1      31.752   7.035  48.779  1.00  0.00     0.039 A 
HETATM    3  C12 UNL     1      31.227   8.203  49.292  1.00  0.00     0.032 A 
HETATM    4  C13 UNL     1      29.888   8.504  49.145  1.00  0.00     0.036 A 
HETATM    5  C22 UNL     1      29.073   7.615  48.472  1.00  0.00     0.032 A 
HETATM    6  C23 UNL     1      29.602   6.452  47.961  1.00  0.00     0.039 A 
ENDROOT
BRANCH   1   7
HETATM    7  O3  UNL     1      31.270   4.932  47.520  1.00  0.00    -0.295 OA
BRANCH   7   8
HETATM    8  C9  UNL     1      32.544   4.460  47.324  1.00  0.00     0.163 C 
HETATM    9  C5  UNL     1      33.545   4.867  46.359  1.00  0.00     0.174 A 
HETATM   10  C3  UNL     1      33.267   5.518  45.115  1.00  0.00     0.097 A 
HETATM   11  C6  UNL     1      34.663   3.958  46.257  1.00  0.00     0.057 A 
HETATM   12  C2  UNL     1      34.240   5.052  44.313  1.00  0.00     0.100 A 
HETATM   13  C7  UNL     1      35.109   4.082  45.013  1.00  0.00     0.067 A 
HETATM   14  N1  UNL     1      35.018   2.990  47.273  1.00  0.00    -0.245 NA
HETATM   15  C8  UNL     1      34.043   2.808  48.165  1.00  0.00     0.235 C 
HETATM   16  N2  UNL     1      32.815   3.519  48.159  1.00  0.00    -0.221 NA
BRANCH  10  17
HETATM   17  O2  UNL     1      32.234   6.406  44.889  1.00  0.00    -0.356 OA
HETATM   18  C4  UNL     1      32.369   7.808  45.065  1.00  0.00     0.209 C 
ENDBRANCH  10  17
BRANCH  12  19
HETATM   19  O1  UNL     1      34.449   5.394  42.975  1.00  0.00    -0.353 OA
HETATM   20  C1  UNL     1      33.610   4.882  41.958  1.00  0.00     0.210 C 
ENDBRANCH  12  19
ENDBRANCH   7   8
ENDBRANCH   1   7
BRANCH   4  21
HETATM   21  N3  UNL     1      29.528   9.750  49.740  1.00  0.00    -0.309 N 
HETATM   22  C14 UNL     1      29.160  10.785  48.866  1.00  0.00     0.325 C 
HETATM   23  O4  UNL     1      29.191  10.485  47.664  1.00  0.00    -0.247 OA
HETATM   24  N4  UNL     1      28.775  12.075  49.245  1.00  0.00    -0.309 N 
HETATM   25  H13 UNL     1      28.794  12.185  50.295  1.00  0.00     0.170 HD
HETATM   26  H12 UNL     1      29.523   9.939  50.787  1.00  0.00     0.170 HD
BRANCH  24  27
HETATM   27  C15 UNL     1      28.389  13.176  48.443  1.00  0.00     0.036 A 
HETATM   28  C16 UNL     1      27.136  13.668  48.287  1.00  0.00     0.032 A 
HETATM   29  C17 UNL     1      26.825  14.749  47.489  1.00  0.00     0.039 A 
HETATM   30  C18 UNL     1      27.815  15.399  46.788  1.00  0.00     0.068 A 
HETATM   31  C20 UNL     1      29.093  14.916  46.932  1.00  0.00     0.039 A 
HETATM   32  C21 UNL     1      29.361  13.843  47.732  1.00  0.00     0.032 A 
BRANCH  30  33
HETATM   33  O5  UNL     1      27.615  16.490  45.961  1.00  0.00    -0.356 OA
HETATM   34  C19 UNL     1      27.811  16.450  44.576  1.00  0.00     0.210 C 
ENDBRANCH  30  33
ENDBRANCH  24  27
ENDBRANCH   4  21
TORSDOF 7
ENDMDL
MODEL 4
REMARK VINA RESULT:      -7.3      1.622      2.271
REMARK  7 active torsions:
REMARK  status: ('A' for Active; 'I' for Inactive)
REMARK    1  A    between atoms: O1_2  and  C2_3 
REMARK    2  A    between atoms: C3_4  and  O2_5 
REMARK    3  A    between atoms: C9_13  and  O3_14 
REMARK    4  A    between atoms: O3_14  and  C10_15 
REMARK    5  A    between atoms: C13_18  and  N3_19 
REMARK       I    between atoms: N3_19  and  C14_20 
REMARK       I    between atoms: C14_20  and  N4_22 
REMARK    6  A    between atoms: N4_22  and  C15_23 
REMARK    7  A    between atoms: C18_26  and  O5_27 
ROOT
HETATM    1  C10 UNL     1      23.736   3.434  50.384  1.00  0.00     0.077 A 
HETATM    2  C11 UNL     1      24.088   4.342  51.357  1.00  0.00     0.039 A 
HETATM    3  C12 UNL     1      24.431   5.636  51.026  1.00  0.00     0.032 A 
HETATM    4  C13 UNL     1      24.429   6.056  49.712  1.00  0.00     0.036 A 
HETATM    5  C22 UNL     1      24.078   5.158  48.723  1.00  0.00     0.032 A 
HETATM    6  C23 UNL     1      23.737   3.867  49.059  1.00  0.00     0.039 A 
ENDROOT
BRANCH   1   7
HETATM    7  O3  UNL     1      23.365   2.111  50.496  1.00  0.00    -0.295 OA
BRANCH   7   8
HETATM    8  C9  UNL     1      23.017   1.485  51.667  1.00  0.00     0.163 C 
HETATM    9  C5  UNL     1      23.858   0.935  52.710  1.00  0.00     0.174 A 
HETATM   10  C3  UNL     1      25.214   0.515  52.532  1.00  0.00     0.097 A 
HETATM   11  C6  UNL     1      23.150   0.101  53.653  1.00  0.00     0.057 A 
HETATM   12  C2  UNL     1      25.323  -0.507  53.400  1.00  0.00     0.100 A 
HETATM   13  C7  UNL     1      24.047  -0.772  54.097  1.00  0.00     0.067 A 
HETATM   14  N1  UNL     1      21.716   0.132  53.849  1.00  0.00    -0.245 NA
HETATM   15  C8  UNL     1      21.083   0.778  52.870  1.00  0.00     0.235 C 
HETATM   16  N2  UNL     1      21.736   1.415  51.782  1.00  0.00    -0.221 NA
BRANCH  10  17
HETATM   17  O2  UNL     1      26.123   1.086  51.665  1.00  0.00    -0.356 OA
HETATM   18  C4  UNL     1      27.004   2.131  52.050  1.00  0.00     0.209 C 
ENDBRANCH  10  17
BRANCH  12  19
HETATM   19  O1  UNL     1      26.468  -1.268  53.647  1.00  0.00    -0.353 OA
HETATM   20  C1  UNL     1      27.027  -2.083  52.635  1.00  0.00     0.210 C 
ENDBRANCH  12  19
ENDBRANCH   7   8
ENDBRANCH   1   7
BRANCH   4  21
HETATM   21  N3  UNL     1      24.810   7.423  49.563  1.00  0.00    -0.309 N 
HETATM   22  C14 UNL     1      26.133   7.672  49.167  1.00  0.00     0.325 C 
HETATM   23  O4  UNL     1      26.822   6.657  48.992  1.00  0.00    -0.247 OA
HETATM   24  N4  UNL     1      26.702   8.933  48.966  1.00  0.00    -0.309 N 
HETATM   25  H13 UNL     1      26.001   9.701  49.152  1.00  0.00     0.170 HD
HETATM   26  H12 UNL     1      24.163   8.250  49.731  1.00  0.00     0.170 HD
BRANCH  24  27
HETATM   27  C15 UNL     1      28.016   9.281  48.571  1.00  0.00     0.036 A 
HETATM   28  C16 UNL     1      29.136   9.224  49.333  1.00  0.00     0.032 A 
HETATM   29  C17 UNL     1      30.392   9.578  48.886  1.00  0.00     0.039 A 
HETATM   30  C18 UNL     1      30.568  10.022  47.595  1.00  0.00     0.068 A 
HETATM   31  C20 UNL     1      29.445  10.087  46.806  1.00  0.00     0.039 A 
HETATM   32  C21 UNL     1      28.218   9.728  47.284  1.00  0.00     0.032 A 
BRANCH  30  33
HETATM   33  O5  UNL     1      31.779  10.402  47.045  1.00  0.00    -0.356 OA
HETATM   34  C19 UNL     1      32.992   9.775  47.352  1.00  0.00     0.210 C 
ENDBRANCH  30  33
ENDBRANCH  24  27
ENDBRANCH   4  21
TORSDOF 7
ENDMDL
MODEL 5
REMARK VINA RESULT:      -7.3      2.340      4.181
REMARK  7 active torsions:
REMARK  status: ('A' for Active; 'I' for Inactive)
REMARK    1  A    between atoms: O1_2  and  C2_3 
REMARK    2  A    between atoms: C3_4  and  O2_5 
REMARK    3  A    between atoms: C9_13  and  O3_14 
REMARK    4  A    between atoms: O3_14  and  C10_15 
REMARK    5  A    between atoms: C13_18  and  N3_19 
REMARK       I    between atoms: N3_19  and  C14_20 
REMARK       I    between atoms: C14_20  and  N4_22 
REMARK    6  A    between atoms: N4_22  and  C15_23 
REMARK    7  A    between atoms: C18_26  and  O5_27 
ROOT
HETATM    1  C10 UNL     1      23.334   2.205  52.132  1.00  0.00     0.077 A 
HETATM    2  C11 UNL     1      24.661   2.184  52.498  1.00  0.00     0.039 A 
HETATM    3  C12 UNL     1      25.650   2.497  51.590  1.00  0.00     0.032 A 
HETATM    4  C13 UNL     1      25.336   2.840  50.291  1.00  0.00     0.036 A 
HETATM    5  C22 UNL     1      24.010   2.867  49.907  1.00  0.00     0.032 A 
HETATM    6  C23 UNL     1      23.027   2.553  50.818  1.00  0.00     0.039 A 
ENDROOT
BRANCH   1   7
HETATM    7  O3  UNL     1      22.204   1.930  52.872  1.00  0.00    -0.295 OA
BRANCH   7   8
HETATM    8  C9  UNL     1      21.824   0.681  53.298  1.00  0.00     0.163 C 
HETATM    9  C5  UNL     1      20.711  -0.145  52.875  1.00  0.00     0.174 A 
HETATM   10  C3  UNL     1      19.514   0.345  52.262  1.00  0.00     0.097 A 
HETATM   11  C6  UNL     1      20.456  -1.271  53.741  1.00  0.00     0.057 A 
HETATM   12  C2  UNL     1      18.582  -0.515  52.708  1.00  0.00     0.100 A 
HETATM   13  C7  UNL     1      19.157  -1.519  53.628  1.00  0.00     0.067 A 
HETATM   14  N1  UNL     1      21.422  -1.816  54.672  1.00  0.00    -0.245 NA
HETATM   15  C8  UNL     1      22.454  -0.996  54.872  1.00  0.00     0.235 C 
HETATM   16  N2  UNL     1      22.624   0.248  54.209  1.00  0.00    -0.221 NA
BRANCH  10  17
HETATM   17  O2  UNL     1      19.433   1.436  51.421  1.00  0.00    -0.356 OA
HETATM   18  C4  UNL     1      19.528   1.330  50.008  1.00  0.00     0.209 C 
ENDBRANCH  10  17
BRANCH  12  19
HETATM   19  O1  UNL     1      17.222  -0.504  52.388  1.00  0.00    -0.353 OA
HETATM   20  C1  UNL     1      16.419  -1.650  52.598  1.00  0.00     0.210 C 
ENDBRANCH  12  19
ENDBRANCH   7   8
ENDBRANCH   1   7
BRANCH   4  21
HETATM   21  N3  UNL     1      26.487   3.131  49.498  1.00  0.00    -0.309 N 
HETATM   22  C14 UNL     1      26.752   4.485  49.241  1.00  0.00     0.325 C 
HETATM   23  O4  UNL     1      25.941   5.277  49.742  1.00  0.00    -0.247 OA
HETATM   24  N4  UNL     1      27.823   4.980  48.490  1.00  0.00    -0.309 N 
HETATM   25  H13 UNL     1      28.428   4.194  48.127  1.00  0.00     0.170 HD
HETATM   26  H12 UNL     1      27.144   2.397  49.097  1.00  0.00     0.170 HD
BRANCH  24  27
HETATM   27  C15 UNL     1      28.170   6.316  48.179  1.00  0.00     0.036 A 
HETATM   28  C16 UNL     1      27.392   7.233  47.553  1.00  0.00     0.032 A 
HETATM   29  C17 UNL     1      27.791   8.525  47.279  1.00  0.00     0.039 A 
HETATM   30  C18 UNL     1      29.046   8.954  47.644  1.00  0.00     0.068 A 
HETATM   31  C20 UNL     1      29.850   8.041  48.281  1.00  0.00     0.039 A 
HETATM   32  C21 UNL     1      29.420   6.770  48.535  1.00  0.00     0.032 A 
BRANCH  30  33
HETATM   33  O5  UNL     1      29.546  10.224  47.419  1.00  0.00    -0.356 OA
HETATM   34  C19 UNL     1      29.045  11.370  48.047  1.00  0.00     0.210 C 
ENDBRANCH  30  33
ENDBRANCH  24  27
ENDBRANCH   4  21
TORSDOF 7
ENDMDL
MODEL 6
REMARK VINA RESULT:      -7.3      3.137      3.949
REMARK  7 active torsions:
REMARK  status: ('A' for Active; 'I' for Inactive)
REMARK    1  A    between atoms: O1_2  and  C2_3 
REMARK    2  A    between atoms: C3_4  and  O2_5 
REMARK    3  A    between atoms: C9_13  and  O3_14 
REMARK    4  A    between atoms: O3_14  and  C10_15 
REMARK    5  A    between atoms: C13_18  and  N3_19 
REMARK       I    between atoms: N3_19  and  C14_20 
REMARK       I    between atoms: C14_20  and  N4_22 
REMARK    6  A    between atoms: N4_22  and  C15_23 
REMARK    7  A    between atoms: C18_26  and  O5_27 
ROOT
HETATM    1  C10 UNL     1      23.999   4.190  51.117  1.00  0.00     0.077 A 
HETATM    2  C11 UNL     1      24.653   3.456  50.155  1.00  0.00     0.039 A 
HETATM    3  C12 UNL     1      25.535   4.059  49.283  1.00  0.00     0.032 A 
HETATM    4  C13 UNL     1      25.784   5.415  49.352  1.00  0.00     0.036 A 
HETATM    5  C22 UNL     1      25.136   6.166  50.312  1.00  0.00     0.032 A 
HETATM    6  C23 UNL     1      24.257   5.559  51.179  1.00  0.00     0.039 A 
ENDROOT
BRANCH   1   7
HETATM    7  O3  UNL     1      23.091   3.791  52.075  1.00  0.00    -0.295 OA
BRANCH   7   8
HETATM    8  C9  UNL     1      22.564   2.528  52.185  1.00  0.00     0.163 C 
HETATM    9  C5  UNL     1      23.033   1.392  52.952  1.00  0.00     0.174 A 
HETATM   10  C3  UNL     1      24.383   1.198  53.386  1.00  0.00     0.097 A 
HETATM   11  C6  UNL     1      22.391   0.146  52.603  1.00  0.00     0.057 A 
HETATM   12  C2  UNL     1      24.513  -0.140  53.357  1.00  0.00     0.100 A 
HETATM   13  C7  UNL     1      23.284  -0.800  52.869  1.00  0.00     0.067 A 
HETATM   14  N1  UNL     1      21.124   0.052  51.908  1.00  0.00    -0.245 NA
HETATM   15  C8  UNL     1      20.761   1.208  51.354  1.00  0.00     0.235 C 
HETATM   16  N2  UNL     1      21.497   2.416  51.474  1.00  0.00    -0.221 NA
BRANCH  10  17
HETATM   17  O2  UNL     1      25.262   2.200  53.743  1.00  0.00    -0.356 OA
HETATM   18  C4  UNL     1      26.565   2.316  53.190  1.00  0.00     0.209 C 
ENDBRANCH  10  17
BRANCH  12  19
HETATM   19  O1  UNL     1      25.648  -0.872  53.716  1.00  0.00    -0.353 OA
HETATM   20  C1  UNL     1      26.547  -1.343  52.732  1.00  0.00     0.210 C 
ENDBRANCH  12  19
ENDBRANCH   7   8
ENDBRANCH   1   7
BRANCH   4  21
HETATM   21  N3  UNL     1      26.722   5.859  48.372  1.00  0.00    -0.309 N 
HETATM   22  C14 UNL     1      28.056   5.462  48.547  1.00  0.00     0.325 C 
HETATM   23  O4  UNL     1      28.262   4.760  49.548  1.00  0.00    -0.247 OA
HETATM   24  N4  UNL     1      29.123   5.788  47.705  1.00  0.00    -0.309 N 
HETATM   25  H13 UNL     1      28.801   6.388  46.896  1.00  0.00     0.170 HD
HETATM   26  H12 UNL     1      26.475   6.464  47.532  1.00  0.00     0.170 HD
BRANCH  24  27
HETATM   27  C15 UNL     1      30.491   5.437  47.798  1.00  0.00     0.036 A 
HETATM   28  C16 UNL     1      31.090   4.349  47.255  1.00  0.00     0.032 A 
HETATM   29  C17 UNL     1      32.433   4.063  47.383  1.00  0.00     0.039 A 
HETATM   30  C18 UNL     1      33.255   4.904  48.098  1.00  0.00     0.068 A 
HETATM   31  C20 UNL     1      32.668   6.013  48.657  1.00  0.00     0.039 A 
HETATM   32  C21 UNL     1      31.334   6.263  48.509  1.00  0.00     0.032 A 
BRANCH  30  33
HETATM   33  O5  UNL     1      34.612   4.714  48.289  1.00  0.00    -0.356 OA
HETATM   34  C19 UNL     1      35.384   5.501  49.149  1.00  0.00     0.210 C 
ENDBRANCH  30  33
ENDBRANCH  24  27
ENDBRANCH   4  21
TORSDOF 7
ENDMDL
MODEL 7
REMARK VINA RESULT:      -7.2     21.016     23.657
REMARK  7 active torsions:
REMARK  status: ('A' for Active; 'I' for Inactive)
REMARK    1  A    between atoms: O1_2  and  C2_3 
REMARK    2  A    between atoms: C3_4  and  O2_5 
REMARK    3  A    between atoms: C9_13  and  O3_14 
REMARK    4  A    between atoms: O3_14  and  C10_15 
REMARK    5  A    between atoms: C13_18  and  N3_19 
REMARK       I    between atoms: N3_19  and  C14_20 
REMARK       I    between atoms: C14_20  and  N4_22 
REMARK    6  A    between atoms: N4_22  and  C15_23 
REMARK    7  A    between atoms: C18_26  and  O5_27 
ROOT
HETATM    1  C10 UNL     1      42.634   1.940  69.218  1.00  0.00     0.077 A 
HETATM    2  C11 UNL     1      42.644   3.287  69.500  1.00  0.00     0.039 A 
HETATM    3  C12 UNL     1      43.548   4.131  68.888  1.00  0.00     0.032 A 
HETATM    4  C13 UNL     1      44.465   3.647  67.978  1.00  0.00     0.036 A 
HETATM    5  C22 UNL     1      44.468   2.298  67.683  1.00  0.00     0.032 A 
HETATM    6  C23 UNL     1      43.565   1.461  68.297  1.00  0.00     0.039 A 
ENDROOT
BRANCH   1   7
HETATM    7  O3  UNL     1      41.828   0.935  69.709  1.00  0.00    -0.295 OA
BRANCH   7   8
HETATM    8  C9  UNL     1      40.456   0.933  69.667  1.00  0.00     0.163 C 
HETATM    9  C5  UNL     1      39.549  -0.024  69.066  1.00  0.00     0.174 A 
HETATM   10  C3  UNL     1      39.888  -0.917  68.000  1.00  0.00     0.097 A 
HETATM   11  C6  UNL     1      38.186   0.444  68.969  1.00  0.00     0.057 A 
HETATM   12  C2  UNL     1      38.730  -1.025  67.325  1.00  0.00     0.100 A 
HETATM   13  C7  UNL     1      37.670  -0.181  67.918  1.00  0.00     0.067 A 
HETATM   14  N1  UNL     1      37.642   1.532  69.755  1.00  0.00    -0.245 NA
HETATM   15  C8  UNL     1      38.593   2.254  70.348  1.00  0.00     0.235 C 
HETATM   16  N2  UNL     1      39.980   1.965  70.271  1.00  0.00    -0.221 NA
BRANCH  10  17
HETATM   17  O2  UNL     1      41.127  -1.492  67.800  1.00  0.00    -0.356 OA
HETATM   18  C4  UNL     1      41.565  -2.646  68.501  1.00  0.00     0.209 C 
ENDBRANCH  10  17
BRANCH  12  19
HETATM   19  O1  UNL     1      38.499  -1.808  66.192  1.00  0.00    -0.353 OA
HETATM   20  C1  UNL     1      38.434  -3.218  66.287  1.00  0.00     0.210 C 
ENDBRANCH  12  19
ENDBRANCH   7   8
ENDBRANCH   1   7
BRANCH   4  21
HETATM   21  N3  UNL     1      45.316   4.665  67.450  1.00  0.00    -0.309 N 
HETATM   22  C14 UNL     1      45.245   4.894  66.067  1.00  0.00     0.325 C 
HETATM   23  O4  UNL     1      44.439   4.173  65.462  1.00  0.00    -0.247 OA
HETATM   24  N4  UNL     1      45.990   5.840  65.357  1.00  0.00    -0.309 N 
HETATM   25  H13 UNL     1      46.633   6.379  66.000  1.00  0.00     0.170 HD
HETATM   26  H12 UNL     1      45.989   5.249  68.031  1.00  0.00     0.170 HD
BRANCH  24  27
HETATM   27  C15 UNL     1      45.988   6.141  63.974  1.00  0.00     0.036 A 
HETATM   28  C16 UNL     1      45.962   5.255  62.949  1.00  0.00     0.032 A 
HETATM   29  C17 UNL     1      45.960   5.616  61.617  1.00  0.00     0.039 A 
HETATM   30  C18 UNL     1      45.987   6.944  61.260  1.00  0.00     0.068 A 
HETATM   31  C20 UNL     1      46.014   7.859  62.284  1.00  0.00     0.039 A 
HETATM   32  C21 UNL     1      46.015   7.464  63.591  1.00  0.00     0.032 A 
BRANCH  30  33
HETATM   33  O5  UNL     1      45.988   7.415  59.959  1.00  0.00    -0.356 OA
HETATM   34  C19 UNL     1      45.321   6.774  58.909  1.00  0.00     0.210 C 
ENDBRANCH  30  33
ENDBRANCH  24  27
ENDBRANCH   4  21
TORSDOF 7
ENDMDL
MODEL 8
REMARK VINA RESULT:      -7.2      2.431      4.164
REMARK  7 active torsions:
REMARK  status: ('A' for Active; 'I' for Inactive)
REMARK    1  A    between atoms: O1_2  and  C2_3 
REMARK    2  A    between atoms: C3_4  and  O2_5 
REMARK    3  A    between atoms: C9_13  and  O3_14 
REMARK    4  A    between atoms: O3_14  and  C10_15 
REMARK    5  A    between atoms: C13_18  and  N3_19 
REMARK       I    between atoms: N3_19  and  C14_20 
REMARK       I    between atoms: C14_20  and  N4_22 
REMARK    6  A    between atoms: N4_22  and  C15_23 
REMARK    7  A    between atoms: C18_26  and  O5_27 
ROOT
HETATM    1  C10 UNL     1      22.559   3.556  51.244  1.00  0.00     0.077 A 
HETATM    2  C11 UNL     1      23.031   3.155  50.015  1.00  0.00     0.039 A 
HETATM    3  C12 UNL     1      23.781   4.008  49.234  1.00  0.00     0.032 A 
HETATM    4  C13 UNL     1      24.079   5.285  49.663  1.00  0.00     0.036 A 
HETATM    5  C22 UNL     1      23.613   5.703  50.894  1.00  0.00     0.032 A 
HETATM    6  C23 UNL     1      22.865   4.848  51.669  1.00  0.00     0.039 A 
ENDROOT
BRANCH   1   7
HETATM    7  O3  UNL     1      21.802   2.872  52.172  1.00  0.00    -0.295 OA
BRANCH   7   8
HETATM    8  C9  UNL     1      22.038   1.585  52.588  1.00  0.00     0.163 C 
HETATM    9  C5  UNL     1      21.150   0.441  52.613  1.00  0.00     0.174 A 
HETATM   10  C3  UNL     1      19.721   0.513  52.644  1.00  0.00     0.097 A 
HETATM   11  C6  UNL     1      21.654  -0.674  53.381  1.00  0.00     0.057 A 
HETATM   12  C2  UNL     1      19.386  -0.573  53.361  1.00  0.00     0.100 A 
HETATM   13  C7  UNL     1      20.578  -1.314  53.825  1.00  0.00     0.067 A 
HETATM   14  N1  UNL     1      23.047  -0.857  53.730  1.00  0.00    -0.245 NA
HETATM   15  C8  UNL     1      23.768   0.249  53.541  1.00  0.00     0.235 C 
HETATM   16  N2  UNL     1      23.249   1.456  53.005  1.00  0.00    -0.221 NA
BRANCH  10  17
HETATM   17  O2  UNL     1      18.955   1.491  52.042  1.00  0.00    -0.356 OA
HETATM   18  C4  UNL     1      18.741   1.550  50.640  1.00  0.00     0.209 C 
ENDBRANCH  10  17
BRANCH  12  19
HETATM   19  O1  UNL     1      18.091  -0.995  53.674  1.00  0.00    -0.353 OA
HETATM   20  C1  UNL     1      17.684  -2.327  53.428  1.00  0.00     0.210 C 
ENDBRANCH  12  19
ENDBRANCH   7   8
ENDBRANCH   1   7
BRANCH   4  21
HETATM   21  N3  UNL     1      24.863   6.020  48.723  1.00  0.00    -0.309 N 
HETATM   22  C14 UNL     1      26.256   5.966  48.882  1.00  0.00     0.325 C 
HETATM   23  O4  UNL     1      26.643   5.274  49.835  1.00  0.00    -0.247 OA
HETATM   24  N4  UNL     1      27.197   6.611  48.073  1.00  0.00    -0.309 N 
HETATM   25  H13 UNL     1      26.724   7.162  47.305  1.00  0.00     0.170 HD
HETATM   26  H12 UNL     1      24.462   6.597  47.925  1.00  0.00     0.170 HD
BRANCH  24  27
HETATM   27  C15 UNL     1      28.609   6.615  48.155  1.00  0.00     0.036 A 
HETATM   28  C16 UNL     1      29.435   5.548  48.020  1.00  0.00     0.032 A 
HETATM   29  C17 UNL     1      30.809   5.619  48.110  1.00  0.00     0.039 A 
HETATM   30  C18 UNL     1      31.425   6.826  48.350  1.00  0.00     0.068 A 
HETATM   31  C20 UNL     1      30.608   7.921  48.490  1.00  0.00     0.039 A 
HETATM   32  C21 UNL     1      29.250   7.811  48.394  1.00  0.00     0.032 A 
BRANCH  30  33
HETATM   33  O5  UNL     1      32.793   7.011  48.459  1.00  0.00    -0.356 OA
HETATM   34  C19 UNL     1      33.706   6.572  47.494  1.00  0.00     0.210 C 
ENDBRANCH  30  33
ENDBRANCH  24  27
ENDBRANCH   4  21
TORSDOF 7
ENDMDL
MODEL 9
REMARK VINA RESULT:      -7.2      5.580      9.258
REMARK  7 active torsions:
REMARK  status: ('A' for Active; 'I' for Inactive)
REMARK    1  A    between atoms: O1_2  and  C2_3 
REMARK    2  A    between atoms: C3_4  and  O2_5 
REMARK    3  A    between atoms: C9_13  and  O3_14 
REMARK    4  A    between atoms: O3_14  and  C10_15 
REMARK    5  A    between atoms: C13_18  and  N3_19 
REMARK       I    between atoms: N3_19  and  C14_20 
REMARK       I    between atoms: C14_20  and  N4_22 
REMARK    6  A    between atoms: N4_22  and  C15_23 
REMARK    7  A    between atoms: C18_26  and  O5_27 
ROOT
HETATM    1  C10 UNL     1      17.405  -0.466  51.282  1.00  0.00     0.077 A 
HETATM    2  C11 UNL     1      17.975  -0.591  52.529  1.00  0.00     0.039 A 
HETATM    3  C12 UNL     1      19.111   0.117  52.861  1.00  0.00     0.032 A 
HETATM    4  C13 UNL     1      19.706   0.969  51.954  1.00  0.00     0.036 A 
HETATM    5  C22 UNL     1      19.147   1.106  50.699  1.00  0.00     0.032 A 
HETATM    6  C23 UNL     1      18.014   0.397  50.372  1.00  0.00     0.039 A 
ENDROOT
BRANCH   1   7
HETATM    7  O3  UNL     1      16.287  -1.073  50.751  1.00  0.00    -0.295 OA
BRANCH   7   8
HETATM    8  C9  UNL     1      15.180  -1.452  51.468  1.00  0.00     0.163 C 
HETATM    9  C5  UNL     1      14.067  -0.657  51.947  1.00  0.00     0.174 A 
HETATM   10  C3  UNL     1      14.108   0.755  52.175  1.00  0.00     0.097 A 
HETATM   11  C6  UNL     1      13.232  -1.339  52.907  1.00  0.00     0.057 A 
HETATM   12  C2  UNL     1      13.263   0.911  53.209  1.00  0.00     0.100 A 
HETATM   13  C7  UNL     1      12.718  -0.382  53.672  1.00  0.00     0.067 A 
HETATM   14  N1  UNL     1      13.193  -2.776  53.076  1.00  0.00    -0.245 NA
HETATM   15  C8  UNL     1      14.217  -3.386  52.478  1.00  0.00     0.235 C 
HETATM   16  N2  UNL     1      15.207  -2.716  51.713  1.00  0.00    -0.221 NA
BRANCH  10  17
HETATM   17  O2  UNL     1      14.853   1.663  51.450  1.00  0.00    -0.356 OA
HETATM   18  C4  UNL     1      15.589   2.715  52.055  1.00  0.00     0.209 C 
ENDBRANCH  10  17
BRANCH  12  19
HETATM   19  O1  UNL     1      12.915   2.118  53.822  1.00  0.00    -0.353 OA
HETATM   20  C1  UNL     1      11.971   2.987  53.225  1.00  0.00     0.210 C 
ENDBRANCH  12  19
ENDBRANCH   7   8
ENDBRANCH   1   7
BRANCH   4  21
HETATM   21  N3  UNL     1      20.869   1.613  52.474  1.00  0.00    -0.309 N 
HETATM   22  C14 UNL     1      22.062   0.875  52.456  1.00  0.00     0.325 C 
HETATM   23  O4  UNL     1      21.960  -0.266  51.983  1.00  0.00    -0.247 OA
HETATM   24  N4  UNL     1      23.305   1.320  52.917  1.00  0.00    -0.309 N 
HETATM   25  H13 UNL     1      23.241   2.307  53.292  1.00  0.00     0.170 HD
HETATM   26  H12 UNL     1      20.885   2.601  52.868  1.00  0.00     0.170 HD
BRANCH  24  27
HETATM   27  C15 UNL     1      24.553   0.654  52.940  1.00  0.00     0.036 A 
HETATM   28  C16 UNL     1      25.563   0.789  52.046  1.00  0.00     0.032 A 
HETATM   29  C17 UNL     1      26.761   0.108  52.126  1.00  0.00     0.039 A 
HETATM   30  C18 UNL     1      26.989  -0.771  53.159  1.00  0.00     0.068 A 
HETATM   31  C20 UNL     1      25.978  -0.923  54.077  1.00  0.00     0.039 A 
HETATM   32  C21 UNL     1      24.806  -0.231  53.964  1.00  0.00     0.032 A 
BRANCH  30  33
HETATM   33  O5  UNL     1      28.150  -1.504  53.335  1.00  0.00    -0.356 OA
HETATM   34  C19 UNL     1      29.397  -0.919  53.575  1.00  0.00     0.210 C 
ENDBRANCH  30  33
ENDBRANCH  24  27
ENDBRANCH   4  21
TORSDOF 7
ENDMDL
