MODEL 1
REMARK VINA RESULT:      -8.6      0.000      0.000
REMARK  2 active torsions:
REMARK  status: ('A' for Active; 'I' for Inactive)
REMARK    1  A    between atoms: C7_8  and  C8_9 
REMARK    2  A    between atoms: N2_11  and  N3_12 
ROOT
HETATM    1  C8  UNL     1      22.429   4.017  51.528  1.00  0.00     0.079 C 
HETATM    2  N1  UNL     1      21.193   4.362  51.819  1.00  0.00    -0.159 NA
HETATM    3  N2  UNL     1      20.114   3.463  51.704  1.00  0.00    -0.199 N 
HETATM    4  C9  UNL     1      20.416   2.151  51.253  1.00  0.00     0.070 C 
HETATM    5  C10 UNL     1      21.674   1.860  50.965  1.00  0.00     0.022 C 
HETATM    6  C11 UNL     1      22.635   2.585  51.839  1.00  0.00     0.101 C 
HETATM    7  C12 UNL     1      23.985   2.063  51.747  1.00  0.00    -0.008 A 
HETATM    8  C13 UNL     1      24.898   2.663  50.925  1.00  0.00     0.053 A 
HETATM    9  C14 UNL     1      26.203   2.271  50.739  1.00  0.00     0.117 A 
HETATM   10  F1  UNL     1      26.965   2.991  49.882  1.00  0.00    -0.206 F 
HETATM   11  C15 UNL     1      26.670   1.154  51.446  1.00  0.00     0.045 A 
HETATM   12  C16 UNL     1      25.724   0.542  52.290  1.00  0.00     0.040 A 
HETATM   13  C17 UNL     1      24.378   0.939  52.487  1.00  0.00     0.076 A 
HETATM   14  O1  UNL     1      24.035  -0.022  53.379  1.00  0.00    -0.342 OA
HETATM   15  C18 UNL     1      23.057  -0.180  54.321  1.00  0.00     0.278 C 
HETATM   16  C19 UNL     1      21.717  -0.185  53.732  1.00  0.00     0.245 C 
HETATM   17  O2  UNL     1      20.696  -0.322  54.491  1.00  0.00    -0.271 OA
HETATM   18  N4  UNL     1      20.737  -0.128  52.761  1.00  0.00    -0.335 N 
HETATM   19  C20 UNL     1      19.760  -0.071  51.792  1.00  0.00     0.093 C 
HETATM   20  C21 UNL     1      19.571   0.984  51.056  1.00  0.00     0.049 C 
HETATM   21  H16 UNL     1      21.570  -0.129  52.142  1.00  0.00     0.168 HD
ENDROOT
BRANCH   1  22
HETATM   22  C7  UNL     1      23.058   5.263  51.018  1.00  0.00    -0.002 A 
HETATM   23  C2  UNL     1      22.866   5.388  49.665  1.00  0.00    -0.032 A 
HETATM   24  C1  UNL     1      22.136   4.426  48.787  1.00  0.00     0.050 C 
HETATM   25  C3  UNL     1      23.383   6.505  49.001  1.00  0.00     0.017 A 
HETATM   26 BR1  UNL     1      23.215   6.848  47.128  1.00  0.00    -0.051 Br
HETATM   27  C4  UNL     1      24.059   7.406  49.778  1.00  0.00     0.019 A 
HETATM   28  C5  UNL     1      24.242   7.266  51.130  1.00  0.00     0.002 A 
HETATM   29  C6  UNL     1      23.735   6.169  51.787  1.00  0.00     0.014 A 
ENDBRANCH   1  22
BRANCH   3  30
HETATM   30  N3  UNL     1      18.721   3.475  51.909  1.00  0.00    -0.226 NA
HETATM   31  H7  UNL     1      18.447   4.126  52.682  1.00  0.00     0.145 HD
HETATM   32  H8  UNL     1      18.298   3.870  51.039  1.00  0.00     0.145 HD
ENDBRANCH   3  30
TORSDOF 2
ENDMDL
MODEL 2
REMARK VINA RESULT:      -8.3      3.450      5.577
REMARK  2 active torsions:
REMARK  status: ('A' for Active; 'I' for Inactive)
REMARK    1  A    between atoms: C7_8  and  C8_9 
REMARK    2  A    between atoms: N2_11  and  N3_12 
ROOT
HETATM    1  C8  UNL     1      19.983   1.994  51.979  1.00  0.00     0.079 C 
HETATM    2  N1  UNL     1      19.880   1.724  53.262  1.00  0.00    -0.159 NA
HETATM    3  N2  UNL     1      20.685   0.755  53.894  1.00  0.00    -0.199 N 
HETATM    4  C9  UNL     1      21.624   0.069  53.079  1.00  0.00     0.070 C 
HETATM    5  C10 UNL     1      21.680   0.373  51.793  1.00  0.00     0.022 C 
HETATM    6  C11 UNL     1      21.384   1.810  51.539  1.00  0.00     0.101 C 
HETATM    7  C12 UNL     1      21.728   2.227  50.194  1.00  0.00    -0.008 A 
HETATM    8  C13 UNL     1      20.768   2.272  49.222  1.00  0.00     0.053 A 
HETATM    9  C14 UNL     1      20.958   2.642  47.911  1.00  0.00     0.117 A 
HETATM   10  F1  UNL     1      19.883   2.627  47.088  1.00  0.00    -0.206 F 
HETATM   11  C15 UNL     1      22.246   3.014  47.503  1.00  0.00     0.045 A 
HETATM   12  C16 UNL     1      23.229   2.965  48.510  1.00  0.00     0.040 A 
HETATM   13  C17 UNL     1      23.043   2.586  49.862  1.00  0.00     0.076 A 
HETATM   14  O1  UNL     1      24.324   2.749  50.274  1.00  0.00    -0.342 OA
HETATM   15  C18 UNL     1      24.951   2.930  51.475  1.00  0.00     0.278 C 
HETATM   16  C19 UNL     1      24.760   1.791  52.375  1.00  0.00     0.245 C 
HETATM   17  O2  UNL     1      25.287   1.815  53.541  1.00  0.00    -0.271 OA
HETATM   18  N4  UNL     1      24.319   0.560  52.819  1.00  0.00    -0.335 N 
HETATM   19  C20 UNL     1      23.878  -0.668  53.262  1.00  0.00     0.093 C 
HETATM   20  C21 UNL     1      22.616  -0.944  53.401  1.00  0.00     0.049 C 
HETATM   21  H16 UNL     1      23.989   0.499  51.837  1.00  0.00     0.168 HD
ENDROOT
BRANCH   1  22
HETATM   22  C7  UNL     1      18.609   2.378  51.563  1.00  0.00    -0.002 A 
HETATM   23  C2  UNL     1      17.877   1.271  51.215  1.00  0.00    -0.032 A 
HETATM   24  C1  UNL     1      18.357  -0.144  51.234  1.00  0.00     0.050 C 
HETATM   25  C3  UNL     1      16.552   1.429  50.799  1.00  0.00     0.017 A 
HETATM   26 BR1  UNL     1      15.383   0.008  50.280  1.00  0.00    -0.051 Br
HETATM   27  C4  UNL     1      16.080   2.714  50.771  1.00  0.00     0.019 A 
HETATM   28  C5  UNL     1      16.825   3.810  51.122  1.00  0.00     0.002 A 
HETATM   29  C6  UNL     1      18.130   3.659  51.531  1.00  0.00     0.014 A 
ENDBRANCH   1  22
BRANCH   3  30
HETATM   30  N3  UNL     1      20.846   0.214  55.184  1.00  0.00    -0.226 NA
HETATM   31  H7  UNL     1      21.809   0.384  55.559  1.00  0.00     0.145 HD
HETATM   32  H8  UNL     1      20.199   0.745  55.810  1.00  0.00     0.145 HD
ENDBRANCH   3  30
TORSDOF 2
ENDMDL
MODEL 3
REMARK VINA RESULT:      -8.3      2.926      4.596
REMARK  2 active torsions:
REMARK  status: ('A' for Active; 'I' for Inactive)
REMARK    1  A    between atoms: C7_8  and  C8_9 
REMARK    2  A    between atoms: N2_11  and  N3_12 
ROOT
HETATM    1  C8  UNL     1      23.767   3.376  50.357  1.00  0.00     0.079 C 
HETATM    2  N1  UNL     1      25.062   3.277  50.151  1.00  0.00    -0.159 NA
HETATM    3  N2  UNL     1      25.969   2.992  51.193  1.00  0.00    -0.199 N 
HETATM    4  C9  UNL     1      25.422   2.817  52.491  1.00  0.00     0.070 C 
HETATM    5  C10 UNL     1      24.113   2.936  52.643  1.00  0.00     0.022 C 
HETATM    6  C11 UNL     1      23.361   2.463  51.449  1.00  0.00     0.101 C 
HETATM    7  C12 UNL     1      21.942   2.306  51.703  1.00  0.00    -0.008 A 
HETATM    8  C13 UNL     1      21.068   3.300  51.362  1.00  0.00     0.053 A 
HETATM    9  C14 UNL     1      19.706   3.283  51.549  1.00  0.00     0.117 A 
HETATM   10  F1  UNL     1      18.998   4.364  51.145  1.00  0.00    -0.206 F 
HETATM   11  C15 UNL     1      19.130   2.153  52.145  1.00  0.00     0.045 A 
HETATM   12  C16 UNL     1      20.036   1.133  52.494  1.00  0.00     0.040 A 
HETATM   13  C17 UNL     1      21.440   1.142  52.304  1.00  0.00     0.076 A 
HETATM   14  O1  UNL     1      21.702  -0.079  52.831  1.00  0.00    -0.342 OA
HETATM   15  C18 UNL     1      22.720  -0.986  52.742  1.00  0.00     0.278 C 
HETATM   16  C19 UNL     1      23.985  -0.449  53.246  1.00  0.00     0.245 C 
HETATM   17  O2  UNL     1      25.034  -1.182  53.225  1.00  0.00    -0.271 OA
HETATM   18  N4  UNL     1      24.873   0.456  53.794  1.00  0.00    -0.335 N 
HETATM   19  C20 UNL     1      25.758   1.359  54.341  1.00  0.00     0.093 C 
HETATM   20  C21 UNL     1      26.048   2.486  53.761  1.00  0.00     0.049 C 
HETATM   21  H16 UNL     1      23.999   1.005  53.910  1.00  0.00     0.168 HD
ENDROOT
BRANCH   1  22
HETATM   22  C7  UNL     1      23.303   4.377  49.361  1.00  0.00    -0.002 A 
HETATM   23  C2  UNL     1      22.786   3.759  48.251  1.00  0.00    -0.032 A 
HETATM   24  C1  UNL     1      22.685   2.285  48.031  1.00  0.00     0.050 C 
HETATM   25  C3  UNL     1      22.291   4.538  47.201  1.00  0.00     0.017 A 
HETATM   26 BR1  UNL     1      21.534   3.855  45.584  1.00  0.00    -0.051 Br
HETATM   27  C4  UNL     1      22.368   5.894  47.372  1.00  0.00     0.019 A 
HETATM   28  C5  UNL     1      22.889   6.497  48.488  1.00  0.00     0.002 A 
HETATM   29  C6  UNL     1      23.377   5.734  49.523  1.00  0.00     0.014 A 
ENDBRANCH   1  22
BRANCH   3  30
HETATM   30  N3  UNL     1      27.358   2.825  51.348  1.00  0.00    -0.226 NA
HETATM   31  H7  UNL     1      27.897   3.592  50.881  1.00  0.00     0.145 HD
HETATM   32  H8  UNL     1      27.555   2.920  52.370  1.00  0.00     0.145 HD
ENDBRANCH   3  30
TORSDOF 2
ENDMDL
MODEL 4
REMARK VINA RESULT:      -8.2      4.463      7.537
REMARK  2 active torsions:
REMARK  status: ('A' for Active; 'I' for Inactive)
REMARK    1  A    between atoms: C7_8  and  C8_9 
REMARK    2  A    between atoms: N2_11  and  N3_12 
ROOT
HETATM    1  C8  UNL     1      24.200   5.326  50.221  1.00  0.00     0.079 C 
HETATM    2  N1  UNL     1      24.849   6.235  50.917  1.00  0.00    -0.159 NA
HETATM    3  N2  UNL     1      25.732   7.154  50.315  1.00  0.00    -0.199 N 
HETATM    4  C9  UNL     1      25.901   7.057  48.908  1.00  0.00     0.070 C 
HETATM    5  C10 UNL     1      25.231   6.118  48.259  1.00  0.00     0.022 C 
HETATM    6  C11 UNL     1      23.901   5.850  48.869  1.00  0.00     0.101 C 
HETATM    7  C12 UNL     1      23.039   5.055  48.016  1.00  0.00    -0.008 A 
HETATM    8  C13 UNL     1      22.949   3.703  48.198  1.00  0.00     0.053 A 
HETATM    9  C14 UNL     1      22.179   2.834  47.461  1.00  0.00     0.117 A 
HETATM   10  F1  UNL     1      22.216   1.522  47.788  1.00  0.00    -0.206 F 
HETATM   11  C15 UNL     1      21.402   3.355  46.417  1.00  0.00     0.045 A 
HETATM   12  C16 UNL     1      21.500   4.748  46.235  1.00  0.00     0.040 A 
HETATM   13  C17 UNL     1      22.290   5.650  46.990  1.00  0.00     0.076 A 
HETATM   14  O1  UNL     1      21.946   6.784  46.334  1.00  0.00    -0.342 OA
HETATM   15  C18 UNL     1      21.975   8.123  46.611  1.00  0.00     0.278 C 
HETATM   16  C19 UNL     1      23.337   8.612  46.833  1.00  0.00     0.245 C 
HETATM   17  O2  UNL     1      23.526   9.848  47.105  1.00  0.00    -0.271 OA
HETATM   18  N4  UNL     1      24.713   8.583  46.951  1.00  0.00    -0.335 N 
HETATM   19  C20 UNL     1      26.085   8.553  47.068  1.00  0.00     0.093 C 
HETATM   20  C21 UNL     1      26.689   7.848  47.978  1.00  0.00     0.049 C 
HETATM   21  H16 UNL     1      24.564   7.610  46.622  1.00  0.00     0.168 HD
ENDROOT
BRANCH   1  22
HETATM   22  C7  UNL     1      24.060   4.173  51.147  1.00  0.00    -0.002 A 
HETATM   23  C2  UNL     1      25.138   3.331  51.046  1.00  0.00    -0.032 A 
HETATM   24  C1  UNL     1      26.312   3.509  50.139  1.00  0.00     0.050 C 
HETATM   25  C3  UNL     1      25.191   2.185  51.846  1.00  0.00     0.017 A 
HETATM   26 BR1  UNL     1      26.609   0.903  51.842  1.00  0.00    -0.051 Br
HETATM   27  C4  UNL     1      24.130   1.993  52.689  1.00  0.00     0.019 A 
HETATM   28  C5  UNL     1      23.059   2.845  52.779  1.00  0.00     0.002 A 
HETATM   29  C6  UNL     1      23.003   3.972  51.993  1.00  0.00     0.014 A 
ENDBRANCH   1  22
BRANCH   3  30
HETATM   30  N3  UNL     1      26.569   8.213  50.717  1.00  0.00    -0.226 NA
HETATM   31  H7  UNL     1      27.543   7.885  50.917  1.00  0.00     0.145 HD
HETATM   32  H8  UNL     1      26.646   8.856  49.897  1.00  0.00     0.145 HD
ENDBRANCH   3  30
TORSDOF 2
ENDMDL
MODEL 5
REMARK VINA RESULT:      -8.0      5.381      7.794
REMARK  2 active torsions:
REMARK  status: ('A' for Active; 'I' for Inactive)
REMARK    1  A    between atoms: C7_8  and  C8_9 
REMARK    2  A    between atoms: N2_11  and  N3_12 
ROOT
HETATM    1  C8  UNL     1      24.612   7.544  47.573  1.00  0.00     0.079 C 
HETATM    2  N1  UNL     1      24.878   8.694  46.992  1.00  0.00    -0.159 NA
HETATM    3  N2  UNL     1      25.827   9.598  47.511  1.00  0.00    -0.199 N 
HETATM    4  C9  UNL     1      26.492   9.215  48.705  1.00  0.00     0.070 C 
HETATM    5  C10 UNL     1      26.180   8.052  49.254  1.00  0.00     0.022 C 
HETATM    6  C11 UNL     1      25.830   7.025  48.236  1.00  0.00     0.101 C 
HETATM    7  C12 UNL     1      25.778   5.683  48.784  1.00  0.00    -0.008 A 
HETATM    8  C13 UNL     1      24.580   5.141  49.160  1.00  0.00     0.053 A 
HETATM    9  C14 UNL     1      24.390   3.889  49.695  1.00  0.00     0.117 A 
HETATM   10  F1  UNL     1      23.125   3.520  50.008  1.00  0.00    -0.206 F 
HETATM   11  C15 UNL     1      25.510   3.068  49.886  1.00  0.00     0.045 A 
HETATM   12  C16 UNL     1      26.739   3.634  49.496  1.00  0.00     0.040 A 
HETATM   13  C17 UNL     1      26.945   4.922  48.944  1.00  0.00     0.076 A 
HETATM   14  O1  UNL     1      28.290   4.845  48.802  1.00  0.00    -0.342 OA
HETATM   15  C18 UNL     1      29.234   5.490  48.052  1.00  0.00     0.278 C 
HETATM   16  C19 UNL     1      29.304   6.919  48.361  1.00  0.00     0.245 C 
HETATM   17  O2  UNL     1      30.142   7.658  47.736  1.00  0.00    -0.271 OA
HETATM   18  N4  UNL     1      29.003   8.121  48.971  1.00  0.00    -0.335 N 
HETATM   19  C20 UNL     1      28.702   9.320  49.579  1.00  0.00     0.093 C 
HETATM   20  C21 UNL     1      27.531   9.875  49.480  1.00  0.00     0.049 C 
HETATM   21  H16 UNL     1      28.406   7.499  49.549  1.00  0.00     0.168 HD
ENDROOT
BRANCH   1  22
HETATM   22  C7  UNL     1      23.178   7.294  47.275  1.00  0.00    -0.002 A 
HETATM   23  C2  UNL     1      22.379   7.788  48.275  1.00  0.00    -0.032 A 
HETATM   24  C1  UNL     1      22.845   8.485  49.511  1.00  0.00     0.050 C 
HETATM   25  C3  UNL     1      20.991   7.653  48.172  1.00  0.00     0.017 A 
HETATM   26 BR1  UNL     1      19.724   8.278  49.460  1.00  0.00    -0.051 Br
HETATM   27  C4  UNL     1      20.531   7.019  47.049  1.00  0.00     0.019 A 
HETATM   28  C5  UNL     1      21.344   6.530  46.059  1.00  0.00     0.002 A 
HETATM   29  C6  UNL     1      22.710   6.661  46.157  1.00  0.00     0.014 A 
ENDBRANCH   1  22
BRANCH   3  30
HETATM   30  N3  UNL     1      26.347  10.865  47.184  1.00  0.00    -0.226 NA
HETATM   31  H7  UNL     1      26.861  11.294  47.990  1.00  0.00     0.145 HD
HETATM   32  H8  UNL     1      27.065  10.706  46.441  1.00  0.00     0.145 HD
ENDBRANCH   3  30
TORSDOF 2
ENDMDL
MODEL 6
REMARK VINA RESULT:      -7.9      9.398     11.954
REMARK  2 active torsions:
REMARK  status: ('A' for Active; 'I' for Inactive)
REMARK    1  A    between atoms: C7_8  and  C8_9 
REMARK    2  A    between atoms: N2_11  and  N3_12 
ROOT
HETATM    1  C8  UNL     1      31.654   8.876  46.190  1.00  0.00     0.079 C 
HETATM    2  N1  UNL     1      32.819   9.215  45.681  1.00  0.00    -0.159 NA
HETATM    3  N2  UNL     1      34.036   8.920  46.328  1.00  0.00    -0.199 N 
HETATM    4  C9  UNL     1      33.956   8.236  47.569  1.00  0.00     0.070 C 
HETATM    5  C10 UNL     1      32.758   7.927  48.040  1.00  0.00     0.022 C 
HETATM    6  C11 UNL     1      31.789   7.616  46.954  1.00  0.00     0.101 C 
HETATM    7  C12 UNL     1      30.575   6.993  47.445  1.00  0.00    -0.008 A 
HETATM    8  C13 UNL     1      29.459   7.749  47.677  1.00  0.00     0.053 A 
HETATM    9  C14 UNL     1      28.250   7.290  48.144  1.00  0.00     0.117 A 
HETATM   10  F1  UNL     1      27.254   8.190  48.312  1.00  0.00    -0.206 F 
HETATM   11  C15 UNL     1      28.118   5.922  48.417  1.00  0.00     0.045 A 
HETATM   12  C16 UNL     1      29.271   5.150  48.176  1.00  0.00     0.040 A 
HETATM   13  C17 UNL     1      30.520   5.614  47.695  1.00  0.00     0.076 A 
HETATM   14  O1  UNL     1      31.165   4.423  47.688  1.00  0.00    -0.342 OA
HETATM   15  C18 UNL     1      32.267   3.910  47.063  1.00  0.00     0.278 C 
HETATM   16  C19 UNL     1      33.493   4.621  47.429  1.00  0.00     0.245 C 
HETATM   17  O2  UNL     1      34.609   4.256  46.921  1.00  0.00    -0.271 OA
HETATM   18  N4  UNL     1      34.307   5.549  48.049  1.00  0.00    -0.335 N 
HETATM   19  C20 UNL     1      35.119   6.475  48.666  1.00  0.00     0.093 C 
HETATM   20  C21 UNL     1      34.990   7.753  48.469  1.00  0.00     0.049 C 
HETATM   21  H16 UNL     1      33.419   5.768  48.540  1.00  0.00     0.168 HD
ENDROOT
BRANCH   1  22
HETATM   22  C7  UNL     1      30.722   9.942  45.738  1.00  0.00    -0.002 A 
HETATM   23  C2  UNL     1      30.587  10.912  46.699  1.00  0.00    -0.032 A 
HETATM   24  C1  UNL     1      31.263  10.932  48.031  1.00  0.00     0.050 C 
HETATM   25  C3  UNL     1      29.751  12.006  46.456  1.00  0.00     0.017 A 
HETATM   26 BR1  UNL     1      29.442  13.449  47.671  1.00  0.00    -0.051 Br
HETATM   27  C4  UNL     1      29.116  12.018  45.243  1.00  0.00     0.019 A 
HETATM   28  C5  UNL     1      29.262  11.039  44.293  1.00  0.00     0.002 A 
HETATM   29  C6  UNL     1      30.083   9.962  44.529  1.00  0.00     0.014 A 
ENDBRANCH   1  22
BRANCH   3  30
HETATM   30  N3  UNL     1      35.412   9.121  46.102  1.00  0.00    -0.226 NA
HETATM   31  H7  UNL     1      35.967   9.035  46.985  1.00  0.00     0.145 HD
HETATM   32  H8  UNL     1      35.728   8.337  45.488  1.00  0.00     0.145 HD
ENDBRANCH   3  30
TORSDOF 2
ENDMDL
MODEL 7
REMARK VINA RESULT:      -7.7      6.875     10.580
REMARK  2 active torsions:
REMARK  status: ('A' for Active; 'I' for Inactive)
REMARK    1  A    between atoms: C7_8  and  C8_9 
REMARK    2  A    between atoms: N2_11  and  N3_12 
ROOT
HETATM    1  C8  UNL     1      27.214   8.417  48.808  1.00  0.00     0.079 C 
HETATM    2  N1  UNL     1      28.176   8.643  49.677  1.00  0.00    -0.159 NA
HETATM    3  N2  UNL     1      29.217   9.559  49.424  1.00  0.00    -0.199 N 
HETATM    4  C9  UNL     1      29.189  10.236  48.176  1.00  0.00     0.070 C 
HETATM    5  C10 UNL     1      28.204   9.964  47.336  1.00  0.00     0.022 C 
HETATM    6  C11 UNL     1      26.931   9.651  48.041  1.00  0.00     0.101 C 
HETATM    7  C12 UNL     1      25.783   9.645  47.155  1.00  0.00    -0.008 A 
HETATM    8  C13 UNL     1      25.320   8.467  46.639  1.00  0.00     0.053 A 
HETATM    9  C14 UNL     1      24.249   8.320  45.788  1.00  0.00     0.117 A 
HETATM   10  F1  UNL     1      23.934   7.069  45.379  1.00  0.00    -0.206 F 
HETATM   11  C15 UNL     1      23.548   9.467  45.395  1.00  0.00     0.045 A 
HETATM   12  C16 UNL     1      24.031  10.677  45.931  1.00  0.00     0.040 A 
HETATM   13  C17 UNL     1      25.132  10.838  46.808  1.00  0.00     0.076 A 
HETATM   14  O1  UNL     1      25.066  12.185  46.935  1.00  0.00    -0.342 OA
HETATM   15  C18 UNL     1      25.520  13.107  47.837  1.00  0.00     0.278 C 
HETATM   16  C19 UNL     1      26.982  13.127  47.920  1.00  0.00     0.245 C 
HETATM   17  O2  UNL     1      27.556  13.939  48.725  1.00  0.00    -0.271 OA
HETATM   18  N4  UNL     1      28.292  12.783  47.650  1.00  0.00    -0.335 N 
HETATM   19  C20 UNL     1      29.598  12.440  47.380  1.00  0.00     0.093 C 
HETATM   20  C21 UNL     1      30.066  11.249  47.613  1.00  0.00     0.049 C 
HETATM   21  H16 UNL     1      27.826  12.208  46.922  1.00  0.00     0.168 HD
ENDROOT
BRANCH   1  22
HETATM   22  C7  UNL     1      26.845   6.993  49.018  1.00  0.00    -0.002 A 
HETATM   23  C2  UNL     1      25.708   6.890  49.780  1.00  0.00    -0.032 A 
HETATM   24  C1  UNL     1      24.922   8.027  50.345  1.00  0.00     0.050 C 
HETATM   25  C3  UNL     1      25.199   5.624  50.082  1.00  0.00     0.017 A 
HETATM   26 BR1  UNL     1      23.632   5.287  51.124  1.00  0.00    -0.051 Br
HETATM   27  C4  UNL     1      25.897   4.560  49.579  1.00  0.00     0.019 A 
HETATM   28  C5  UNL     1      27.032   4.680  48.818  1.00  0.00     0.002 A 
HETATM   29  C6  UNL     1      27.537   5.924  48.519  1.00  0.00     0.014 A 
ENDBRANCH   1  22
BRANCH   3  30
HETATM   30  N3  UNL     1      30.368  10.035  50.080  1.00  0.00    -0.226 NA
HETATM   31  H7  UNL     1      30.412   9.709  51.074  1.00  0.00     0.145 HD
HETATM   32  H8  UNL     1      31.186   9.596  49.599  1.00  0.00     0.145 HD
ENDBRANCH   3  30
TORSDOF 2
ENDMDL
MODEL 8
REMARK VINA RESULT:      -7.6      4.588      7.439
REMARK  2 active torsions:
REMARK  status: ('A' for Active; 'I' for Inactive)
REMARK    1  A    between atoms: C7_8  and  C8_9 
REMARK    2  A    between atoms: N2_11  and  N3_12 
ROOT
HETATM    1  C8  UNL     1      24.447   5.829  49.844  1.00  0.00     0.079 C 
HETATM    2  N1  UNL     1      25.084   6.742  50.545  1.00  0.00    -0.159 NA
HETATM    3  N2  UNL     1      25.293   8.050  50.062  1.00  0.00    -0.199 N 
HETATM    4  C9  UNL     1      24.784   8.347  48.771  1.00  0.00     0.070 C 
HETATM    5  C10 UNL     1      24.159   7.389  48.105  1.00  0.00     0.022 C 
HETATM    6  C11 UNL     1      23.410   6.473  49.007  1.00  0.00     0.101 C 
HETATM    7  C12 UNL     1      22.489   5.609  48.294  1.00  0.00    -0.008 A 
HETATM    8  C13 UNL     1      22.857   4.335  47.964  1.00  0.00     0.053 A 
HETATM    9  C14 UNL     1      22.087   3.417  47.288  1.00  0.00     0.117 A 
HETATM   10  F1  UNL     1      22.621   2.196  47.050  1.00  0.00    -0.206 F 
HETATM   11  C15 UNL     1      20.799   3.795  46.886  1.00  0.00     0.045 A 
HETATM   12  C16 UNL     1      20.427   5.109  47.230  1.00  0.00     0.040 A 
HETATM   13  C17 UNL     1      21.212   6.060  47.926  1.00  0.00     0.076 A 
HETATM   14  O1  UNL     1      20.311   7.072  47.930  1.00  0.00    -0.342 OA
HETATM   15  C18 UNL     1      20.116   8.207  48.666  1.00  0.00     0.278 C 
HETATM   16  C19 UNL     1      21.233   9.145  48.543  1.00  0.00     0.245 C 
HETATM   17  O2  UNL     1      21.196  10.255  49.179  1.00  0.00    -0.271 OA
HETATM   18  N4  UNL     1      22.448   9.653  48.129  1.00  0.00    -0.335 N 
HETATM   19  C20 UNL     1      23.661  10.159  47.715  1.00  0.00     0.093 C 
HETATM   20  C21 UNL     1      24.789   9.577  47.996  1.00  0.00     0.049 C 
HETATM   21  H16 UNL     1      22.422   8.804  47.532  1.00  0.00     0.168 HD
ENDROOT
BRANCH   1  22
HETATM   22  C7  UNL     1      25.078   4.543  50.240  1.00  0.00    -0.002 A 
HETATM   23  C2  UNL     1      24.333   3.910  51.203  1.00  0.00    -0.032 A 
HETATM   24  C1  UNL     1      23.059   4.410  51.801  1.00  0.00     0.050 C 
HETATM   25  C3  UNL     1      24.764   2.677  51.702  1.00  0.00     0.017 A 
HETATM   26 BR1  UNL     1      23.859   1.651  53.038  1.00  0.00    -0.051 Br
HETATM   27  C4  UNL     1      25.929   2.189  51.173  1.00  0.00     0.019 A 
HETATM   28  C5  UNL     1      26.663   2.835  50.211  1.00  0.00     0.002 A 
HETATM   29  C6  UNL     1      26.242   4.048  49.718  1.00  0.00     0.014 A 
ENDBRANCH   1  22
BRANCH   3  30
HETATM   30  N3  UNL     1      25.907   9.238  50.503  1.00  0.00    -0.226 NA
HETATM   31  H7  UNL     1      25.552  10.075  49.984  1.00  0.00     0.145 HD
HETATM   32  H8  UNL     1      25.611   9.372  51.497  1.00  0.00     0.145 HD
ENDBRANCH   3  30
TORSDOF 2
ENDMDL
MODEL 9
REMARK VINA RESULT:      -7.6      4.010      6.881
REMARK  2 active torsions:
REMARK  status: ('A' for Active; 'I' for Inactive)
REMARK    1  A    between atoms: C7_8  and  C8_9 
REMARK    2  A    between atoms: N2_11  and  N3_12 
ROOT
HETATM    1  C8  UNL     1      22.359   3.149  50.360  1.00  0.00     0.079 C 
HETATM    2  N1  UNL     1      23.079   3.051  51.456  1.00  0.00    -0.159 NA
HETATM    3  N2  UNL     1      24.489   3.047  51.432  1.00  0.00    -0.199 N 
HETATM    4  C9  UNL     1      25.110   3.151  50.160  1.00  0.00     0.070 C 
HETATM    5  C10 UNL     1      24.338   3.238  49.089  1.00  0.00     0.022 C 
HETATM    6  C11 UNL     1      23.075   3.976  49.362  1.00  0.00     0.101 C 
HETATM    7  C12 UNL     1      22.362   4.340  48.153  1.00  0.00    -0.008 A 
HETATM    8  C13 UNL     1      21.337   3.558  47.698  1.00  0.00     0.053 A 
HETATM    9  C14 UNL     1      20.584   3.783  46.570  1.00  0.00     0.117 A 
HETATM   10  F1  UNL     1      19.604   2.897  46.276  1.00  0.00    -0.206 F 
HETATM   11  C15 UNL     1      20.872   4.912  45.791  1.00  0.00     0.045 A 
HETATM   12  C16 UNL     1      21.930   5.712  46.266  1.00  0.00     0.040 A 
HETATM   13  C17 UNL     1      22.710   5.488  47.427  1.00  0.00     0.076 A 
HETATM   14  O1  UNL     1      23.515   6.572  47.316  1.00  0.00    -0.342 OA
HETATM   15  C18 UNL     1      24.305   7.297  48.164  1.00  0.00     0.278 C 
HETATM   16  C19 UNL     1      25.390   6.494  48.732  1.00  0.00     0.245 C 
HETATM   17  O2  UNL     1      26.213   7.036  49.549  1.00  0.00    -0.271 OA
HETATM   18  N4  UNL     1      26.183   5.391  48.976  1.00  0.00    -0.335 N 
HETATM   19  C20 UNL     1      26.975   4.290  49.219  1.00  0.00     0.093 C 
HETATM   20  C21 UNL     1      26.511   3.211  49.777  1.00  0.00     0.049 C 
HETATM   21  H16 UNL     1      25.582   4.989  48.232  1.00  0.00     0.168 HD
ENDROOT
BRANCH   1  22
HETATM   22  C7  UNL     1      21.126   2.372  50.649  1.00  0.00    -0.002 A 
HETATM   23  C2  UNL     1      20.073   3.209  50.918  1.00  0.00    -0.032 A 
HETATM   24  C1  UNL     1      20.117   4.702  50.932  1.00  0.00     0.050 C 
HETATM   25  C3  UNL     1      18.820   2.662  51.209  1.00  0.00     0.017 A 
HETATM   26 BR1  UNL     1      17.243   3.668  51.606  1.00  0.00    -0.051 Br
HETATM   27  C4  UNL     1      18.746   1.295  51.204  1.00  0.00     0.019 A 
HETATM   28  C5  UNL     1      19.809   0.472  50.933  1.00  0.00     0.002 A 
HETATM   29  C6  UNL     1      21.043   1.007  50.646  1.00  0.00     0.014 A 
ENDBRANCH   1  22
BRANCH   3  30
HETATM   30  N3  UNL     1      25.547   2.955  52.357  1.00  0.00    -0.226 NA
HETATM   31  H7  UNL     1      25.695   3.856  52.869  1.00  0.00     0.145 HD
HETATM   32  H8  UNL     1      25.248   2.262  53.080  1.00  0.00     0.145 HD
ENDBRANCH   3  30
TORSDOF 2
ENDMDL
