MODEL 1
REMARK VINA RESULT:      -8.4      0.000      0.000
REMARK  3 active torsions:
REMARK  status: ('A' for Active; 'I' for Inactive)
REMARK    1  A    between atoms: C2_2  and  C3_3 
REMARK       I    between atoms: C3_3  and  N1_5 
REMARK    2  A    between atoms: C9_12  and  N3_13 
REMARK    3  A    between atoms: N3_13  and  C10_14 
ROOT
HETATM    1  C3  UNL     1      22.745  -0.729  53.461  1.00  0.00     0.250 C 
HETATM    2  O1  UNL     1      22.004  -0.423  52.491  1.00  0.00    -0.268 OA
HETATM    3  N1  UNL     1      24.073  -0.249  53.641  1.00  0.00    -0.299 N 
HETATM    4  C4  UNL     1      24.823  -0.661  54.778  1.00  0.00     0.100 A 
HETATM    5  C5  UNL     1      26.069  -0.245  55.000  1.00  0.00     0.031 A 
HETATM    6  C6  UNL     1      26.650   0.660  54.025  1.00  0.00    -0.007 A 
HETATM    7  C7  UNL     1      27.852   1.104  54.175  1.00  0.00     0.005 A 
HETATM    8  C8  UNL     1      28.370   1.925  53.279  1.00  0.00     0.132 A 
HETATM    9  N2  UNL     1      27.653   2.363  52.133  1.00  0.00    -0.241 NA
HETATM   10  C9  UNL     1      26.445   1.948  51.934  1.00  0.00     0.140 A 
HETATM   11  C16 UNL     1      25.835   1.038  52.896  1.00  0.00     0.037 A 
HETATM   12  C17 UNL     1      24.602   0.644  52.650  1.00  0.00     0.115 A 
ENDROOT
BRANCH  10  13
HETATM   13  N3  UNL     1      25.788   2.420  50.777  1.00  0.00    -0.340 N 
HETATM   14  H7  UNL     1      25.180   1.729  50.281  1.00  0.00     0.167 HD
BRANCH  13  15
HETATM   15  C10 UNL     1      25.891   3.726  50.249  1.00  0.00     0.035 A 
HETATM   16  C11 UNL     1      26.855   3.997  49.272  1.00  0.00     0.029 A 
HETATM   17  C12 UNL     1      27.039   5.233  48.698  1.00  0.00     0.004 A 
HETATM   18  C13 UNL     1      26.254   6.293  49.077  1.00  0.00     0.019 A 
HETATM   19  C14 UNL     1      25.290   6.077  50.036  1.00  0.00     0.013 A 
HETATM   20 BR1  UNL     1      24.166   7.524  50.601  1.00  0.00    -0.051 Br
HETATM   21  C15 UNL     1      25.140   4.825  50.583  1.00  0.00     0.048 A 
ENDBRANCH  13  15
ENDBRANCH  10  13
BRANCH   1  22
HETATM   22  C2  UNL     1      22.112  -1.634  54.399  1.00  0.00     0.065 C 
HETATM   23  C1  UNL     1      20.817  -1.455  54.181  1.00  0.00     0.017 C 
ENDBRANCH   1  22
TORSDOF 3
ENDMDL
MODEL 2
REMARK VINA RESULT:      -8.2      2.353      4.169
REMARK  3 active torsions:
REMARK  status: ('A' for Active; 'I' for Inactive)
REMARK    1  A    between atoms: C2_2  and  C3_3 
REMARK       I    between atoms: C3_3  and  N1_5 
REMARK    2  A    between atoms: C9_12  and  N3_13 
REMARK    3  A    between atoms: N3_13  and  C10_14 
ROOT
HETATM    1  C3  UNL     1      27.993   1.246  54.133  1.00  0.00     0.250 C 
HETATM    2  O1  UNL     1      28.560   2.368  54.070  1.00  0.00    -0.268 OA
HETATM    3  N1  UNL     1      26.628   1.014  53.801  1.00  0.00    -0.299 N 
HETATM    4  C4  UNL     1      26.089  -0.298  53.909  1.00  0.00     0.100 A 
HETATM    5  C5  UNL     1      24.821  -0.575  53.612  1.00  0.00     0.031 A 
HETATM    6  C6  UNL     1      23.987   0.527  53.167  1.00  0.00    -0.007 A 
HETATM    7  C7  UNL     1      22.749   0.333  52.863  1.00  0.00     0.005 A 
HETATM    8  C8  UNL     1      22.000   1.344  52.461  1.00  0.00     0.132 A 
HETATM    9  N2  UNL     1      22.501   2.669  52.337  1.00  0.00    -0.241 NA
HETATM   10  C9  UNL     1      23.734   2.918  52.630  1.00  0.00     0.140 A 
HETATM   11  C16 UNL     1      24.596   1.832  53.080  1.00  0.00     0.037 A 
HETATM   12  C17 UNL     1      25.846   2.136  53.366  1.00  0.00     0.115 A 
ENDROOT
BRANCH  10  13
HETATM   13  N3  UNL     1      24.169   4.254  52.486  1.00  0.00    -0.340 N 
HETATM   14  H7  UNL     1      24.384   4.765  53.373  1.00  0.00     0.167 HD
BRANCH  13  15
HETATM   15  C10 UNL     1      24.329   4.938  51.261  1.00  0.00     0.035 A 
HETATM   16  C11 UNL     1      25.163   4.397  50.276  1.00  0.00     0.029 A 
HETATM   17  C12 UNL     1      25.389   4.984  49.054  1.00  0.00     0.004 A 
HETATM   18  C13 UNL     1      24.782   6.174  48.738  1.00  0.00     0.019 A 
HETATM   19  C14 UNL     1      23.952   6.747  49.674  1.00  0.00     0.013 A 
HETATM   20 BR1  UNL     1      23.078   8.410  49.284  1.00  0.00    -0.051 Br
HETATM   21  C15 UNL     1      23.753   6.125  50.884  1.00  0.00     0.048 A 
ENDBRANCH  13  15
ENDBRANCH  10  13
BRANCH   1  22
HETATM   22  C2  UNL     1      28.873   0.187  54.583  1.00  0.00     0.065 C 
HETATM   23  C1  UNL     1      29.697   0.009  53.559  1.00  0.00     0.017 C 
ENDBRANCH   1  22
TORSDOF 3
ENDMDL
MODEL 3
REMARK VINA RESULT:      -8.1      2.514      4.337
REMARK  3 active torsions:
REMARK  status: ('A' for Active; 'I' for Inactive)
REMARK    1  A    between atoms: C2_2  and  C3_3 
REMARK       I    between atoms: C3_3  and  N1_5 
REMARK    2  A    between atoms: C9_12  and  N3_13 
REMARK    3  A    between atoms: N3_13  and  C10_14 
ROOT
HETATM    1  C3  UNL     1      27.627   1.273  54.152  1.00  0.00     0.250 C 
HETATM    2  O1  UNL     1      28.196   2.392  54.070  1.00  0.00    -0.268 OA
HETATM    3  N1  UNL     1      26.273   1.029  53.785  1.00  0.00    -0.299 N 
HETATM    4  C4  UNL     1      25.732  -0.280  53.920  1.00  0.00     0.100 A 
HETATM    5  C5  UNL     1      24.473  -0.568  53.593  1.00  0.00     0.031 A 
HETATM    6  C6  UNL     1      23.653   0.517  53.086  1.00  0.00    -0.007 A 
HETATM    7  C7  UNL     1      22.425   0.312  52.750  1.00  0.00     0.005 A 
HETATM    8  C8  UNL     1      21.689   1.309  52.293  1.00  0.00     0.132 A 
HETATM    9  N2  UNL     1      22.193   2.629  52.141  1.00  0.00    -0.241 NA
HETATM   10  C9  UNL     1      23.417   2.890  52.463  1.00  0.00     0.140 A 
HETATM   11  C16 UNL     1      24.264   1.819  52.975  1.00  0.00     0.037 A 
HETATM   12  C17 UNL     1      25.505   2.135  53.290  1.00  0.00     0.115 A 
ENDROOT
BRANCH  10  13
HETATM   13  N3  UNL     1      23.856   4.220  52.289  1.00  0.00    -0.340 N 
HETATM   14  H7  UNL     1      23.866   4.816  53.148  1.00  0.00     0.167 HD
BRANCH  13  15
HETATM   15  C10 UNL     1      24.270   4.795  51.067  1.00  0.00     0.035 A 
HETATM   16  C11 UNL     1      23.354   5.535  50.312  1.00  0.00     0.029 A 
HETATM   17  C12 UNL     1      23.654   6.131  49.109  1.00  0.00     0.004 A 
HETATM   18  C13 UNL     1      24.916   6.017  48.580  1.00  0.00     0.019 A 
HETATM   19  C14 UNL     1      25.853   5.299  49.286  1.00  0.00     0.013 A 
HETATM   20 BR1  UNL     1      27.631   5.109  48.591  1.00  0.00    -0.051 Br
HETATM   21  C15 UNL     1      25.510   4.719  50.484  1.00  0.00     0.048 A 
ENDBRANCH  13  15
ENDBRANCH  10  13
BRANCH   1  22
HETATM   22  C2  UNL     1      28.493   0.230  54.663  1.00  0.00     0.065 C 
HETATM   23  C1  UNL     1      29.460   0.155  53.759  1.00  0.00     0.017 C 
ENDBRANCH   1  22
TORSDOF 3
ENDMDL
MODEL 4
REMARK VINA RESULT:      -8.0      2.181      4.293
REMARK  3 active torsions:
REMARK  status: ('A' for Active; 'I' for Inactive)
REMARK    1  A    between atoms: C2_2  and  C3_3 
REMARK       I    between atoms: C3_3  and  N1_5 
REMARK    2  A    between atoms: C9_12  and  N3_13 
REMARK    3  A    between atoms: N3_13  and  C10_14 
ROOT
HETATM    1  C3  UNL     1      27.972   1.176  53.480  1.00  0.00     0.250 C 
HETATM    2  O1  UNL     1      28.551   1.988  52.712  1.00  0.00    -0.268 OA
HETATM    3  N1  UNL     1      26.597   0.817  53.383  1.00  0.00    -0.299 N 
HETATM    4  C4  UNL     1      26.046  -0.113  54.307  1.00  0.00     0.100 A 
HETATM    5  C5  UNL     1      24.768  -0.487  54.267  1.00  0.00     0.031 A 
HETATM    6  C6  UNL     1      23.938   0.097  53.228  1.00  0.00    -0.007 A 
HETATM    7  C7  UNL     1      22.692  -0.218  53.128  1.00  0.00     0.005 A 
HETATM    8  C8  UNL     1      21.947   0.323  52.181  1.00  0.00     0.132 A 
HETATM    9  N2  UNL     1      22.460   1.253  51.237  1.00  0.00    -0.241 NA
HETATM   10  C9  UNL     1      23.703   1.603  51.292  1.00  0.00     0.140 A 
HETATM   11  C16 UNL     1      24.561   1.033  52.324  1.00  0.00     0.037 A 
HETATM   12  C17 UNL     1      25.820   1.422  52.340  1.00  0.00     0.115 A 
ENDROOT
BRANCH  10  13
HETATM   13  N3  UNL     1      24.151   2.531  50.326  1.00  0.00    -0.340 N 
HETATM   14  H7  UNL     1      24.389   2.136  49.387  1.00  0.00     0.167 HD
BRANCH  13  15
HETATM   15  C10 UNL     1      24.301   3.920  50.530  1.00  0.00     0.035 A 
HETATM   16  C11 UNL     1      23.503   4.565  51.480  1.00  0.00     0.029 A 
HETATM   17  C12 UNL     1      23.568   5.912  51.750  1.00  0.00     0.004 A 
HETATM   18  C13 UNL     1      24.454   6.709  51.071  1.00  0.00     0.019 A 
HETATM   19  C14 UNL     1      25.263   6.122  50.125  1.00  0.00     0.013 A 
HETATM   20 BR1  UNL     1      26.519   7.191  49.147  1.00  0.00    -0.051 Br
HETATM   21  C15 UNL     1      25.165   4.771  49.886  1.00  0.00     0.048 A 
ENDBRANCH  13  15
ENDBRANCH  10  13
BRANCH   1  22
HETATM   22  C2  UNL     1      28.849   0.627  54.494  1.00  0.00     0.065 C 
HETATM   23  C1  UNL     1      29.656  -0.172  53.810  1.00  0.00     0.017 C 
ENDBRANCH   1  22
TORSDOF 3
ENDMDL
MODEL 5
REMARK VINA RESULT:      -7.7      2.892      4.578
REMARK  3 active torsions:
REMARK  status: ('A' for Active; 'I' for Inactive)
REMARK    1  A    between atoms: C2_2  and  C3_3 
REMARK       I    between atoms: C3_3  and  N1_5 
REMARK    2  A    between atoms: C9_12  and  N3_13 
REMARK    3  A    between atoms: N3_13  and  C10_14 
ROOT
HETATM    1  C3  UNL     1      26.491   1.489  53.899  1.00  0.00     0.250 C 
HETATM    2  O1  UNL     1      27.313   2.430  54.047  1.00  0.00    -0.268 OA
HETATM    3  N1  UNL     1      25.159   1.651  53.423  1.00  0.00    -0.299 N 
HETATM    4  C4  UNL     1      24.313   0.514  53.295  1.00  0.00     0.100 A 
HETATM    5  C5  UNL     1      23.059   0.604  52.856  1.00  0.00     0.031 A 
HETATM    6  C6  UNL     1      22.571   1.926  52.505  1.00  0.00    -0.007 A 
HETATM    7  C7  UNL     1      21.367   2.088  52.073  1.00  0.00     0.005 A 
HETATM    8  C8  UNL     1      20.934   3.296  51.760  1.00  0.00     0.132 A 
HETATM    9  N2  UNL     1      21.748   4.456  51.870  1.00  0.00    -0.241 NA
HETATM   10  C9  UNL     1      22.963   4.350  52.299  1.00  0.00     0.140 A 
HETATM   11  C16 UNL     1      23.480   3.035  52.658  1.00  0.00     0.037 A 
HETATM   12  C17 UNL     1      24.725   2.977  53.090  1.00  0.00     0.115 A 
ENDROOT
BRANCH  10  13
HETATM   13  N3  UNL     1      23.719   5.539  52.386  1.00  0.00    -0.340 N 
HETATM   14  H7  UNL     1      23.977   5.849  53.351  1.00  0.00     0.167 HD
BRANCH  13  15
HETATM   15  C10 UNL     1      24.139   6.327  51.292  1.00  0.00     0.035 A 
HETATM   16  C11 UNL     1      23.399   7.461  50.938  1.00  0.00     0.029 A 
HETATM   17  C12 UNL     1      23.720   8.290  49.889  1.00  0.00     0.004 A 
HETATM   18  C13 UNL     1      24.823   8.028  49.116  1.00  0.00     0.019 A 
HETATM   19  C14 UNL     1      25.584   6.923  49.424  1.00  0.00     0.013 A 
HETATM   20 BR1  UNL     1      27.136   6.512  48.375  1.00  0.00    -0.051 Br
HETATM   21  C15 UNL     1      25.227   6.121  50.481  1.00  0.00     0.048 A 
ENDBRANCH  13  15
ENDBRANCH  10  13
BRANCH   1  22
HETATM   22  C2  UNL     1      27.033   0.196  54.264  1.00  0.00     0.065 C 
HETATM   23  C1  UNL     1      27.955  -0.030  53.338  1.00  0.00     0.017 C 
ENDBRANCH   1  22
TORSDOF 3
ENDMDL
MODEL 6
REMARK VINA RESULT:      -7.6      3.162      7.390
REMARK  3 active torsions:
REMARK  status: ('A' for Active; 'I' for Inactive)
REMARK    1  A    between atoms: C2_2  and  C3_3 
REMARK       I    between atoms: C3_3  and  N1_5 
REMARK    2  A    between atoms: C9_12  and  N3_13 
REMARK    3  A    between atoms: N3_13  and  C10_14 
ROOT
HETATM    1  C3  UNL     1      27.224   5.383  48.808  1.00  0.00     0.250 C 
HETATM    2  O1  UNL     1      27.875   4.330  48.586  1.00  0.00    -0.268 OA
HETATM    3  N1  UNL     1      26.014   5.439  49.557  1.00  0.00    -0.299 N 
HETATM    4  C4  UNL     1      25.360   6.688  49.747  1.00  0.00     0.100 A 
HETATM    5  C5  UNL     1      24.226   6.802  50.437  1.00  0.00     0.031 A 
HETATM    6  C6  UNL     1      23.668   5.586  51.002  1.00  0.00    -0.007 A 
HETATM    7  C7  UNL     1      22.573   5.621  51.683  1.00  0.00     0.005 A 
HETATM    8  C8  UNL     1      22.073   4.508  52.189  1.00  0.00     0.132 A 
HETATM    9  N2  UNL     1      22.698   3.242  52.025  1.00  0.00    -0.241 NA
HETATM   10  C9  UNL     1      23.797   3.151  51.351  1.00  0.00     0.140 A 
HETATM   11  C16 UNL     1      24.382   4.354  50.773  1.00  0.00     0.037 A 
HETATM   12  C17 UNL     1      25.503   4.210  50.094  1.00  0.00     0.115 A 
ENDROOT
BRANCH  10  13
HETATM   13  N3  UNL     1      24.367   1.865  51.225  1.00  0.00    -0.340 N 
HETATM   14  H7  UNL     1      24.233   1.392  50.301  1.00  0.00     0.167 HD
BRANCH  13  15
HETATM   15  C10 UNL     1      25.085   1.183  52.231  1.00  0.00     0.035 A 
HETATM   16  C11 UNL     1      24.408   0.301  53.081  1.00  0.00     0.029 A 
HETATM   17  C12 UNL     1      25.012  -0.407  54.092  1.00  0.00     0.004 A 
HETATM   18  C13 UNL     1      26.360  -0.271  54.319  1.00  0.00     0.019 A 
HETATM   19  C14 UNL     1      27.071   0.584  53.509  1.00  0.00     0.013 A 
HETATM   20 BR1  UNL     1      28.956   0.810  53.783  1.00  0.00    -0.051 Br
HETATM   21  C15 UNL     1      26.426   1.273  52.509  1.00  0.00     0.048 A 
ENDBRANCH  13  15
ENDBRANCH  10  13
BRANCH   1  22
HETATM   22  C2  UNL     1      27.829   6.562  48.221  1.00  0.00     0.065 C 
HETATM   23  C1  UNL     1      29.085   6.195  48.008  1.00  0.00     0.017 C 
ENDBRANCH   1  22
TORSDOF 3
ENDMDL
MODEL 7
REMARK VINA RESULT:      -7.6      3.587      6.675
REMARK  3 active torsions:
REMARK  status: ('A' for Active; 'I' for Inactive)
REMARK    1  A    between atoms: C2_2  and  C3_3 
REMARK       I    between atoms: C3_3  and  N1_5 
REMARK    2  A    between atoms: C9_12  and  N3_13 
REMARK    3  A    between atoms: N3_13  and  C10_14 
ROOT
HETATM    1  C3  UNL     1      25.509   4.106  49.998  1.00  0.00     0.250 C 
HETATM    2  O1  UNL     1      24.500   4.819  49.757  1.00  0.00    -0.268 OA
HETATM    3  N1  UNL     1      25.503   2.961  50.845  1.00  0.00    -0.299 N 
HETATM    4  C4  UNL     1      26.705   2.228  51.047  1.00  0.00     0.100 A 
HETATM    5  C5  UNL     1      26.760   1.150  51.827  1.00  0.00     0.031 A 
HETATM    6  C6  UNL     1      25.530   0.738  52.478  1.00  0.00    -0.007 A 
HETATM    7  C7  UNL     1      25.508  -0.296  53.248  1.00  0.00     0.005 A 
HETATM    8  C8  UNL     1      24.383  -0.660  53.837  1.00  0.00     0.132 A 
HETATM    9  N2  UNL     1      23.161   0.044  53.658  1.00  0.00    -0.241 NA
HETATM   10  C9  UNL     1      23.127   1.088  52.898  1.00  0.00     0.140 A 
HETATM   11  C16 UNL     1      24.347   1.525  52.230  1.00  0.00     0.037 A 
HETATM   12  C17 UNL     1      24.262   2.596  51.465  1.00  0.00     0.115 A 
ENDROOT
BRANCH  10  13
HETATM   13  N3  UNL     1      21.883   1.742  52.762  1.00  0.00    -0.340 N 
HETATM   14  H7  UNL     1      21.834   2.718  53.135  1.00  0.00     0.167 HD
BRANCH  13  15
HETATM   15  C10 UNL     1      20.723   1.187  52.177  1.00  0.00     0.035 A 
HETATM   16  C11 UNL     1      20.406   1.500  50.851  1.00  0.00     0.029 A 
HETATM   17  C12 UNL     1      19.301   1.018  50.191  1.00  0.00     0.004 A 
HETATM   18  C13 UNL     1      18.428   0.176  50.834  1.00  0.00     0.019 A 
HETATM   19  C14 UNL     1      18.696  -0.163  52.141  1.00  0.00     0.013 A 
HETATM   20 BR1  UNL     1      17.508  -1.336  53.085  1.00  0.00    -0.051 Br
HETATM   21  C15 UNL     1      19.813   0.343  52.762  1.00  0.00     0.048 A 
ENDBRANCH  13  15
ENDBRANCH  10  13
BRANCH   1  22
HETATM   22  C2  UNL     1      26.705   4.565  49.322  1.00  0.00     0.065 C 
HETATM   23  C1  UNL     1      26.389   5.789  48.922  1.00  0.00     0.017 C 
ENDBRANCH   1  22
TORSDOF 3
ENDMDL
MODEL 8
REMARK VINA RESULT:      -7.5      3.117      4.984
REMARK  3 active torsions:
REMARK  status: ('A' for Active; 'I' for Inactive)
REMARK    1  A    between atoms: C2_2  and  C3_3 
REMARK       I    between atoms: C3_3  and  N1_5 
REMARK    2  A    between atoms: C9_12  and  N3_13 
REMARK    3  A    between atoms: N3_13  and  C10_14 
ROOT
HETATM    1  C3  UNL     1      26.931   0.407  53.612  1.00  0.00     0.250 C 
HETATM    2  O1  UNL     1      27.257   1.154  52.654  1.00  0.00    -0.268 OA
HETATM    3  N1  UNL     1      25.597  -0.004  53.895  1.00  0.00    -0.299 N 
HETATM    4  C4  UNL     1      25.342  -0.852  55.007  1.00  0.00     0.100 A 
HETATM    5  C5  UNL     1      24.116  -1.268  55.321  1.00  0.00     0.031 A 
HETATM    6  C6  UNL     1      23.026  -0.820  54.474  1.00  0.00    -0.007 A 
HETATM    7  C7  UNL     1      21.813  -1.183  54.717  1.00  0.00     0.005 A 
HETATM    8  C8  UNL     1      20.829  -0.766  53.941  1.00  0.00     0.132 A 
HETATM    9  N2  UNL     1      21.042   0.080  52.818  1.00  0.00    -0.241 NA
HETATM   10  C9  UNL     1      22.239   0.474  52.530  1.00  0.00     0.140 A 
HETATM   11  C16 UNL     1      23.354   0.039  53.362  1.00  0.00     0.037 A 
HETATM   12  C17 UNL     1      24.555   0.468  53.028  1.00  0.00     0.115 A 
ENDROOT
BRANCH  10  13
HETATM   13  N3  UNL     1      22.383   1.312  51.403  1.00  0.00    -0.340 N 
HETATM   14  H7  UNL     1      22.736   0.853  50.532  1.00  0.00     0.167 HD
BRANCH  13  15
HETATM   15  C10 UNL     1      22.097   2.695  51.366  1.00  0.00     0.035 A 
HETATM   16  C11 UNL     1      22.879   3.578  52.116  1.00  0.00     0.029 A 
HETATM   17  C12 UNL     1      22.682   4.938  52.153  1.00  0.00     0.004 A 
HETATM   18  C13 UNL     1      21.666   5.506  51.424  1.00  0.00     0.019 A 
HETATM   19  C14 UNL     1      20.868   4.679  50.669  1.00  0.00     0.013 A 
HETATM   20 BR1  UNL     1      19.435   5.422  49.632  1.00  0.00    -0.051 Br
HETATM   21  C15 UNL     1      21.101   3.324  50.661  1.00  0.00     0.048 A 
ENDBRANCH  13  15
ENDBRANCH  10  13
BRANCH   1  22
HETATM   22  C2  UNL     1      28.059  -0.008  54.421  1.00  0.00     0.065 C 
HETATM   23  C1  UNL     1      28.981   0.910  54.168  1.00  0.00     0.017 C 
ENDBRANCH   1  22
TORSDOF 3
ENDMDL
MODEL 9
REMARK VINA RESULT:      -7.4      2.654      3.046
REMARK  3 active torsions:
REMARK  status: ('A' for Active; 'I' for Inactive)
REMARK    1  A    between atoms: C2_2  and  C3_3 
REMARK       I    between atoms: C3_3  and  N1_5 
REMARK    2  A    between atoms: C9_12  and  N3_13 
REMARK    3  A    between atoms: N3_13  and  C10_14 
ROOT
HETATM    1  C3  UNL     1      21.682   0.223  53.905  1.00  0.00     0.250 C 
HETATM    2  O1  UNL     1      20.646   0.872  53.609  1.00  0.00    -0.268 OA
HETATM    3  N1  UNL     1      22.980   0.496  53.386  1.00  0.00    -0.299 N 
HETATM    4  C4  UNL     1      24.084  -0.304  53.791  1.00  0.00     0.100 A 
HETATM    5  C5  UNL     1      25.320  -0.097  53.339  1.00  0.00     0.031 A 
HETATM    6  C6  UNL     1      25.508   0.994  52.400  1.00  0.00    -0.007 A 
HETATM    7  C7  UNL     1      26.677   1.254  51.921  1.00  0.00     0.005 A 
HETATM    8  C8  UNL     1      26.835   2.247  51.065  1.00  0.00     0.132 A 
HETATM    9  N2  UNL     1      25.759   3.072  50.638  1.00  0.00    -0.241 NA
HETATM   10  C9  UNL     1      24.567   2.855  51.087  1.00  0.00     0.140 A 
HETATM   11  C16 UNL     1      24.347   1.766  52.031  1.00  0.00     0.037 A 
HETATM   12  C17 UNL     1      23.114   1.584  52.461  1.00  0.00     0.115 A 
ENDROOT
BRANCH  10  13
HETATM   13  N3  UNL     1      23.543   3.709  50.623  1.00  0.00    -0.340 N 
HETATM   14  H7  UNL     1      23.142   4.369  51.328  1.00  0.00     0.167 HD
BRANCH  13  15
HETATM   15  C10 UNL     1      23.027   3.734  49.309  1.00  0.00     0.035 A 
HETATM   16  C11 UNL     1      22.663   2.534  48.690  1.00  0.00     0.029 A 
HETATM   17  C12 UNL     1      22.157   2.450  47.415  1.00  0.00     0.004 A 
HETATM   18  C13 UNL     1      21.982   3.587  46.666  1.00  0.00     0.019 A 
HETATM   19  C14 UNL     1      22.325   4.794  47.231  1.00  0.00     0.013 A 
HETATM   20 BR1  UNL     1      22.101   6.414  46.228  1.00  0.00    -0.051 Br
HETATM   21  C15 UNL     1      22.828   4.833  48.509  1.00  0.00     0.048 A 
ENDBRANCH  13  15
ENDBRANCH  10  13
BRANCH   1  22
HETATM   22  C2  UNL     1      21.433  -0.851  54.845  1.00  0.00     0.065 C 
HETATM   23  C1  UNL     1      20.692  -1.706  54.153  1.00  0.00     0.017 C 
ENDBRANCH   1  22
TORSDOF 3
ENDMDL
