MODEL 1
REMARK VINA RESULT:      -8.4      0.000      0.000
REMARK  2 active torsions:
REMARK  status: ('A' for Active; 'I' for Inactive)
REMARK    1  A    between atoms: C2_2  and  N2_5 
REMARK    2  A    between atoms: N2_5  and  C4_6 
ROOT
HETATM    1  C1  UNL     1      27.601  -0.449  52.807  1.00  0.00     0.048 C 
HETATM    2  C2  UNL     1      26.847   0.745  53.352  1.00  0.00     0.186 C 
HETATM    3  C3  UNL     1      27.856   1.745  53.752  1.00  0.00     0.084 C 
HETATM    4  N1  UNL     1      28.661   2.532  54.067  1.00  0.00    -0.195 NA
ENDROOT
BRANCH   2   5
HETATM    5  N2  UNL     1      25.982   1.363  52.371  1.00  0.00    -0.357 N 
HETATM    6  H5  UNL     1      26.362   1.822  51.497  1.00  0.00     0.162 HD
BRANCH   5   7
HETATM    7  C4  UNL     1      24.566   1.375  52.550  1.00  0.00     0.124 C 
HETATM    8  C5  UNL     1      24.353   2.223  51.480  1.00  0.00     0.107 C 
HETATM    9  C6  UNL     1      23.132   2.844  50.845  1.00  0.00    -0.035 C 
HETATM   10  C7  UNL     1      22.412   3.817  51.427  1.00  0.00     0.084 C 
HETATM   11  C10 UNL     1      22.820   2.266  49.501  1.00  0.00     0.059 C 
HETATM   12  N3  UNL     1      21.166   3.612  51.456  1.00  0.00    -0.272 NA
HETATM   13  C8  UNL     1      20.089   2.809  51.922  1.00  0.00     0.259 C 
HETATM   14  N4  UNL     1      19.627   1.804  50.948  1.00  0.00    -0.218 NA
HETATM   15  N5  UNL     1      20.815   1.178  50.532  1.00  0.00    -0.310 N 
HETATM   16  H9  UNL     1      19.337   2.395  50.118  1.00  0.00     0.148 HD
HETATM   17  C9  UNL     1      21.809   1.162  49.525  1.00  0.00     0.148 C 
HETATM   18  C11 UNL     1      20.786   0.362  51.669  1.00  0.00     0.063 A 
HETATM   19  C12 UNL     1      21.912  -0.111  52.304  1.00  0.00     0.041 A 
HETATM   20  C16 UNL     1      19.751  -0.073  52.464  1.00  0.00     0.038 A 
HETATM   21  C13 UNL     1      22.257  -0.832  53.430  1.00  0.00    -0.032 A 
HETATM   22  C14 UNL     1      21.127  -1.192  54.111  1.00  0.00     0.011 A 
HETATM   23  C17 UNL     1      23.740  -0.818  53.434  1.00  0.00     0.215 C 
HETATM   24  C15 UNL     1      19.901  -0.806  53.617  1.00  0.00     0.022 A 
HETATM   25  O1  UNL     1      24.133   0.573  53.648  1.00  0.00    -0.334 OA
HETATM   26 BR1  UNL     1      18.038   0.451  51.813  1.00  0.00    -0.049 Br
ENDBRANCH   5   7
ENDBRANCH   2   5
TORSDOF 2
ENDMDL
MODEL 2
REMARK VINA RESULT:      -7.7      2.507      3.958
REMARK  2 active torsions:
REMARK  status: ('A' for Active; 'I' for Inactive)
REMARK    1  A    between atoms: C2_2  and  N2_5 
REMARK    2  A    between atoms: N2_5  and  C4_6 
ROOT
HETATM    1  C1  UNL     1      26.093   5.840  48.968  1.00  0.00     0.048 C 
HETATM    2  C2  UNL     1      25.240   5.518  50.176  1.00  0.00     0.186 C 
HETATM    3  C3  UNL     1      24.575   6.772  50.579  1.00  0.00     0.084 C 
HETATM    4  N1  UNL     1      24.051   7.769  50.892  1.00  0.00    -0.195 NA
ENDROOT
BRANCH   2   5
HETATM    5  N2  UNL     1      24.208   4.544  49.896  1.00  0.00    -0.357 N 
HETATM    6  H5  UNL     1      23.775   4.446  48.937  1.00  0.00     0.162 HD
BRANCH   5   7
HETATM    7  C4  UNL     1      23.733   3.669  50.919  1.00  0.00     0.124 C 
HETATM    8  C5  UNL     1      22.430   3.706  50.461  1.00  0.00     0.107 C 
HETATM    9  C6  UNL     1      21.132   3.074  50.904  1.00  0.00    -0.035 C 
HETATM   10  C7  UNL     1      20.478   3.436  52.020  1.00  0.00     0.084 C 
HETATM   11  C10 UNL     1      20.654   2.013  49.964  1.00  0.00     0.059 C 
HETATM   12  N3  UNL     1      20.141   2.480  52.773  1.00  0.00    -0.272 NA
HETATM   13  C8  UNL     1      20.549   1.398  53.601  1.00  0.00     0.259 C 
HETATM   14  N4  UNL     1      20.527   0.087  52.926  1.00  0.00    -0.218 NA
HETATM   15  N5  UNL     1      21.215   0.323  51.725  1.00  0.00    -0.310 N 
HETATM   16  H9  UNL     1      19.514  -0.012  52.634  1.00  0.00     0.148 HD
HETATM   17  C9  UNL     1      21.052   0.622  50.351  1.00  0.00     0.148 C 
HETATM   18  C11 UNL     1      22.436   0.170  52.390  1.00  0.00     0.063 A 
HETATM   19  C12 UNL     1      23.590   0.836  52.043  1.00  0.00     0.041 A 
HETATM   20  C16 UNL     1      22.786  -0.526  53.524  1.00  0.00     0.038 A 
HETATM   21  C13 UNL     1      24.888   0.990  52.489  1.00  0.00    -0.032 A 
HETATM   22  C14 UNL     1      25.081   0.240  53.616  1.00  0.00     0.011 A 
HETATM   23  C17 UNL     1      25.476   1.991  51.566  1.00  0.00     0.215 C 
HETATM   24  C15 UNL     1      24.029  -0.501  54.109  1.00  0.00     0.022 A 
HETATM   25  O1  UNL     1      24.760   3.240  51.812  1.00  0.00    -0.334 OA
HETATM   26 BR1  UNL     1      21.351  -1.556  54.240  1.00  0.00    -0.049 Br
ENDBRANCH   5   7
ENDBRANCH   2   5
TORSDOF 2
ENDMDL
MODEL 3
REMARK VINA RESULT:      -7.6      2.683      6.029
REMARK  2 active torsions:
REMARK  status: ('A' for Active; 'I' for Inactive)
REMARK    1  A    between atoms: C2_2  and  N2_5 
REMARK    2  A    between atoms: N2_5  and  C4_6 
ROOT
HETATM    1  C1  UNL     1      17.531  -2.993  53.753  1.00  0.00     0.048 C 
HETATM    2  C2  UNL     1      17.834  -1.682  53.060  1.00  0.00     0.186 C 
HETATM    3  C3  UNL     1      16.587  -0.892  53.071  1.00  0.00     0.084 C 
HETATM    4  N1  UNL     1      15.597  -0.272  53.083  1.00  0.00    -0.195 NA
ENDROOT
BRANCH   2   5
HETATM    5  N2  UNL     1      18.851  -0.908  53.737  1.00  0.00    -0.357 N 
HETATM    6  H5  UNL     1      18.752  -0.614  54.748  1.00  0.00     0.162 HD
BRANCH   5   7
HETATM    7  C4  UNL     1      20.038  -0.506  53.054  1.00  0.00     0.124 C 
HETATM    8  C5  UNL     1      19.392   0.483  52.337  1.00  0.00     0.107 C 
HETATM    9  C6  UNL     1      19.821   1.497  51.304  1.00  0.00    -0.035 C 
HETATM   10  C7  UNL     1      20.166   1.170  50.048  1.00  0.00     0.084 C 
HETATM   11  C10 UNL     1      19.813   2.898  51.828  1.00  0.00     0.059 C 
HETATM   12  N3  UNL     1      21.261   1.659  49.652  1.00  0.00    -0.272 NA
HETATM   13  C8  UNL     1      22.673   1.734  49.809  1.00  0.00     0.259 C 
HETATM   14  N4  UNL     1      23.126   2.895  50.596  1.00  0.00    -0.218 NA
HETATM   15  N5  UNL     1      22.314   2.853  51.742  1.00  0.00    -0.310 N 
HETATM   16  H9  UNL     1      22.756   3.717  50.041  1.00  0.00     0.148 HD
HETATM   17  C9  UNL     1      21.139   3.376  52.332  1.00  0.00     0.148 C 
HETATM   18  C11 UNL     1      23.163   1.898  52.312  1.00  0.00     0.063 A 
HETATM   19  C12 UNL     1      22.740   0.909  53.171  1.00  0.00     0.041 A 
HETATM   20  C16 UNL     1      24.498   1.624  52.125  1.00  0.00     0.038 A 
HETATM   21  C13 UNL     1      23.244  -0.194  53.832  1.00  0.00    -0.032 A 
HETATM   22  C14 UNL     1      24.574  -0.333  53.549  1.00  0.00     0.011 A 
HETATM   23  C17 UNL     1      22.063  -0.792  54.501  1.00  0.00     0.215 C 
HETATM   24  C15 UNL     1      25.173   0.575  52.704  1.00  0.00     0.022 A 
HETATM   25  O1  UNL     1      21.186  -1.264  53.432  1.00  0.00    -0.334 OA
HETATM   26 BR1  UNL     1      25.357   2.858  50.954  1.00  0.00    -0.049 Br
ENDBRANCH   5   7
ENDBRANCH   2   5
TORSDOF 2
ENDMDL
MODEL 4
REMARK VINA RESULT:      -7.5      3.157      5.800
REMARK  2 active torsions:
REMARK  status: ('A' for Active; 'I' for Inactive)
REMARK    1  A    between atoms: C2_2  and  N2_5 
REMARK    2  A    between atoms: N2_5  and  C4_6 
ROOT
HETATM    1  C1  UNL     1      19.437  -0.577  53.068  1.00  0.00     0.048 C 
HETATM    2  C2  UNL     1      20.829  -0.113  53.438  1.00  0.00     0.186 C 
HETATM    3  C3  UNL     1      21.400  -1.139  54.332  1.00  0.00     0.084 C 
HETATM    4  N1  UNL     1      21.847  -1.955  55.039  1.00  0.00    -0.195 NA
ENDROOT
BRANCH   2   5
HETATM    5  N2  UNL     1      21.706   0.009  52.294  1.00  0.00    -0.357 N 
HETATM    6  H5  UNL     1      22.170  -0.830  51.849  1.00  0.00     0.162 HD
BRANCH   5   7
HETATM    7  C4  UNL     1      21.980   1.287  51.717  1.00  0.00     0.124 C 
HETATM    8  C5  UNL     1      22.968   1.583  52.637  1.00  0.00     0.107 C 
HETATM    9  C6  UNL     1      23.886   2.760  52.866  1.00  0.00    -0.035 C 
HETATM   10  C7  UNL     1      23.460   3.949  53.325  1.00  0.00     0.084 C 
HETATM   11  C10 UNL     1      25.312   2.457  52.534  1.00  0.00     0.059 C 
HETATM   12  N3  UNL     1      23.845   4.947  52.655  1.00  0.00    -0.272 NA
HETATM   13  C8  UNL     1      23.828   5.644  51.415  1.00  0.00     0.259 C 
HETATM   14  N4  UNL     1      24.998   5.373  50.560  1.00  0.00    -0.218 NA
HETATM   15  N5  UNL     1      25.083   3.970  50.553  1.00  0.00    -0.310 N 
HETATM   16  H9  UNL     1      25.810   5.682  51.165  1.00  0.00     0.148 HD
HETATM   17  C9  UNL     1      25.723   2.859  51.152  1.00  0.00     0.148 C 
HETATM   18  C11 UNL     1      24.105   3.913  49.554  1.00  0.00     0.063 A 
HETATM   19  C12 UNL     1      23.202   2.882  49.421  1.00  0.00     0.041 A 
HETATM   20  C16 UNL     1      23.725   4.812  48.585  1.00  0.00     0.038 A 
HETATM   21  C13 UNL     1      22.107   2.539  48.653  1.00  0.00    -0.032 A 
HETATM   22  C14 UNL     1      21.856   3.526  47.740  1.00  0.00     0.011 A 
HETATM   23  C17 UNL     1      21.636   1.260  49.236  1.00  0.00     0.215 C 
HETATM   24  C15 UNL     1      22.667   4.639  47.724  1.00  0.00     0.022 A 
HETATM   25  O1  UNL     1      21.165   1.576  50.583  1.00  0.00    -0.334 OA
HETATM   26 BR1  UNL     1      24.822   6.370  48.541  1.00  0.00    -0.049 Br
ENDBRANCH   5   7
ENDBRANCH   2   5
TORSDOF 2
ENDMDL
MODEL 5
REMARK VINA RESULT:      -7.4      2.705      5.887
REMARK  2 active torsions:
REMARK  status: ('A' for Active; 'I' for Inactive)
REMARK    1  A    between atoms: C2_2  and  N2_5 
REMARK    2  A    between atoms: N2_5  and  C4_6 
ROOT
HETATM    1  C1  UNL     1      18.904   5.438  49.345  1.00  0.00     0.048 C 
HETATM    2  C2  UNL     1      19.603   4.494  50.299  1.00  0.00     0.186 C 
HETATM    3  C3  UNL     1      18.575   3.982  51.226  1.00  0.00     0.084 C 
HETATM    4  N1  UNL     1      17.757   3.580  51.957  1.00  0.00    -0.195 NA
ENDROOT
BRANCH   2   5
HETATM    5  N2  UNL     1      20.198   3.356  49.632  1.00  0.00    -0.357 N 
HETATM    6  H5  UNL     1      19.812   2.971  48.727  1.00  0.00     0.162 HD
BRANCH   5   7
HETATM    7  C4  UNL     1      21.344   2.706  50.181  1.00  0.00     0.124 C 
HETATM    8  C5  UNL     1      22.114   3.853  50.150  1.00  0.00     0.107 C 
HETATM    9  C6  UNL     1      23.534   4.189  50.541  1.00  0.00    -0.035 C 
HETATM   10  C7  UNL     1      24.608   3.758  49.859  1.00  0.00     0.084 C 
HETATM   11  C10 UNL     1      23.611   5.054  51.758  1.00  0.00     0.059 C 
HETATM   12  N3  UNL     1      25.509   3.224  50.566  1.00  0.00    -0.272 NA
HETATM   13  C8  UNL     1      25.885   2.167  51.438  1.00  0.00     0.259 C 
HETATM   14  N4  UNL     1      25.803   2.513  52.869  1.00  0.00    -0.218 NA
HETATM   15  N5  UNL     1      24.524   3.080  52.997  1.00  0.00    -0.310 N 
HETATM   16  H9  UNL     1      26.465   3.335  52.951  1.00  0.00     0.148 HD
HETATM   17  C9  UNL     1      23.813   4.303  53.037  1.00  0.00     0.148 C 
HETATM   18  C11 UNL     1      23.962   1.802  53.083  1.00  0.00     0.063 A 
HETATM   19  C12 UNL     1      22.704   1.483  52.624  1.00  0.00     0.041 A 
HETATM   20  C16 UNL     1      24.476   0.596  53.502  1.00  0.00     0.038 A 
HETATM   21  C13 UNL     1      21.891   0.377  52.474  1.00  0.00    -0.032 A 
HETATM   22  C14 UNL     1      22.537  -0.737  52.934  1.00  0.00     0.011 A 
HETATM   23  C17 UNL     1      20.685   0.900  51.787  1.00  0.00     0.215 C 
HETATM   24  C15 UNL     1      23.812  -0.605  53.437  1.00  0.00     0.022 A 
HETATM   25  O1  UNL     1      21.125   1.324  50.460  1.00  0.00    -0.334 OA
HETATM   26 BR1  UNL     1      26.245   0.740  54.197  1.00  0.00    -0.049 Br
ENDBRANCH   5   7
ENDBRANCH   2   5
TORSDOF 2
ENDMDL
MODEL 6
REMARK VINA RESULT:      -7.4      2.777      6.104
REMARK  2 active torsions:
REMARK  status: ('A' for Active; 'I' for Inactive)
REMARK    1  A    between atoms: C2_2  and  N2_5 
REMARK    2  A    between atoms: N2_5  and  C4_6 
ROOT
HETATM    1  C1  UNL     1      17.639   1.961  49.965  1.00  0.00     0.048 C 
HETATM    2  C2  UNL     1      18.310   2.885  50.958  1.00  0.00     0.186 C 
HETATM    3  C3  UNL     1      17.236   3.607  51.667  1.00  0.00     0.084 C 
HETATM    4  N1  UNL     1      16.381   4.176  52.224  1.00  0.00    -0.195 NA
ENDROOT
BRANCH   2   5
HETATM    5  N2  UNL     1      19.091   2.177  51.949  1.00  0.00    -0.357 N 
HETATM    6  H5  UNL     1      18.661   1.801  52.839  1.00  0.00     0.162 HD
BRANCH   5   7
HETATM    7  C4  UNL     1      20.489   1.959  51.757  1.00  0.00     0.124 C 
HETATM    8  C5  UNL     1      20.718   3.255  51.337  1.00  0.00     0.107 C 
HETATM    9  C6  UNL     1      21.938   4.025  50.888  1.00  0.00    -0.035 C 
HETATM   10  C7  UNL     1      22.556   3.808  49.715  1.00  0.00     0.084 C 
HETATM   11  C10 UNL     1      22.373   5.053  51.883  1.00  0.00     0.059 C 
HETATM   12  N3  UNL     1      23.808   3.658  49.794  1.00  0.00    -0.272 NA
HETATM   13  C8  UNL     1      24.899   2.891  50.285  1.00  0.00     0.259 C 
HETATM   14  N4  UNL     1      25.486   3.415  51.532  1.00  0.00    -0.218 NA
HETATM   15  N5  UNL     1      24.370   3.620  52.360  1.00  0.00    -0.310 N 
HETATM   16  H9  UNL     1      25.793   4.390  51.257  1.00  0.00     0.148 HD
HETATM   17  C9  UNL     1      23.447   4.591  52.818  1.00  0.00     0.148 C 
HETATM   18  C11 UNL     1      24.374   2.265  52.708  1.00  0.00     0.063 A 
HETATM   19  C12 UNL     1      23.240   1.546  53.011  1.00  0.00     0.041 A 
HETATM   20  C16 UNL     1      25.380   1.326  52.742  1.00  0.00     0.038 A 
HETATM   21  C13 UNL     1      22.867   0.249  53.305  1.00  0.00    -0.032 A 
HETATM   22  C14 UNL     1      23.970  -0.560  53.303  1.00  0.00     0.011 A 
HETATM   23  C17 UNL     1      21.389   0.308  53.412  1.00  0.00     0.215 C 
HETATM   24  C15 UNL     1      25.200  -0.007  53.022  1.00  0.00     0.022 A 
HETATM   25  O1  UNL     1      20.898   0.629  52.074  1.00  0.00    -0.334 OA
HETATM   26 BR1  UNL     1      27.096   2.056  52.349  1.00  0.00    -0.049 Br
ENDBRANCH   5   7
ENDBRANCH   2   5
TORSDOF 2
ENDMDL
MODEL 7
REMARK VINA RESULT:      -7.1      1.829      3.786
REMARK  2 active torsions:
REMARK  status: ('A' for Active; 'I' for Inactive)
REMARK    1  A    between atoms: C2_2  and  N2_5 
REMARK    2  A    between atoms: N2_5  and  C4_6 
ROOT
HETATM    1  C1  UNL     1      26.661   1.432  51.632  1.00  0.00     0.048 C 
HETATM    2  C2  UNL     1      26.468   1.568  53.127  1.00  0.00     0.186 C 
HETATM    3  C3  UNL     1      27.724   2.116  53.674  1.00  0.00     0.084 C 
HETATM    4  N1  UNL     1      28.722   2.550  54.101  1.00  0.00    -0.195 NA
ENDROOT
BRANCH   2   5
HETATM    5  N2  UNL     1      25.402   2.480  53.478  1.00  0.00    -0.357 N 
HETATM    6  H5  UNL     1      25.444   3.088  54.342  1.00  0.00     0.162 HD
BRANCH   5   7
HETATM    7  C4  UNL     1      24.237   2.592  52.659  1.00  0.00     0.124 C 
HETATM    8  C5  UNL     1      23.757   1.349  53.027  1.00  0.00     0.107 C 
HETATM    9  C6  UNL     1      22.534   0.538  52.673  1.00  0.00    -0.035 C 
HETATM   10  C7  UNL     1      22.349  -0.032  51.471  1.00  0.00     0.084 C 
HETATM   11  C10 UNL     1      21.561   0.432  53.804  1.00  0.00     0.059 C 
HETATM   12  N3  UNL     1      21.226   0.198  50.940  1.00  0.00    -0.272 NA
HETATM   13  C8  UNL     1      20.320   1.155  50.405  1.00  0.00     0.259 C 
HETATM   14  N4  UNL     1      19.290   1.602  51.360  1.00  0.00    -0.218 NA
HETATM   15  N5  UNL     1      20.028   1.930  52.511  1.00  0.00    -0.310 N 
HETATM   16  H9  UNL     1      18.794   0.701  51.613  1.00  0.00     0.148 HD
HETATM   17  C9  UNL     1      20.462   1.447  53.769  1.00  0.00     0.148 C 
HETATM   18  C11 UNL     1      20.331   3.181  51.964  1.00  0.00     0.063 A 
HETATM   19  C12 UNL     1      21.501   3.864  52.210  1.00  0.00     0.041 A 
HETATM   20  C16 UNL     1      19.679   3.965  51.040  1.00  0.00     0.038 A 
HETATM   21  C13 UNL     1      22.147   5.017  51.810  1.00  0.00    -0.032 A 
HETATM   22  C14 UNL     1      21.377   5.684  50.897  1.00  0.00     0.011 A 
HETATM   23  C17 UNL     1      23.454   4.966  52.508  1.00  0.00     0.215 C 
HETATM   24  C15 UNL     1      20.163   5.147  50.531  1.00  0.00     0.022 A 
HETATM   25  O1  UNL     1      24.171   3.825  51.944  1.00  0.00    -0.334 OA
HETATM   26 BR1  UNL     1      17.997   3.246  50.504  1.00  0.00    -0.049 Br
ENDBRANCH   5   7
ENDBRANCH   2   5
TORSDOF 2
ENDMDL
MODEL 8
REMARK VINA RESULT:      -7.0      2.932      3.852
REMARK  2 active torsions:
REMARK  status: ('A' for Active; 'I' for Inactive)
REMARK    1  A    between atoms: C2_2  and  N2_5 
REMARK    2  A    between atoms: N2_5  and  C4_6 
ROOT
HETATM    1  C1  UNL     1      25.638   6.990  50.231  1.00  0.00     0.048 C 
HETATM    2  C2  UNL     1      25.806   6.004  49.095  1.00  0.00     0.186 C 
HETATM    3  C3  UNL     1      27.148   6.232  48.524  1.00  0.00     0.084 C 
HETATM    4  N1  UNL     1      28.211   6.417  48.076  1.00  0.00    -0.195 NA
ENDROOT
BRANCH   2   5
HETATM    5  N2  UNL     1      25.741   4.626  49.529  1.00  0.00    -0.357 N 
HETATM    6  H5  UNL     1      26.569   3.973  49.449  1.00  0.00     0.162 HD
BRANCH   5   7
HETATM    7  C4  UNL     1      24.540   4.092  50.087  1.00  0.00     0.124 C 
HETATM    8  C5  UNL     1      23.815   4.286  48.927  1.00  0.00     0.107 C 
HETATM    9  C6  UNL     1      22.387   4.025  48.513  1.00  0.00    -0.035 C 
HETATM   10  C7  UNL     1      21.343   4.731  48.978  1.00  0.00     0.084 C 
HETATM   11  C10 UNL     1      22.264   2.906  47.528  1.00  0.00     0.059 C 
HETATM   12  N3  UNL     1      20.381   4.036  49.412  1.00  0.00    -0.272 NA
HETATM   13  C8  UNL     1      19.914   3.091  50.366  1.00  0.00     0.259 C 
HETATM   14  N4  UNL     1      19.918   1.699  49.880  1.00  0.00    -0.218 NA
HETATM   15  N5  UNL     1      21.206   1.542  49.341  1.00  0.00    -0.310 N 
HETATM   16  H9  UNL     1      19.281   1.741  49.035  1.00  0.00     0.148 HD
HETATM   17  C9  UNL     1      21.956   1.576  48.141  1.00  0.00     0.148 C 
HETATM   18  C11 UNL     1      21.715   1.295  50.620  1.00  0.00     0.063 A 
HETATM   19  C12 UNL     1      22.988   1.636  51.020  1.00  0.00     0.041 A 
HETATM   20  C16 UNL     1      21.133   0.795  51.762  1.00  0.00     0.038 A 
HETATM   21  C13 UNL     1      23.769   1.624  52.158  1.00  0.00    -0.032 A 
HETATM   22  C14 UNL     1      23.056   1.100  53.201  1.00  0.00     0.011 A 
HETATM   23  C17 UNL     1      25.033   2.277  51.742  1.00  0.00     0.215 C 
HETATM   24  C15 UNL     1      21.757   0.698  52.983  1.00  0.00     0.022 A 
HETATM   25  O1  UNL     1      24.693   3.666  51.441  1.00  0.00    -0.334 OA
HETATM   26 BR1  UNL     1      19.331   0.235  51.499  1.00  0.00    -0.049 Br
ENDBRANCH   5   7
ENDBRANCH   2   5
TORSDOF 2
ENDMDL
MODEL 9
REMARK VINA RESULT:      -6.9      8.504     10.039
REMARK  2 active torsions:
REMARK  status: ('A' for Active; 'I' for Inactive)
REMARK    1  A    between atoms: C2_2  and  N2_5 
REMARK    2  A    between atoms: N2_5  and  C4_6 
ROOT
HETATM    1  C1  UNL     1      33.402   9.165  46.220  1.00  0.00     0.048 C 
HETATM    2  C2  UNL     1      32.187   8.302  46.481  1.00  0.00     0.186 C 
HETATM    3  C3  UNL     1      32.459   6.983  45.878  1.00  0.00     0.084 C 
HETATM    4  N1  UNL     1      32.681   5.941  45.398  1.00  0.00    -0.195 NA
ENDROOT
BRANCH   2   5
HETATM    5  N2  UNL     1      31.933   8.096  47.891  1.00  0.00    -0.357 N 
HETATM    6  H5  UNL     1      32.712   8.086  48.606  1.00  0.00     0.162 HD
BRANCH   5   7
HETATM    7  C4  UNL     1      30.604   7.896  48.371  1.00  0.00     0.124 C 
HETATM    8  C5  UNL     1      30.213   9.187  48.076  1.00  0.00     0.107 C 
HETATM    9  C6  UNL     1      28.929   9.968  48.226  1.00  0.00    -0.035 C 
HETATM   10  C7  UNL     1      28.443  10.367  49.413  1.00  0.00     0.084 C 
HETATM   11  C10 UNL     1      28.267  10.253  46.916  1.00  0.00     0.059 C 
HETATM   12  N3  UNL     1      27.227  10.090  49.611  1.00  0.00    -0.272 NA
HETATM   13  C8  UNL     1      26.230   9.088  49.763  1.00  0.00     0.259 C 
HETATM   14  N4  UNL     1      25.476   8.802  48.529  1.00  0.00    -0.218 NA
HETATM   15  N5  UNL     1      26.480   8.623  47.563  1.00  0.00    -0.310 N 
HETATM   16  H9  UNL     1      25.046   9.740  48.292  1.00  0.00     0.148 HD
HETATM   17  C9  UNL     1      27.207   9.268  46.534  1.00  0.00     0.148 C 
HETATM   18  C11 UNL     1      26.656   7.301  47.986  1.00  0.00     0.063 A 
HETATM   19  C12 UNL     1      27.859   6.633  47.943  1.00  0.00     0.041 A 
HETATM   20  C16 UNL     1      25.805   6.409  48.599  1.00  0.00     0.038 A 
HETATM   21  C13 UNL     1      28.401   5.421  48.323  1.00  0.00    -0.032 A 
HETATM   22  C14 UNL     1      27.438   4.650  48.913  1.00  0.00     0.011 A 
HETATM   23  C17 UNL     1      29.840   5.541  47.986  1.00  0.00     0.215 C 
HETATM   24  C15 UNL     1      26.164   5.157  49.039  1.00  0.00     0.022 A 
HETATM   25  O1  UNL     1      30.379   6.576  48.865  1.00  0.00    -0.334 OA
HETATM   26 BR1  UNL     1      24.033   7.083  48.797  1.00  0.00    -0.049 Br
ENDBRANCH   5   7
ENDBRANCH   2   5
TORSDOF 2
ENDMDL
