MODEL 1
REMARK VINA RESULT:      -7.9      0.000      0.000
REMARK  1 active torsions:
REMARK  status: ('A' for Active; 'I' for Inactive)
REMARK    1  A    between atoms: N1_3  and  C2_4 
ROOT
HETATM    1  O1  UNL     1      30.051  -0.477  53.464  1.00  0.00    -0.260 OA
HETATM    2  C1  UNL     1      28.899  -0.878  53.476  1.00  0.00     0.337 C 
HETATM    3  N1  UNL     1      27.778  -1.437  53.343  1.00  0.00    -0.206 NA
ENDROOT
BRANCH   3   4
HETATM    4  C2  UNL     1      26.637  -0.605  53.098  1.00  0.00     0.061 A 
HETATM    5  C3  UNL     1      26.895   0.543  52.382  1.00  0.00     0.032 A 
HETATM    6  C4  UNL     1      25.767   1.340  52.154  1.00  0.00     0.016 A 
HETATM    7  C5  UNL     1      24.476   1.030  52.596  1.00  0.00    -0.011 A 
HETATM    8  C6  UNL     1      24.269  -0.108  53.296  1.00  0.00    -0.025 A 
HETATM    9  C15 UNL     1      23.559   2.080  52.167  1.00  0.00     0.122 C 
HETATM   10  C7  UNL     1      25.359  -0.892  53.525  1.00  0.00     0.041 A 
HETATM   11  C8  UNL     1      23.035  -0.642  53.869  1.00  0.00     0.187 C 
HETATM   12  N2  UNL     1      21.868  -0.202  53.173  1.00  0.00    -0.301 NA
HETATM   13  C9  UNL     1      20.693  -0.501  53.647  1.00  0.00     0.088 C 
HETATM   14  C10 UNL     1      19.384  -0.135  53.069  1.00  0.00     0.092 C 
HETATM   15  C11 UNL     1      19.485   0.033  51.592  1.00  0.00     0.089 C 
HETATM   16  N3  UNL     1      20.411   0.906  51.433  1.00  0.00    -0.289 NA
HETATM   17  C12 UNL     1      20.818   1.348  50.167  1.00  0.00     0.111 A 
HETATM   18  C13 UNL     1      21.571   1.728  49.130  1.00  0.00     0.057 A 
HETATM   19  C14 UNL     1      22.293   1.357  50.314  1.00  0.00     0.148 A 
HETATM   20  N4  UNL     1      22.653   2.333  51.288  1.00  0.00    -0.292 NA
ENDBRANCH   3   4
TORSDOF 1
ENDMDL
MODEL 2
REMARK VINA RESULT:      -7.8      2.388      4.397
REMARK  1 active torsions:
REMARK  status: ('A' for Active; 'I' for Inactive)
REMARK    1  A    between atoms: N1_3  and  C2_4 
ROOT
HETATM    1  O1  UNL     1      30.174  -0.591  53.830  1.00  0.00    -0.260 OA
HETATM    2  C1  UNL     1      28.997  -0.465  54.128  1.00  0.00     0.337 C 
HETATM    3  N1  UNL     1      27.788  -0.548  54.469  1.00  0.00    -0.206 NA
ENDROOT
BRANCH   3   4
HETATM    4  C2  UNL     1      26.806   0.059  53.620  1.00  0.00     0.061 A 
HETATM    5  C3  UNL     1      25.511  -0.354  53.841  1.00  0.00     0.032 A 
HETATM    6  C4  UNL     1      24.567   0.251  53.001  1.00  0.00     0.016 A 
HETATM    7  C5  UNL     1      24.875   1.196  52.016  1.00  0.00    -0.011 A 
HETATM    8  C6  UNL     1      26.162   1.572  51.835  1.00  0.00    -0.025 A 
HETATM    9  C15 UNL     1      23.645   1.611  51.351  1.00  0.00     0.122 C 
HETATM   10  C7  UNL     1      27.088   0.990  52.645  1.00  0.00     0.041 A 
HETATM   11  C8  UNL     1      26.733   2.519  50.879  1.00  0.00     0.187 C 
HETATM   12  N2  UNL     1      25.802   3.523  50.473  1.00  0.00    -0.301 NA
HETATM   13  C9  UNL     1      26.137   4.360  49.534  1.00  0.00     0.088 C 
HETATM   14  C10 UNL     1      25.312   5.456  48.988  1.00  0.00     0.092 C 
HETATM   15  C11 UNL     1      24.344   5.949  50.007  1.00  0.00     0.089 C 
HETATM   16  N3  UNL     1      23.690   4.903  50.359  1.00  0.00    -0.289 NA
HETATM   17  C12 UNL     1      22.669   4.941  51.317  1.00  0.00     0.111 A 
HETATM   18  C13 UNL     1      21.881   4.640  52.354  1.00  0.00     0.057 A 
HETATM   19  C14 UNL     1      22.970   3.734  52.121  1.00  0.00     0.148 A 
HETATM   20  N4  UNL     1      22.799   2.580  51.303  1.00  0.00    -0.292 NA
ENDBRANCH   3   4
TORSDOF 1
ENDMDL
MODEL 3
REMARK VINA RESULT:      -7.4      3.440      6.293
REMARK  1 active torsions:
REMARK  status: ('A' for Active; 'I' for Inactive)
REMARK    1  A    between atoms: N1_3  and  C2_4 
ROOT
HETATM    1  O1  UNL     1      17.365  -3.732  53.463  1.00  0.00    -0.260 OA
HETATM    2  C1  UNL     1      17.732  -2.578  53.611  1.00  0.00     0.337 C 
HETATM    3  N1  UNL     1      17.914  -1.334  53.692  1.00  0.00    -0.206 NA
ENDROOT
BRANCH   3   4
HETATM    4  C2  UNL     1      19.095  -0.786  53.095  1.00  0.00     0.061 A 
HETATM    5  C3  UNL     1      18.875   0.009  51.992  1.00  0.00     0.032 A 
HETATM    6  C4  UNL     1      20.042   0.536  51.425  1.00  0.00     0.016 A 
HETATM    7  C5  UNL     1      21.334   0.298  51.907  1.00  0.00    -0.011 A 
HETATM    8  C6  UNL     1      21.502  -0.490  52.993  1.00  0.00    -0.025 A 
HETATM    9  C15 UNL     1      22.294   1.014  51.074  1.00  0.00     0.122 C 
HETATM   10  C7  UNL     1      20.375  -1.007  53.554  1.00  0.00     0.041 A 
HETATM   11  C8  UNL     1      22.732  -0.892  53.674  1.00  0.00     0.187 C 
HETATM   12  N2  UNL     1      23.790   0.051  53.506  1.00  0.00    -0.301 NA
HETATM   13  C9  UNL     1      24.977  -0.236  53.956  1.00  0.00     0.088 C 
HETATM   14  C10 UNL     1      26.185   0.610  53.875  1.00  0.00     0.092 C 
HETATM   15  C11 UNL     1      25.820   2.053  53.832  1.00  0.00     0.089 C 
HETATM   16  N3  UNL     1      25.022   2.151  52.833  1.00  0.00    -0.289 NA
HETATM   17  C12 UNL     1      24.443   3.367  52.448  1.00  0.00     0.111 A 
HETATM   18  C13 UNL     1      23.564   4.291  52.045  1.00  0.00     0.057 A 
HETATM   19  C14 UNL     1      23.045   2.959  52.174  1.00  0.00     0.148 A 
HETATM   20  N4  UNL     1      23.035   2.066  51.063  1.00  0.00    -0.292 NA
ENDBRANCH   3   4
TORSDOF 1
ENDMDL
MODEL 4
REMARK VINA RESULT:      -7.3      3.456      6.554
REMARK  1 active torsions:
REMARK  status: ('A' for Active; 'I' for Inactive)
REMARK    1  A    between atoms: N1_3  and  C2_4 
ROOT
HETATM    1  O1  UNL     1      17.489   0.409  51.663  1.00  0.00    -0.260 OA
HETATM    2  C1  UNL     1      18.199  -0.311  52.347  1.00  0.00     0.337 C 
HETATM    3  N1  UNL     1      18.780  -1.029  53.203  1.00  0.00    -0.206 NA
ENDROOT
BRANCH   3   4
HETATM    4  C2  UNL     1      20.161  -0.764  53.479  1.00  0.00     0.061 A 
HETATM    5  C3  UNL     1      20.772  -1.672  54.316  1.00  0.00     0.032 A 
HETATM    6  C4  UNL     1      22.120  -1.395  54.572  1.00  0.00     0.016 A 
HETATM    7  C5  UNL     1      22.819  -0.305  54.042  1.00  0.00    -0.011 A 
HETATM    8  C6  UNL     1      22.178   0.562  53.225  1.00  0.00    -0.025 A 
HETATM    9  C15 UNL     1      24.198  -0.345  54.516  1.00  0.00     0.122 C 
HETATM   10  C7  UNL     1      20.866   0.303  52.969  1.00  0.00     0.041 A 
HETATM   11  C8  UNL     1      22.677   1.765  52.563  1.00  0.00     0.187 C 
HETATM   12  N2  UNL     1      24.085   1.723  52.328  1.00  0.00    -0.301 NA
HETATM   13  C9  UNL     1      24.684   2.778  51.855  1.00  0.00     0.088 C 
HETATM   14  C10 UNL     1      26.122   2.919  51.550  1.00  0.00     0.092 C 
HETATM   15  C11 UNL     1      26.723   1.600  51.206  1.00  0.00     0.089 C 
HETATM   16  N3  UNL     1      26.453   0.853  52.213  1.00  0.00    -0.289 NA
HETATM   17  C12 UNL     1      26.850  -0.488  52.283  1.00  0.00     0.111 A 
HETATM   18  C13 UNL     1      26.852  -1.809  52.490  1.00  0.00     0.057 A 
HETATM   19  C14 UNL     1      25.628  -1.134  52.817  1.00  0.00     0.148 A 
HETATM   20  N4  UNL     1      25.389  -0.649  54.135  1.00  0.00    -0.292 NA
ENDBRANCH   3   4
TORSDOF 1
ENDMDL
MODEL 5
REMARK VINA RESULT:      -7.2      3.237      4.423
REMARK  1 active torsions:
REMARK  status: ('A' for Active; 'I' for Inactive)
REMARK    1  A    between atoms: N1_3  and  C2_4 
ROOT
HETATM    1  O1  UNL     1      27.986   6.432  48.155  1.00  0.00    -0.260 OA
HETATM    2  C1  UNL     1      27.756   5.325  48.616  1.00  0.00     0.337 C 
HETATM    3  N1  UNL     1      27.535   4.116  48.888  1.00  0.00    -0.206 NA
ENDROOT
BRANCH   3   4
HETATM    4  C2  UNL     1      26.390   3.804  49.692  1.00  0.00     0.061 A 
HETATM    5  C3  UNL     1      25.261   4.540  49.407  1.00  0.00     0.032 A 
HETATM    6  C4  UNL     1      24.155   4.220  50.203  1.00  0.00     0.016 A 
HETATM    7  C5  UNL     1      24.157   3.245  51.207  1.00  0.00    -0.011 A 
HETATM    8  C6  UNL     1      25.289   2.547  51.453  1.00  0.00    -0.025 A 
HETATM    9  C15 UNL     1      22.832   3.182  51.815  1.00  0.00     0.122 C 
HETATM   10  C7  UNL     1      26.373   2.849  50.685  1.00  0.00     0.041 A 
HETATM   11  C8  UNL     1      25.546   1.500  52.440  1.00  0.00     0.187 C 
HETATM   12  N2  UNL     1      24.366   0.784  52.806  1.00  0.00    -0.301 NA
HETATM   13  C9  UNL     1      24.426  -0.094  53.764  1.00  0.00     0.088 C 
HETATM   14  C10 UNL     1      23.317  -0.925  54.276  1.00  0.00     0.092 C 
HETATM   15  C11 UNL     1      22.299  -1.163  53.214  1.00  0.00     0.089 C 
HETATM   16  N3  UNL     1      21.962   0.012  52.826  1.00  0.00    -0.289 NA
HETATM   17  C12 UNL     1      21.011   0.227  51.820  1.00  0.00     0.111 A 
HETATM   18  C13 UNL     1      20.378   0.706  50.744  1.00  0.00     0.057 A 
HETATM   19  C14 UNL     1      21.656   1.298  51.024  1.00  0.00     0.148 A 
HETATM   20  N4  UNL     1      21.760   2.471  51.827  1.00  0.00    -0.292 NA
ENDBRANCH   3   4
TORSDOF 1
ENDMDL
MODEL 6
REMARK VINA RESULT:      -7.2      1.567      2.053
REMARK  1 active torsions:
REMARK  status: ('A' for Active; 'I' for Inactive)
REMARK    1  A    between atoms: N1_3  and  C2_4 
ROOT
HETATM    1  O1  UNL     1      27.795   0.067  54.916  1.00  0.00    -0.260 OA
HETATM    2  C1  UNL     1      26.699  -0.409  54.668  1.00  0.00     0.337 C 
HETATM    3  N1  UNL     1      25.676  -1.035  54.283  1.00  0.00    -0.206 NA
ENDROOT
BRANCH   3   4
HETATM    4  C2  UNL     1      24.559  -0.273  53.810  1.00  0.00     0.061 A 
HETATM    5  C3  UNL     1      24.882   0.931  53.224  1.00  0.00     0.032 A 
HETATM    6  C4  UNL     1      23.776   1.659  52.767  1.00  0.00     0.016 A 
HETATM    7  C5  UNL     1      22.448   1.234  52.878  1.00  0.00    -0.011 A 
HETATM    8  C6  UNL     1      22.178   0.044  53.462  1.00  0.00    -0.025 A 
HETATM    9  C15 UNL     1      21.573   2.240  52.287  1.00  0.00     0.122 C 
HETATM   10  C7  UNL     1      23.245  -0.674  53.910  1.00  0.00     0.041 A 
HETATM   11  C8  UNL     1      20.892  -0.608  53.703  1.00  0.00     0.187 C 
HETATM   12  N2  UNL     1      19.887  -0.210  52.770  1.00  0.00    -0.301 NA
HETATM   13  C9  UNL     1      18.663  -0.619  52.939  1.00  0.00     0.088 C 
HETATM   14  C10 UNL     1      17.499  -0.312  52.083  1.00  0.00     0.092 C 
HETATM   15  C11 UNL     1      17.927  -0.050  50.681  1.00  0.00     0.089 C 
HETATM   16  N3  UNL     1      18.790   0.894  50.781  1.00  0.00    -0.289 NA
HETATM   17  C12 UNL     1      19.443   1.438  49.667  1.00  0.00     0.111 A 
HETATM   18  C13 UNL     1      20.383   1.931  48.854  1.00  0.00     0.057 A 
HETATM   19  C14 UNL     1      20.837   1.541  50.160  1.00  0.00     0.148 A 
HETATM   20  N4  UNL     1      20.879   2.481  51.231  1.00  0.00    -0.292 NA
ENDBRANCH   3   4
TORSDOF 1
ENDMDL
MODEL 7
REMARK VINA RESULT:      -6.8      3.368      5.776
REMARK  1 active torsions:
REMARK  status: ('A' for Active; 'I' for Inactive)
REMARK    1  A    between atoms: N1_3  and  C2_4 
ROOT
HETATM    1  O1  UNL     1      23.730   8.106  50.829  1.00  0.00    -0.260 OA
HETATM    2  C1  UNL     1      23.038   7.106  50.935  1.00  0.00     0.337 C 
HETATM    3  N1  UNL     1      22.230   6.179  51.205  1.00  0.00    -0.206 NA
ENDROOT
BRANCH   3   4
HETATM    4  C2  UNL     1      22.754   4.857  51.376  1.00  0.00     0.061 A 
HETATM    5  C3  UNL     1      24.049   4.683  50.941  1.00  0.00     0.032 A 
HETATM    6  C4  UNL     1      24.542   3.385  51.118  1.00  0.00     0.016 A 
HETATM    7  C5  UNL     1      23.815   2.332  51.684  1.00  0.00    -0.011 A 
HETATM    8  C6  UNL     1      22.546   2.548  52.097  1.00  0.00    -0.025 A 
HETATM    9  C15 UNL     1      24.651   1.136  51.715  1.00  0.00     0.122 C 
HETATM   10  C7  UNL     1      22.055   3.807  51.931  1.00  0.00     0.041 A 
HETATM   11  C8  UNL     1      21.589   1.623  52.702  1.00  0.00     0.187 C 
HETATM   12  N2  UNL     1      22.223   0.553  53.403  1.00  0.00    -0.301 NA
HETATM   13  C9  UNL     1      21.495  -0.412  53.887  1.00  0.00     0.088 C 
HETATM   14  C10 UNL     1      21.971  -1.592  54.636  1.00  0.00     0.092 C 
HETATM   15  C11 UNL     1      23.240  -1.287  55.356  1.00  0.00     0.089 C 
HETATM   16  N3  UNL     1      24.035  -0.870  54.439  1.00  0.00    -0.289 NA
HETATM   17  C12 UNL     1      25.351  -0.474  54.709  1.00  0.00     0.111 A 
HETATM   18  C13 UNL     1      26.504   0.203  54.714  1.00  0.00     0.057 A 
HETATM   19  C14 UNL     1      25.464   0.760  53.896  1.00  0.00     0.148 A 
HETATM   20  N4  UNL     1      25.353   0.415  52.517  1.00  0.00    -0.292 NA
ENDBRANCH   3   4
TORSDOF 1
ENDMDL
MODEL 8
REMARK VINA RESULT:      -6.8      3.880      6.693
REMARK  1 active torsions:
REMARK  status: ('A' for Active; 'I' for Inactive)
REMARK    1  A    between atoms: N1_3  and  C2_4 
ROOT
HETATM    1  O1  UNL     1      20.048   6.166  49.922  1.00  0.00    -0.260 OA
HETATM    2  C1  UNL     1      21.139   6.238  50.464  1.00  0.00     0.337 C 
HETATM    3  N1  UNL     1      22.299   6.481  50.893  1.00  0.00    -0.206 NA
ENDROOT
BRANCH   3   4
HETATM    4  C2  UNL     1      23.228   5.393  50.972  1.00  0.00     0.061 A 
HETATM    5  C3  UNL     1      24.428   5.604  50.329  1.00  0.00     0.032 A 
HETATM    6  C4  UNL     1      25.321   4.530  50.419  1.00  0.00     0.016 A 
HETATM    7  C5  UNL     1      25.056   3.333  51.094  1.00  0.00    -0.011 A 
HETATM    8  C6  UNL     1      23.863   3.170  51.711  1.00  0.00    -0.025 A 
HETATM    9  C15 UNL     1      26.215   2.455  50.984  1.00  0.00     0.122 C 
HETATM   10  C7  UNL     1      22.985   4.208  51.630  1.00  0.00     0.041 A 
HETATM   11  C8  UNL     1      23.349   2.026  52.462  1.00  0.00     0.187 C 
HETATM   12  N2  UNL     1      24.386   1.237  53.046  1.00  0.00    -0.301 NA
HETATM   13  C9  UNL     1      24.079   0.121  53.641  1.00  0.00     0.088 C 
HETATM   14  C10 UNL     1      25.009  -0.819  54.298  1.00  0.00     0.092 C 
HETATM   15  C11 UNL     1      26.216  -0.105  54.801  1.00  0.00     0.089 C 
HETATM   16  N3  UNL     1      26.688   0.491  53.767  1.00  0.00    -0.289 NA
HETATM   17  C12 UNL     1      27.841   1.285  53.818  1.00  0.00     0.111 A 
HETATM   18  C13 UNL     1      28.713   2.282  53.636  1.00  0.00     0.057 A 
HETATM   19  C14 UNL     1      27.436   2.452  53.001  1.00  0.00     0.148 A 
HETATM   20  N4  UNL     1      27.223   2.024  51.658  1.00  0.00    -0.292 NA
ENDBRANCH   3   4
TORSDOF 1
ENDMDL
MODEL 9
REMARK VINA RESULT:      -6.7      5.967      7.692
REMARK  1 active torsions:
REMARK  status: ('A' for Active; 'I' for Inactive)
REMARK    1  A    between atoms: N1_3  and  C2_4 
ROOT
HETATM    1  O1  UNL     1      27.096  11.473  48.870  1.00  0.00    -0.260 OA
HETATM    2  C1  UNL     1      27.657  10.401  49.026  1.00  0.00     0.337 C 
HETATM    3  N1  UNL     1      28.355   9.352  49.017  1.00  0.00    -0.206 NA
ENDROOT
BRANCH   3   4
HETATM    4  C2  UNL     1      27.676   8.091  49.067  1.00  0.00     0.061 A 
HETATM    5  C3  UNL     1      28.295   7.069  48.383  1.00  0.00     0.032 A 
HETATM    6  C4  UNL     1      27.616   5.846  48.445  1.00  0.00     0.016 A 
HETATM    7  C5  UNL     1      26.414   5.642  49.131  1.00  0.00    -0.011 A 
HETATM    8  C6  UNL     1      25.841   6.676  49.789  1.00  0.00    -0.025 A 
HETATM    9  C15 UNL     1      26.010   4.248  48.985  1.00  0.00     0.122 C 
HETATM   10  C7  UNL     1      26.492   7.870  49.736  1.00  0.00     0.041 A 
HETATM   11  C8  UNL     1      24.600   6.720  50.560  1.00  0.00     0.187 C 
HETATM   12  N2  UNL     1      24.246   5.451  51.111  1.00  0.00    -0.301 NA
HETATM   13  C9  UNL     1      23.102   5.317  51.718  1.00  0.00     0.088 C 
HETATM   14  C10 UNL     1      22.569   4.090  52.345  1.00  0.00     0.092 C 
HETATM   15  C11 UNL     1      23.677   3.206  52.805  1.00  0.00     0.089 C 
HETATM   16  N3  UNL     1      24.389   3.013  51.755  1.00  0.00    -0.289 NA
HETATM   17  C12 UNL     1      25.545   2.222  51.764  1.00  0.00     0.111 A 
HETATM   18  C13 UNL     1      26.786   1.775  51.550  1.00  0.00     0.057 A 
HETATM   19  C14 UNL     1      26.476   3.046  50.959  1.00  0.00     0.148 A 
HETATM   20  N4  UNL     1      25.981   3.132  49.625  1.00  0.00    -0.292 NA
ENDBRANCH   3   4
TORSDOF 1
ENDMDL
