MODEL 1
REMARK VINA RESULT:      -8.4      0.000      0.000
REMARK  4 active torsions:
REMARK  status: ('A' for Active; 'I' for Inactive)
REMARK    1  A    between atoms: S1_2  and  N1_4 
REMARK    2  A    between atoms: N1_4  and  C2_5 
REMARK    3  A    between atoms: C7_12  and  N4_13 
REMARK    4  A    between atoms: N4_13  and  C8_14 
ROOT
HETATM    1  C2  UNL     1      26.015  -0.144  54.685  1.00  0.00     0.181 C 
HETATM    2  C3  UNL     1      25.607   0.691  53.723  1.00  0.00     0.076 C 
HETATM    3  C4  UNL     1      24.380   0.704  52.935  1.00  0.00     0.044 A 
HETATM    4  C5  UNL     1      23.242   0.044  53.367  1.00  0.00     0.091 A 
HETATM    5  N2  UNL     1      22.122   0.107  52.640  1.00  0.00    -0.240 NA
HETATM    6  C6  UNL     1      22.169   0.824  51.505  1.00  0.00     0.236 A 
HETATM    7  N3  UNL     1      23.291   1.434  51.144  1.00  0.00    -0.224 NA
HETATM    8  C7  UNL     1      24.439   1.439  51.776  1.00  0.00     0.142 A 
HETATM    9  C14 UNL     1      22.976  -0.787  54.548  1.00  0.00     0.179 C 
HETATM   10  N5  UNL     1      23.890  -1.326  55.294  1.00  0.00    -0.136 NA
HETATM   11  O2  UNL     1      25.275  -1.236  55.137  1.00  0.00    -0.195 OA
ENDROOT
BRANCH   8  12
HETATM   12  N4  UNL     1      25.621   2.056  51.364  1.00  0.00    -0.340 N 
HETATM   13  H7  UNL     1      26.590   1.702  51.473  1.00  0.00     0.167 HD
BRANCH  12  14
HETATM   14  C8  UNL     1      25.721   3.291  50.676  1.00  0.00     0.035 A 
HETATM   15  C9  UNL     1      26.646   3.503  49.681  1.00  0.00     0.029 A 
HETATM   16  C10 UNL     1      26.792   4.683  48.964  1.00  0.00     0.004 A 
HETATM   17  C11 UNL     1      25.963   5.747  49.241  1.00  0.00     0.019 A 
HETATM   18  C12 UNL     1      25.016   5.600  50.223  1.00  0.00     0.013 A 
HETATM   19 BR1  UNL     1      23.837   7.033  50.649  1.00  0.00    -0.051 Br
HETATM   20  C13 UNL     1      24.936   4.400  50.888  1.00  0.00     0.048 A 
ENDBRANCH  12  14
ENDBRANCH   8  12
BRANCH   1  21
HETATM   21  N1  UNL     1      27.310   0.177  55.235  1.00  0.00    -0.285 N 
HETATM   22  H4  UNL     1      27.509   0.036  56.249  1.00  0.00     0.178 HD
BRANCH  21  23
HETATM   23  S1  UNL     1      28.445   0.797  54.061  1.00  0.00     0.112 S 
HETATM   24  C1  UNL     1      29.619  -0.494  53.682  1.00  0.00     0.152 C 
HETATM   25  O1  UNL     1      29.218   1.914  54.768  1.00  0.00    -0.236 OA
ENDBRANCH  21  23
ENDBRANCH   1  21
TORSDOF 4
ENDMDL
MODEL 2
REMARK VINA RESULT:      -8.0      1.787      2.639
REMARK  4 active torsions:
REMARK  status: ('A' for Active; 'I' for Inactive)
REMARK    1  A    between atoms: S1_2  and  N1_4 
REMARK    2  A    between atoms: N1_4  and  C2_5 
REMARK    3  A    between atoms: C7_12  and  N4_13 
REMARK    4  A    between atoms: N4_13  and  C8_14 
ROOT
HETATM    1  C2  UNL     1      25.578  -0.182  53.885  1.00  0.00     0.181 C 
HETATM    2  C3  UNL     1      24.450   0.285  53.337  1.00  0.00     0.076 C 
HETATM    3  C4  UNL     1      23.066  -0.141  53.507  1.00  0.00     0.044 A 
HETATM    4  C5  UNL     1      22.670  -0.874  54.612  1.00  0.00     0.091 A 
HETATM    5  N2  UNL     1      21.386  -1.217  54.758  1.00  0.00    -0.240 NA
HETATM    6  C6  UNL     1      20.535  -0.818  53.798  1.00  0.00     0.236 A 
HETATM    7  N3  UNL     1      20.975  -0.116  52.762  1.00  0.00    -0.224 NA
HETATM    8  C7  UNL     1      22.203   0.272  52.520  1.00  0.00     0.142 A 
HETATM    9  C14 UNL     1      23.419  -1.412  55.755  1.00  0.00     0.179 C 
HETATM   10  N5  UNL     1      24.708  -1.556  55.792  1.00  0.00    -0.136 NA
HETATM   11  O2  UNL     1      25.626  -1.244  54.788  1.00  0.00    -0.195 OA
ENDROOT
BRANCH   8  12
HETATM   12  N4  UNL     1      22.657   0.979  51.405  1.00  0.00    -0.340 N 
HETATM   13  H7  UNL     1      22.776   0.624  50.438  1.00  0.00     0.167 HD
BRANCH  12  14
HETATM   14  C8  UNL     1      23.014   2.350  51.377  1.00  0.00     0.035 A 
HETATM   15  C9  UNL     1      22.368   3.292  52.142  1.00  0.00     0.029 A 
HETATM   16  C10 UNL     1      22.672   4.646  52.168  1.00  0.00     0.004 A 
HETATM   17  C11 UNL     1      23.696   5.122  51.380  1.00  0.00     0.019 A 
HETATM   18  C12 UNL     1      24.382   4.232  50.592  1.00  0.00     0.013 A 
HETATM   19 BR1  UNL     1      25.811   4.828  49.482  1.00  0.00    -0.051 Br
HETATM   20  C13 UNL     1      24.020   2.908  50.623  1.00  0.00     0.048 A 
ENDBRANCH  12  14
ENDBRANCH   8  12
BRANCH   1  21
HETATM   21  N1  UNL     1      26.770   0.512  53.463  1.00  0.00    -0.285 N 
HETATM   22  H4  UNL     1      26.776   1.082  52.590  1.00  0.00     0.178 HD
BRANCH  21  23
HETATM   23  S1  UNL     1      28.132   0.296  54.535  1.00  0.00     0.112 S 
HETATM   24  C1  UNL     1      29.272   1.645  54.271  1.00  0.00     0.152 C 
HETATM   25  O1  UNL     1      28.837  -0.984  54.072  1.00  0.00    -0.236 OA
ENDBRANCH  21  23
ENDBRANCH   1  21
TORSDOF 4
ENDMDL
MODEL 3
REMARK VINA RESULT:      -7.6      2.688      4.387
REMARK  4 active torsions:
REMARK  status: ('A' for Active; 'I' for Inactive)
REMARK    1  A    between atoms: S1_2  and  N1_4 
REMARK    2  A    between atoms: N1_4  and  C2_5 
REMARK    3  A    between atoms: C7_12  and  N4_13 
REMARK    4  A    between atoms: N4_13  and  C8_14 
ROOT
HETATM    1  C2  UNL     1      21.944  -0.383  53.737  1.00  0.00     0.181 C 
HETATM    2  C3  UNL     1      22.991  -0.006  52.994  1.00  0.00     0.076 C 
HETATM    3  C4  UNL     1      24.404   0.113  53.338  1.00  0.00     0.044 A 
HETATM    4  C5  UNL     1      24.937  -0.553  54.428  1.00  0.00     0.091 A 
HETATM    5  N2  UNL     1      26.244  -0.453  54.693  1.00  0.00    -0.240 NA
HETATM    6  C6  UNL     1      26.979   0.306  53.865  1.00  0.00     0.236 A 
HETATM    7  N3  UNL     1      26.409   0.919  52.835  1.00  0.00    -0.224 NA
HETATM    8  C7  UNL     1      25.147   0.892  52.484  1.00  0.00     0.142 A 
HETATM    9  C14 UNL     1      24.326  -1.412  55.450  1.00  0.00     0.179 C 
HETATM   10  N5  UNL     1      23.055  -1.473  55.702  1.00  0.00    -0.136 NA
HETATM   11  O2  UNL     1      22.031  -0.757  55.078  1.00  0.00    -0.195 OA
ENDROOT
BRANCH   8  12
HETATM   12  N4  UNL     1      24.557   1.572  51.418  1.00  0.00    -0.340 N 
HETATM   13  H7  UNL     1      23.695   1.313  50.903  1.00  0.00     0.167 HD
BRANCH  12  14
HETATM   14  C8  UNL     1      25.014   2.787  50.850  1.00  0.00     0.035 A 
HETATM   15  C9  UNL     1      26.085   2.836  49.989  1.00  0.00     0.029 A 
HETATM   16  C10 UNL     1      26.578   3.988  49.391  1.00  0.00     0.004 A 
HETATM   17  C11 UNL     1      25.973   5.196  49.656  1.00  0.00     0.019 A 
HETATM   18  C12 UNL     1      24.896   5.216  50.507  1.00  0.00     0.013 A 
HETATM   19 BR1  UNL     1      24.014   6.855  50.909  1.00  0.00    -0.051 Br
HETATM   20  C13 UNL     1      24.469   4.033  51.058  1.00  0.00     0.048 A 
ENDBRANCH  12  14
ENDBRANCH   8  12
BRANCH   1  21
HETATM   21  N1  UNL     1      20.686  -0.373  53.031  1.00  0.00    -0.285 N 
HETATM   22  H4  UNL     1      19.926  -1.040  53.284  1.00  0.00     0.178 HD
BRANCH  21  23
HETATM   23  S1  UNL     1      20.593   0.827  51.766  1.00  0.00     0.112 S 
HETATM   24  C1  UNL     1      20.192   2.399  52.514  1.00  0.00     0.152 C 
HETATM   25  O1  UNL     1      19.400   0.430  50.891  1.00  0.00    -0.236 OA
ENDBRANCH  21  23
ENDBRANCH   1  21
TORSDOF 4
ENDMDL
MODEL 4
REMARK VINA RESULT:      -7.6      4.427      5.929
REMARK  4 active torsions:
REMARK  status: ('A' for Active; 'I' for Inactive)
REMARK    1  A    between atoms: S1_2  and  N1_4 
REMARK    2  A    between atoms: N1_4  and  C2_5 
REMARK    3  A    between atoms: C7_12  and  N4_13 
REMARK    4  A    between atoms: N4_13  and  C8_14 
ROOT
HETATM    1  C2  UNL     1      21.100   0.817  51.422  1.00  0.00     0.181 C 
HETATM    2  C3  UNL     1      22.270   0.362  51.885  1.00  0.00     0.076 C 
HETATM    3  C4  UNL     1      22.612  -0.244  53.167  1.00  0.00     0.044 A 
HETATM    4  C5  UNL     1      21.642  -0.813  53.974  1.00  0.00     0.091 A 
HETATM    5  N2  UNL     1      21.994  -1.395  55.126  1.00  0.00    -0.240 NA
HETATM    6  C6  UNL     1      23.300  -1.391  55.438  1.00  0.00     0.236 A 
HETATM    7  N3  UNL     1      24.182  -0.829  54.622  1.00  0.00    -0.224 NA
HETATM    8  C7  UNL     1      23.950  -0.235  53.477  1.00  0.00     0.142 A 
HETATM    9  C14 UNL     1      20.184  -0.920  53.833  1.00  0.00     0.179 C 
HETATM   10  N5  UNL     1      19.465  -0.206  53.024  1.00  0.00    -0.136 NA
HETATM   11  O2  UNL     1      19.908   0.785  52.146  1.00  0.00    -0.195 OA
ENDROOT
BRANCH   8  12
HETATM   12  N4  UNL     1      24.887   0.384  52.648  1.00  0.00    -0.340 N 
HETATM   13  H7  UNL     1      24.738   0.743  51.686  1.00  0.00     0.167 HD
BRANCH  12  14
HETATM   14  C8  UNL     1      26.233   0.674  52.981  1.00  0.00     0.035 A 
HETATM   15  C9  UNL     1      26.667   1.955  53.227  1.00  0.00     0.029 A 
HETATM   16  C10 UNL     1      27.966   2.308  53.565  1.00  0.00     0.004 A 
HETATM   17  C11 UNL     1      28.924   1.325  53.674  1.00  0.00     0.019 A 
HETATM   18  C12 UNL     1      28.555   0.024  53.442  1.00  0.00     0.013 A 
HETATM   19 BR1  UNL     1      29.834  -1.381  53.581  1.00  0.00    -0.051 Br
HETATM   20  C13 UNL     1      27.249  -0.243  53.112  1.00  0.00     0.048 A 
ENDBRANCH  12  14
ENDBRANCH   8  12
BRANCH   1  21
HETATM   21  N1  UNL     1      21.164   1.354  50.085  1.00  0.00    -0.285 N 
HETATM   22  H4  UNL     1      20.593   0.942  49.316  1.00  0.00     0.178 HD
BRANCH  21  23
HETATM   23  S1  UNL     1      22.253   2.709  49.917  1.00  0.00     0.112 S 
HETATM   24  C1  UNL     1      21.469   4.149  50.624  1.00  0.00     0.152 C 
HETATM   25  O1  UNL     1      22.384   2.963  48.412  1.00  0.00    -0.236 OA
ENDBRANCH  21  23
ENDBRANCH   1  21
TORSDOF 4
ENDMDL
MODEL 5
REMARK VINA RESULT:      -7.6      1.958      2.439
REMARK  4 active torsions:
REMARK  status: ('A' for Active; 'I' for Inactive)
REMARK    1  A    between atoms: S1_2  and  N1_4 
REMARK    2  A    between atoms: N1_4  and  C2_5 
REMARK    3  A    between atoms: C7_12  and  N4_13 
REMARK    4  A    between atoms: N4_13  and  C8_14 
ROOT
HETATM    1  C2  UNL     1      25.332   1.769  53.392  1.00  0.00     0.181 C 
HETATM    2  C3  UNL     1      24.749   2.828  52.818  1.00  0.00     0.076 C 
HETATM    3  C4  UNL     1      23.590   2.910  51.936  1.00  0.00     0.044 A 
HETATM    4  C5  UNL     1      22.656   1.890  51.879  1.00  0.00     0.091 A 
HETATM    5  N2  UNL     1      21.585   2.014  51.088  1.00  0.00    -0.240 NA
HETATM    6  C6  UNL     1      21.478   3.149  50.378  1.00  0.00     0.236 A 
HETATM    7  N3  UNL     1      22.407   4.090  50.476  1.00  0.00    -0.224 NA
HETATM    8  C7  UNL     1      23.490   4.075  51.213  1.00  0.00     0.142 A 
HETATM    9  C14 UNL     1      22.582   0.587  52.550  1.00  0.00     0.179 C 
HETATM   10  N5  UNL     1      23.581  -0.005  53.129  1.00  0.00    -0.136 NA
HETATM   11  O2  UNL     1      24.896   0.454  53.231  1.00  0.00    -0.195 OA
ENDROOT
BRANCH   8  12
HETATM   12  N4  UNL     1      24.477   5.059  51.277  1.00  0.00    -0.340 N 
HETATM   13  H7  UNL     1      24.626   5.756  52.031  1.00  0.00     0.167 HD
BRANCH  12  14
HETATM   14  C8  UNL     1      25.502   5.276  50.322  1.00  0.00     0.035 A 
HETATM   15  C9  UNL     1      26.257   4.246  49.813  1.00  0.00     0.029 A 
HETATM   16  C10 UNL     1      27.268   4.386  48.872  1.00  0.00     0.004 A 
HETATM   17  C11 UNL     1      27.567   5.640  48.386  1.00  0.00     0.019 A 
HETATM   18  C12 UNL     1      26.848   6.711  48.853  1.00  0.00     0.013 A 
HETATM   19 BR1  UNL     1      27.210   8.469  48.217  1.00  0.00    -0.051 Br
HETATM   20  C13 UNL     1      25.863   6.488  49.785  1.00  0.00     0.048 A 
ENDBRANCH  12  14
ENDBRANCH   8  12
BRANCH   1  21
HETATM   21  N1  UNL     1      26.474   2.097  54.210  1.00  0.00    -0.285 N 
HETATM   22  H4  UNL     1      26.363   2.650  55.086  1.00  0.00     0.178 HD
BRANCH  21  23
HETATM   23  S1  UNL     1      27.989   1.485  53.591  1.00  0.00     0.112 S 
HETATM   24  C1  UNL     1      28.771   0.523  54.876  1.00  0.00     0.152 C 
HETATM   25  O1  UNL     1      28.874   2.711  53.347  1.00  0.00    -0.236 OA
ENDBRANCH  21  23
ENDBRANCH   1  21
TORSDOF 4
ENDMDL
MODEL 6
REMARK VINA RESULT:      -7.5      2.911      5.776
REMARK  4 active torsions:
REMARK  status: ('A' for Active; 'I' for Inactive)
REMARK    1  A    between atoms: S1_2  and  N1_4 
REMARK    2  A    between atoms: N1_4  and  C2_5 
REMARK    3  A    between atoms: C7_12  and  N4_13 
REMARK    4  A    between atoms: N4_13  and  C8_14 
ROOT
HETATM    1  C2  UNL     1      26.456   1.501  51.774  1.00  0.00     0.181 C 
HETATM    2  C3  UNL     1      25.128   1.519  51.934  1.00  0.00     0.076 C 
HETATM    3  C4  UNL     1      24.132   2.488  51.489  1.00  0.00     0.044 A 
HETATM    4  C5  UNL     1      24.399   3.369  50.455  1.00  0.00     0.091 A 
HETATM    5  N2  UNL     1      23.451   4.219  50.046  1.00  0.00    -0.240 NA
HETATM    6  C6  UNL     1      22.268   4.165  50.679  1.00  0.00     0.236 A 
HETATM    7  N3  UNL     1      22.074   3.298  51.664  1.00  0.00    -0.224 NA
HETATM    8  C7  UNL     1      22.926   2.426  52.143  1.00  0.00     0.142 A 
HETATM    9  C14 UNL     1      25.601   3.598  49.644  1.00  0.00     0.179 C 
HETATM   10  N5  UNL     1      26.793   3.197  49.959  1.00  0.00    -0.136 NA
HETATM   11  O2  UNL     1      27.176   2.487  51.099  1.00  0.00    -0.195 OA
ENDROOT
BRANCH   8  12
HETATM   12  N4  UNL     1      22.718   1.544  53.205  1.00  0.00    -0.340 N 
HETATM   13  H7  UNL     1      23.268   1.470  54.082  1.00  0.00     0.167 HD
BRANCH  12  14
HETATM   14  C8  UNL     1      21.675   0.589  53.304  1.00  0.00     0.035 A 
HETATM   15  C9  UNL     1      21.793  -0.548  54.068  1.00  0.00     0.029 A 
HETATM   16  C10 UNL     1      20.811  -1.517  54.215  1.00  0.00     0.004 A 
HETATM   17  C11 UNL     1      19.609  -1.363  53.561  1.00  0.00     0.019 A 
HETATM   18  C12 UNL     1      19.426  -0.248  52.782  1.00  0.00     0.013 A 
HETATM   19 BR1  UNL     1      17.785   0.024  51.856  1.00  0.00    -0.051 Br
HETATM   20  C13 UNL     1      20.448   0.665  52.688  1.00  0.00     0.048 A 
ENDBRANCH  12  14
ENDBRANCH   8  12
BRANCH   1  21
HETATM   21  N1  UNL     1      27.106   0.357  52.366  1.00  0.00    -0.285 N 
HETATM   22  H4  UNL     1      27.528  -0.386  51.769  1.00  0.00     0.178 HD
BRANCH  21  23
HETATM   23  S1  UNL     1      27.102   0.364  54.113  1.00  0.00     0.112 S 
HETATM   24  C1  UNL     1      28.787   0.187  54.677  1.00  0.00     0.152 C 
HETATM   25  O1  UNL     1      26.350  -0.900  54.541  1.00  0.00    -0.236 OA
ENDBRANCH  21  23
ENDBRANCH   1  21
TORSDOF 4
ENDMDL
MODEL 7
REMARK VINA RESULT:      -7.4      3.141      4.640
REMARK  4 active torsions:
REMARK  status: ('A' for Active; 'I' for Inactive)
REMARK    1  A    between atoms: S1_2  and  N1_4 
REMARK    2  A    between atoms: N1_4  and  C2_5 
REMARK    3  A    between atoms: C7_12  and  N4_13 
REMARK    4  A    between atoms: N4_13  and  C8_14 
ROOT
HETATM    1  C2  UNL     1      21.398  -0.260  53.198  1.00  0.00     0.181 C 
HETATM    2  C3  UNL     1      22.614   0.017  52.713  1.00  0.00     0.076 C 
HETATM    3  C4  UNL     1      23.922  -0.009  53.359  1.00  0.00     0.044 A 
HETATM    4  C5  UNL     1      24.136  -0.735  54.518  1.00  0.00     0.091 A 
HETATM    5  N2  UNL     1      25.356  -0.769  55.065  1.00  0.00    -0.240 NA
HETATM    6  C6  UNL     1      26.324  -0.079  54.440  1.00  0.00     0.236 A 
HETATM    7  N3  UNL     1      26.056   0.598  53.331  1.00  0.00    -0.224 NA
HETATM    8  C7  UNL     1      24.905   0.700  52.713  1.00  0.00     0.142 A 
HETATM    9  C14 UNL     1      23.237  -1.539  55.356  1.00  0.00     0.179 C 
HETATM   10  N5  UNL     1      21.942  -1.475  55.323  1.00  0.00    -0.136 NA
HETATM   11  O2  UNL     1      21.153  -0.655  54.513  1.00  0.00    -0.195 OA
ENDROOT
BRANCH   8  12
HETATM   12  N4  UNL     1      24.632   1.446  51.566  1.00  0.00    -0.340 N 
HETATM   13  H7  UNL     1      24.566   1.102  50.590  1.00  0.00     0.167 HD
BRANCH  12  14
HETATM   14  C8  UNL     1      24.353   2.835  51.522  1.00  0.00     0.035 A 
HETATM   15  C9  UNL     1      23.763   3.498  52.573  1.00  0.00     0.029 A 
HETATM   16  C10 UNL     1      23.471   4.855  52.598  1.00  0.00     0.004 A 
HETATM   17  C11 UNL     1      23.781   5.632  51.505  1.00  0.00     0.019 A 
HETATM   18  C12 UNL     1      24.373   5.030  50.422  1.00  0.00     0.013 A 
HETATM   19 BR1  UNL     1      24.830   6.052  48.881  1.00  0.00    -0.051 Br
HETATM   20  C13 UNL     1      24.629   3.682  50.475  1.00  0.00     0.048 A 
ENDBRANCH  12  14
ENDBRANCH   8  12
BRANCH   1  21
HETATM   21  N1  UNL     1      20.333  -0.119  52.235  1.00  0.00    -0.285 N 
HETATM   22  H4  UNL     1      19.924  -0.954  51.765  1.00  0.00     0.178 HD
BRANCH  21  23
HETATM   23  S1  UNL     1      19.836   1.534  51.967  1.00  0.00     0.112 S 
HETATM   24  C1  UNL     1      20.772   2.184  50.592  1.00  0.00     0.152 C 
HETATM   25  O1  UNL     1      20.268   2.314  53.213  1.00  0.00    -0.236 OA
ENDBRANCH  21  23
ENDBRANCH   1  21
TORSDOF 4
ENDMDL
MODEL 8
REMARK VINA RESULT:      -7.4      2.966      4.662
REMARK  4 active torsions:
REMARK  status: ('A' for Active; 'I' for Inactive)
REMARK    1  A    between atoms: S1_2  and  N1_4 
REMARK    2  A    between atoms: N1_4  and  C2_5 
REMARK    3  A    between atoms: C7_12  and  N4_13 
REMARK    4  A    between atoms: N4_13  and  C8_14 
ROOT
HETATM    1  C2  UNL     1      22.797   1.110  51.738  1.00  0.00     0.181 C 
HETATM    2  C3  UNL     1      23.945   1.551  51.209  1.00  0.00     0.076 C 
HETATM    3  C4  UNL     1      25.272   1.685  51.800  1.00  0.00     0.044 A 
HETATM    4  C5  UNL     1      25.629   0.976  52.934  1.00  0.00     0.091 A 
HETATM    5  N2  UNL     1      26.866   1.093  53.428  1.00  0.00    -0.240 NA
HETATM    6  C6  UNL     1      27.709   1.912  52.778  1.00  0.00     0.236 A 
HETATM    7  N3  UNL     1      27.306   2.566  51.695  1.00  0.00    -0.224 NA
HETATM    8  C7  UNL     1      26.126   2.526  51.128  1.00  0.00     0.142 A 
HETATM    9  C14 UNL     1      24.879   0.049  53.790  1.00  0.00     0.179 C 
HETATM   10  N5  UNL     1      23.587  -0.056  53.813  1.00  0.00    -0.136 NA
HETATM   11  O2  UNL     1      22.664   0.667  53.054  1.00  0.00    -0.195 OA
ENDROOT
BRANCH   8  12
HETATM   12  N4  UNL     1      25.707   3.249  50.009  1.00  0.00    -0.340 N 
HETATM   13  H7  UNL     1      24.952   2.999  49.344  1.00  0.00     0.167 HD
BRANCH  12  14
HETATM   14  C8  UNL     1      26.222   4.498  49.583  1.00  0.00     0.035 A 
HETATM   15  C9  UNL     1      27.363   4.599  48.823  1.00  0.00     0.029 A 
HETATM   16  C10 UNL     1      27.916   5.787  48.366  1.00  0.00     0.004 A 
HETATM   17  C11 UNL     1      27.301   6.980  48.676  1.00  0.00     0.019 A 
HETATM   18  C12 UNL     1      26.156   6.948  49.432  1.00  0.00     0.013 A 
HETATM   19 BR1  UNL     1      25.257   8.563  49.891  1.00  0.00    -0.051 Br
HETATM   20  C13 UNL     1      25.673   5.731  49.846  1.00  0.00     0.048 A 
ENDBRANCH  12  14
ENDBRANCH   8  12
BRANCH   1  21
HETATM   21  N1  UNL     1      21.682   1.126  50.824  1.00  0.00    -0.285 N 
HETATM   22  H4  UNL     1      20.767   0.704  51.091  1.00  0.00     0.178 HD
BRANCH  21  23
HETATM   23  S1  UNL     1      22.029   1.900  49.297  1.00  0.00     0.112 S 
HETATM   24  C1  UNL     1      21.001   3.354  49.159  1.00  0.00     0.152 C 
HETATM   25  O1  UNL     1      21.568   0.921  48.212  1.00  0.00    -0.236 OA
ENDBRANCH  21  23
ENDBRANCH   1  21
TORSDOF 4
ENDMDL
MODEL 9
REMARK VINA RESULT:      -7.2      4.720      7.093
REMARK  4 active torsions:
REMARK  status: ('A' for Active; 'I' for Inactive)
REMARK    1  A    between atoms: S1_2  and  N1_4 
REMARK    2  A    between atoms: N1_4  and  C2_5 
REMARK    3  A    between atoms: C7_12  and  N4_13 
REMARK    4  A    between atoms: N4_13  and  C8_14 
ROOT
HETATM    1  C2  UNL     1      24.565   7.149  50.964  1.00  0.00     0.181 C 
HETATM    2  C3  UNL     1      24.321   5.889  51.340  1.00  0.00     0.076 C 
HETATM    3  C4  UNL     1      23.059   5.188  51.546  1.00  0.00     0.044 A 
HETATM    4  C5  UNL     1      21.882   5.644  50.977  1.00  0.00     0.091 A 
HETATM    5  N2  UNL     1      20.748   4.957  51.154  1.00  0.00    -0.240 NA
HETATM    6  C6  UNL     1      20.822   3.837  51.892  1.00  0.00     0.236 A 
HETATM    7  N3  UNL     1      21.980   3.451  52.411  1.00  0.00    -0.224 NA
HETATM    8  C7  UNL     1      23.144   4.044  52.302  1.00  0.00     0.142 A 
HETATM    9  C14 UNL     1      21.579   6.824  50.158  1.00  0.00     0.179 C 
HETATM   10  N5  UNL     1      22.342   7.868  50.054  1.00  0.00    -0.136 NA
HETATM   11  O2  UNL     1      23.571   8.086  50.680  1.00  0.00    -0.195 OA
ENDROOT
BRANCH   8  12
HETATM   12  N4  UNL     1      24.347   3.644  52.885  1.00  0.00    -0.340 N 
HETATM   13  H7  UNL     1      25.119   4.251  53.220  1.00  0.00     0.167 HD
BRANCH  12  14
HETATM   14  C8  UNL     1      24.735   2.310  53.165  1.00  0.00     0.035 A 
HETATM   15  C9  UNL     1      23.906   1.240  52.926  1.00  0.00     0.029 A 
HETATM   16  C10 UNL     1      24.225  -0.089  53.169  1.00  0.00     0.004 A 
HETATM   17  C11 UNL     1      25.462  -0.400  53.689  1.00  0.00     0.019 A 
HETATM   18  C12 UNL     1      26.338   0.623  53.950  1.00  0.00     0.013 A 
HETATM   19 BR1  UNL     1      28.064   0.256  54.666  1.00  0.00    -0.051 Br
HETATM   20  C13 UNL     1      25.946   1.912  53.682  1.00  0.00     0.048 A 
ENDBRANCH  12  14
ENDBRANCH   8  12
BRANCH   1  21
HETATM   21  N1  UNL     1      25.967   7.476  50.869  1.00  0.00    -0.285 N 
HETATM   22  H4  UNL     1      26.683   6.906  51.367  1.00  0.00     0.178 HD
BRANCH  21  23
HETATM   23  S1  UNL     1      26.304   8.869  49.871  1.00  0.00     0.112 S 
HETATM   24  C1  UNL     1      26.973   8.295  48.317  1.00  0.00     0.152 C 
HETATM   25  O1  UNL     1      27.420   9.640  50.582  1.00  0.00    -0.236 OA
ENDBRANCH  21  23
ENDBRANCH   1  21
TORSDOF 4
ENDMDL
