MODEL 1
REMARK VINA RESULT:      -7.5      0.000      0.000
REMARK  8 active torsions:
REMARK  status: ('A' for Active; 'I' for Inactive)
REMARK    1  A    between atoms: C3_3  and  N1_4 
REMARK    2  A    between atoms: C3_3  and  C11_16 
REMARK    3  A    between atoms: N1_4  and  C4_5 
REMARK    4  A    between atoms: C4_5  and  N2_7 
REMARK    5  A    between atoms: N2_7  and  C5_8 
REMARK    6  A    between atoms: C5_8  and  C6_9 
REMARK    7  A    between atoms: C6_9  and  N3_10 
REMARK    8  A    between atoms: C14_21  and  C15_22 
ROOT
HETATM    1  C1  UNL     1      26.228   3.380  49.601  1.00  0.00     0.038 C 
HETATM    2  C2  UNL     1      26.041   2.798  50.938  1.00  0.00    -0.005 C 
HETATM    3  C3  UNL     1      25.006   2.864  51.802  1.00  0.00     0.019 C 
ENDROOT
BRANCH   3   4
HETATM    4  N1  UNL     1      24.263   3.676  50.905  1.00  0.00    -0.337 N 
HETATM    5  H5  UNL     1      24.252   3.647  49.876  1.00  0.00     0.168 HD
BRANCH   4   6
HETATM    6  C4  UNL     1      23.422   4.636  51.570  1.00  0.00     0.172 C 
HETATM    7  S1  UNL     1      21.847   4.432  51.899  1.00  0.00    -0.041 SA
BRANCH   6   8
HETATM    8  N2  UNL     1      23.953   5.885  51.999  1.00  0.00    -0.365 N 
HETATM    9  H6  UNL     1      24.206   5.995  53.024  1.00  0.00     0.161 HD
BRANCH   8  10
HETATM   10  C5  UNL     1      24.187   7.047  51.160  1.00  0.00     0.152 C 
BRANCH  10  11
HETATM   11  C6  UNL     1      25.477   6.970  50.416  1.00  0.00     0.292 C 
BRANCH  11  12
HETATM   12  N3  UNL     1      25.560   7.906  49.342  1.00  0.00     0.094 N 
HETATM   13  C7  UNL     1      26.443   7.415  48.300  1.00  0.00     0.298 C 
HETATM   14  C8  UNL     1      27.511   8.420  47.938  1.00  0.00     0.198 C 
HETATM   15  O1  UNL     1      28.222   8.897  49.012  1.00  0.00    -0.388 OA
HETATM   16  C9  UNL     1      27.439   9.215  50.095  1.00  0.00     0.198 C 
HETATM   17  C10 UNL     1      25.967   9.230  49.692  1.00  0.00     0.298 C 
ENDBRANCH  11  12
ENDBRANCH  10  11
ENDBRANCH   8  10
ENDBRANCH   6   8
ENDBRANCH   4   6
ENDBRANCH   3   4
BRANCH   3  18
HETATM   18  C11 UNL     1      24.869   2.240  53.179  1.00  0.00     0.108 A 
HETATM   19  C12 UNL     1      26.211   2.105  53.804  1.00  0.00     0.167 A 
HETATM   20  N4  UNL     1      26.606   0.780  54.065  1.00  0.00    -0.282 NA
HETATM   21  C13 UNL     1      25.992  -0.297  53.925  1.00  0.00     0.226 A 
HETATM   22  N5  UNL     1      24.689  -0.172  53.409  1.00  0.00    -0.245 NA
HETATM   23  C14 UNL     1      24.157   0.953  53.076  1.00  0.00     0.057 A 
BRANCH  23  24
HETATM   24  C15 UNL     1      22.782   0.781  52.626  1.00  0.00    -0.011 A 
HETATM   25  C16 UNL     1      22.385   0.690  51.309  1.00  0.00     0.015 A 
HETATM   26  C17 UNL     1      21.100   0.490  50.860  1.00  0.00     0.024 A 
HETATM   27  C18 UNL     1      20.094   0.366  51.791  1.00  0.00     0.034 A 
HETATM   28 CL1  UNL     1      18.432   0.110  51.318  1.00  0.00    -0.084 Cl
HETATM   29  C19 UNL     1      20.393   0.445  53.128  1.00  0.00     0.024 A 
HETATM   30  C20 UNL     1      21.699   0.645  53.478  1.00  0.00     0.015 A 
ENDBRANCH  23  24
ENDBRANCH   3  18
TORSDOF 8
ENDMDL
MODEL 2
REMARK VINA RESULT:      -7.5      3.898      5.420
REMARK  8 active torsions:
REMARK  status: ('A' for Active; 'I' for Inactive)
REMARK    1  A    between atoms: C3_3  and  N1_4 
REMARK    2  A    between atoms: C3_3  and  C11_16 
REMARK    3  A    between atoms: N1_4  and  C4_5 
REMARK    4  A    between atoms: C4_5  and  N2_7 
REMARK    5  A    between atoms: N2_7  and  C5_8 
REMARK    6  A    between atoms: C5_8  and  C6_9 
REMARK    7  A    between atoms: C6_9  and  N3_10 
REMARK    8  A    between atoms: C14_21  and  C15_22 
ROOT
HETATM    1  C1  UNL     1      24.108   3.853  52.919  1.00  0.00     0.038 C 
HETATM    2  C2  UNL     1      23.910   2.404  53.066  1.00  0.00    -0.005 C 
HETATM    3  C3  UNL     1      23.133   1.536  52.384  1.00  0.00     0.019 C 
ENDROOT
BRANCH   3   4
HETATM    4  N1  UNL     1      22.648   2.574  51.546  1.00  0.00    -0.337 N 
HETATM    5  H5  UNL     1      22.274   3.494  51.819  1.00  0.00     0.168 HD
BRANCH   4   6
HETATM    6  C4  UNL     1      22.725   2.256  50.144  1.00  0.00     0.172 C 
HETATM    7  S1  UNL     1      21.683   1.308  49.340  1.00  0.00    -0.041 SA
BRANCH   6   8
HETATM    8  N2  UNL     1      23.776   2.784  49.342  1.00  0.00    -0.365 N 
HETATM    9  H6  UNL     1      24.407   2.099  48.832  1.00  0.00     0.161 HD
BRANCH   8  10
HETATM   10  C5  UNL     1      24.079   4.191  49.147  1.00  0.00     0.152 C 
BRANCH  10  11
HETATM   11  C6  UNL     1      23.093   4.876  48.264  1.00  0.00     0.292 C 
BRANCH  11  12
HETATM   12  N3  UNL     1      22.465   5.995  48.888  1.00  0.00     0.094 N 
HETATM   13  C7  UNL     1      22.867   6.099  50.279  1.00  0.00     0.298 C 
HETATM   14  C8  UNL     1      21.680   6.182  51.209  1.00  0.00     0.198 C 
HETATM   15  O1  UNL     1      20.754   5.183  51.030  1.00  0.00    -0.388 OA
HETATM   16  C9  UNL     1      20.467   4.927  49.711  1.00  0.00     0.198 C 
HETATM   17  C10 UNL     1      21.038   6.031  48.826  1.00  0.00     0.298 C 
ENDBRANCH  11  12
ENDBRANCH  10  11
ENDBRANCH   8  10
ENDBRANCH   6   8
ENDBRANCH   4   6
ENDBRANCH   3   4
BRANCH   3  18
HETATM   18  C11 UNL     1      22.967   0.040  52.584  1.00  0.00     0.108 A 
HETATM   19  C12 UNL     1      21.536  -0.278  52.823  1.00  0.00     0.167 A 
HETATM   20  N4  UNL     1      21.262  -0.837  54.085  1.00  0.00    -0.282 NA
HETATM   21  C13 UNL     1      22.026  -1.175  55.010  1.00  0.00     0.226 A 
HETATM   22  N5  UNL     1      23.392  -0.951  54.760  1.00  0.00    -0.245 NA
HETATM   23  C14 UNL     1      23.843  -0.418  53.677  1.00  0.00     0.057 A 
BRANCH  23  24
HETATM   24  C15 UNL     1      25.298  -0.364  53.675  1.00  0.00    -0.011 A 
HETATM   25  C16 UNL     1      26.075   0.127  54.704  1.00  0.00     0.015 A 
HETATM   26  C17 UNL     1      27.450   0.156  54.742  1.00  0.00     0.024 A 
HETATM   27  C18 UNL     1      28.144  -0.346  53.665  1.00  0.00     0.034 A 
HETATM   28 CL1  UNL     1      29.890  -0.353  53.622  1.00  0.00    -0.084 Cl
HETATM   29  C19 UNL     1      27.457  -0.855  52.591  1.00  0.00     0.024 A 
HETATM   30  C20 UNL     1      26.091  -0.841  52.645  1.00  0.00     0.015 A 
ENDBRANCH  23  24
ENDBRANCH   3  18
TORSDOF 8
ENDMDL
MODEL 3
REMARK VINA RESULT:      -7.4      3.045      4.670
REMARK  8 active torsions:
REMARK  status: ('A' for Active; 'I' for Inactive)
REMARK    1  A    between atoms: C3_3  and  N1_4 
REMARK    2  A    between atoms: C3_3  and  C11_16 
REMARK    3  A    between atoms: N1_4  and  C4_5 
REMARK    4  A    between atoms: C4_5  and  N2_7 
REMARK    5  A    between atoms: N2_7  and  C5_8 
REMARK    6  A    between atoms: C5_8  and  C6_9 
REMARK    7  A    between atoms: C6_9  and  N3_10 
REMARK    8  A    between atoms: C14_21  and  C15_22 
ROOT
HETATM    1  C1  UNL     1      23.789   4.793  53.283  1.00  0.00     0.038 C 
HETATM    2  C2  UNL     1      23.433   3.383  53.062  1.00  0.00    -0.005 C 
HETATM    3  C3  UNL     1      23.996   2.433  52.286  1.00  0.00     0.019 C 
ENDROOT
BRANCH   3   4
HETATM    4  N1  UNL     1      24.987   3.341  51.831  1.00  0.00    -0.337 N 
HETATM    5  H5  UNL     1      25.599   3.953  52.390  1.00  0.00     0.168 HD
BRANCH   4   6
HETATM    6  C4  UNL     1      25.128   3.360  50.398  1.00  0.00     0.172 C 
HETATM    7  S1  UNL     1      26.530   3.509  49.597  1.00  0.00    -0.041 SA
BRANCH   6   8
HETATM    8  N2  UNL     1      23.983   3.243  49.561  1.00  0.00    -0.365 N 
HETATM    9  H6  UNL     1      23.531   2.288  49.462  1.00  0.00     0.161 HD
BRANCH   8  10
HETATM   10  C5  UNL     1      23.359   4.319  48.812  1.00  0.00     0.152 C 
BRANCH  10  11
HETATM   11  C6  UNL     1      22.878   5.427  49.686  1.00  0.00     0.292 C 
BRANCH  11  12
HETATM   12  N3  UNL     1      23.279   6.717  49.227  1.00  0.00     0.094 N 
HETATM   13  C7  UNL     1      24.204   6.601  48.114  1.00  0.00     0.298 C 
HETATM   14  C8  UNL     1      25.472   7.389  48.344  1.00  0.00     0.198 C 
HETATM   15  O1  UNL     1      26.092   7.120  49.540  1.00  0.00    -0.388 OA
HETATM   16  C9  UNL     1      25.228   7.048  50.605  1.00  0.00     0.198 C 
HETATM   17  C10 UNL     1      23.856   7.583  50.206  1.00  0.00     0.298 C 
ENDBRANCH  11  12
ENDBRANCH  10  11
ENDBRANCH   8  10
ENDBRANCH   6   8
ENDBRANCH   4   6
ENDBRANCH   3   4
BRANCH   3  18
HETATM   18  C11 UNL     1      23.581   0.985  52.097  1.00  0.00     0.108 A 
HETATM   19  C12 UNL     1      22.098   0.886  52.082  1.00  0.00     0.167 A 
HETATM   20  N4  UNL     1      21.551   0.123  53.130  1.00  0.00    -0.282 NA
HETATM   21  C13 UNL     1      22.102  -0.542  54.029  1.00  0.00     0.226 A 
HETATM   22  N5  UNL     1      23.509  -0.520  54.003  1.00  0.00    -0.245 NA
HETATM   23  C14 UNL     1      24.197   0.147  53.142  1.00  0.00     0.057 A 
BRANCH  23  24
HETATM   24  C15 UNL     1      25.627  -0.063  53.324  1.00  0.00    -0.011 A 
HETATM   25  C16 UNL     1      26.409   0.577  54.262  1.00  0.00     0.015 A 
HETATM   26  C17 UNL     1      27.752   0.369  54.479  1.00  0.00     0.024 A 
HETATM   27  C18 UNL     1      28.403  -0.558  53.700  1.00  0.00     0.034 A 
HETATM   28 CL1  UNL     1      30.107  -0.891  53.900  1.00  0.00    -0.084 Cl
HETATM   29  C19 UNL     1      27.708  -1.246  52.736  1.00  0.00     0.024 A 
HETATM   30  C20 UNL     1      26.376  -0.971  52.595  1.00  0.00     0.015 A 
ENDBRANCH  23  24
ENDBRANCH   3  18
TORSDOF 8
ENDMDL
MODEL 4
REMARK VINA RESULT:      -7.3      3.835      7.153
REMARK  8 active torsions:
REMARK  status: ('A' for Active; 'I' for Inactive)
REMARK    1  A    between atoms: C3_3  and  N1_4 
REMARK    2  A    between atoms: C3_3  and  C11_16 
REMARK    3  A    between atoms: N1_4  and  C4_5 
REMARK    4  A    between atoms: C4_5  and  N2_7 
REMARK    5  A    between atoms: N2_7  and  C5_8 
REMARK    6  A    between atoms: C5_8  and  C6_9 
REMARK    7  A    between atoms: C6_9  and  N3_10 
REMARK    8  A    between atoms: C14_21  and  C15_22 
ROOT
HETATM    1  C1  UNL     1      22.360   2.148  48.043  1.00  0.00     0.038 C 
HETATM    2  C2  UNL     1      23.469   2.949  48.581  1.00  0.00    -0.005 C 
HETATM    3  C3  UNL     1      23.534   3.784  49.640  1.00  0.00     0.019 C 
ENDROOT
BRANCH   3   4
HETATM    4  N1  UNL     1      22.170   3.547  49.956  1.00  0.00    -0.337 N 
HETATM    5  H5  UNL     1      21.514   2.892  49.506  1.00  0.00     0.168 HD
BRANCH   4   6
HETATM    6  C4  UNL     1      21.697   4.336  51.063  1.00  0.00     0.172 C 
HETATM    7  S1  UNL     1      21.567   5.953  51.071  1.00  0.00    -0.041 SA
BRANCH   6   8
HETATM    8  N2  UNL     1      21.296   3.710  52.276  1.00  0.00    -0.365 N 
HETATM    9  H6  UNL     1      21.336   4.280  53.170  1.00  0.00     0.161 HD
BRANCH   8  10
HETATM   10  C5  UNL     1      20.829   2.342  52.417  1.00  0.00     0.152 C 
BRANCH  10  11
HETATM   11  C6  UNL     1      21.905   1.407  52.853  1.00  0.00     0.292 C 
BRANCH  11  12
HETATM   12  N3  UNL     1      21.588   0.037  52.611  1.00  0.00     0.094 N 
HETATM   13  C7  UNL     1      20.287  -0.295  53.162  1.00  0.00     0.298 C 
HETATM   14  C8  UNL     1      20.343  -1.503  54.066  1.00  0.00     0.198 C 
HETATM   15  O1  UNL     1      21.298  -1.425  55.051  1.00  0.00    -0.388 OA
HETATM   16  C9  UNL     1      22.508  -0.948  54.609  1.00  0.00     0.198 C 
HETATM   17  C10 UNL     1      22.537  -0.921  53.084  1.00  0.00     0.298 C 
ENDBRANCH  11  12
ENDBRANCH  10  11
ENDBRANCH   8  10
ENDBRANCH   6   8
ENDBRANCH   4   6
ENDBRANCH   3   4
BRANCH   3  18
HETATM   18  C11 UNL     1      24.715   4.590  50.150  1.00  0.00     0.108 A 
HETATM   19  C12 UNL     1      25.038   5.672  49.184  1.00  0.00     0.167 A 
HETATM   20  N4  UNL     1      26.315   5.575  48.601  1.00  0.00    -0.282 NA
HETATM   21  C13 UNL     1      27.248   4.775  48.810  1.00  0.00     0.226 A 
HETATM   22  N5  UNL     1      26.981   3.795  49.784  1.00  0.00    -0.245 NA
HETATM   23  C14 UNL     1      25.858   3.696  50.407  1.00  0.00     0.057 A 
BRANCH  23  24
HETATM   24  C15 UNL     1      25.889   2.625  51.395  1.00  0.00    -0.011 A 
HETATM   25  C16 UNL     1      26.514   1.408  51.224  1.00  0.00     0.015 A 
HETATM   26  C17 UNL     1      26.590   0.396  52.153  1.00  0.00     0.024 A 
HETATM   27  C18 UNL     1      25.994   0.588  53.378  1.00  0.00     0.034 A 
HETATM   28 CL1  UNL     1      26.038  -0.638  54.622  1.00  0.00    -0.084 Cl
HETATM   29  C19 UNL     1      25.346   1.769  53.641  1.00  0.00     0.024 A 
HETATM   30  C20 UNL     1      25.323   2.716  52.655  1.00  0.00     0.015 A 
ENDBRANCH  23  24
ENDBRANCH   3  18
TORSDOF 8
ENDMDL
MODEL 5
REMARK VINA RESULT:      -7.3      4.962      7.314
REMARK  8 active torsions:
REMARK  status: ('A' for Active; 'I' for Inactive)
REMARK    1  A    between atoms: C3_3  and  N1_4 
REMARK    2  A    between atoms: C3_3  and  C11_16 
REMARK    3  A    between atoms: N1_4  and  C4_5 
REMARK    4  A    between atoms: C4_5  and  N2_7 
REMARK    5  A    between atoms: N2_7  and  C5_8 
REMARK    6  A    between atoms: C5_8  and  C6_9 
REMARK    7  A    between atoms: C6_9  and  N3_10 
REMARK    8  A    between atoms: C14_21  and  C15_22 
ROOT
HETATM    1  C1  UNL     1      23.972   3.791  52.828  1.00  0.00     0.038 C 
HETATM    2  C2  UNL     1      23.763   2.358  53.078  1.00  0.00    -0.005 C 
HETATM    3  C3  UNL     1      23.428   1.347  52.247  1.00  0.00     0.019 C 
ENDROOT
BRANCH   3   4
HETATM    4  N1  UNL     1      23.378   2.230  51.136  1.00  0.00    -0.337 N 
HETATM    5  H5  UNL     1      24.127   2.830  50.762  1.00  0.00     0.168 HD
BRANCH   4   6
HETATM    6  C4  UNL     1      22.100   2.239  50.474  1.00  0.00     0.172 C 
HETATM    7  S1  UNL     1      21.587   1.122  49.415  1.00  0.00    -0.041 SA
BRANCH   6   8
HETATM    8  N2  UNL     1      21.166   3.284  50.723  1.00  0.00    -0.365 N 
HETATM    9  H6  UNL     1      21.179   4.128  50.080  1.00  0.00     0.161 HD
BRANCH   8  10
HETATM   10  C5  UNL     1      20.178   3.312  51.787  1.00  0.00     0.152 C 
BRANCH  10  11
HETATM   11  C6  UNL     1      18.789   3.500  51.280  1.00  0.00     0.292 C 
BRANCH  11  12
HETATM   12  N3  UNL     1      17.897   2.467  51.694  1.00  0.00     0.094 N 
HETATM   13  C7  UNL     1      18.617   1.226  51.915  1.00  0.00     0.298 C 
HETATM   14  C8  UNL     1      18.011   0.072  51.153  1.00  0.00     0.198 C 
HETATM   15  O1  UNL     1      17.834   0.314  49.812  1.00  0.00    -0.388 OA
HETATM   16  C9  UNL     1      17.312   1.555  49.541  1.00  0.00     0.198 C 
HETATM   17  C10 UNL     1      16.796   2.200  50.823  1.00  0.00     0.298 C 
ENDBRANCH  11  12
ENDBRANCH  10  11
ENDBRANCH   8  10
ENDBRANCH   6   8
ENDBRANCH   4   6
ENDBRANCH   3   4
BRANCH   3  18
HETATM   18  C11 UNL     1      23.223  -0.123  52.565  1.00  0.00     0.108 A 
HETATM   19  C12 UNL     1      21.785  -0.383  52.832  1.00  0.00     0.167 A 
HETATM   20  N4  UNL     1      21.502  -0.833  54.135  1.00  0.00    -0.282 NA
HETATM   21  C13 UNL     1      22.261  -1.117  55.082  1.00  0.00     0.226 A 
HETATM   22  N5  UNL     1      23.632  -0.951  54.812  1.00  0.00    -0.245 NA
HETATM   23  C14 UNL     1      24.091  -0.517  53.689  1.00  0.00     0.057 A 
BRANCH  23  24
HETATM   24  C15 UNL     1      25.548  -0.502  53.679  1.00  0.00    -0.011 A 
HETATM   25  C16 UNL     1      26.340   0.191  54.570  1.00  0.00     0.015 A 
HETATM   26  C17 UNL     1      27.715   0.192  54.605  1.00  0.00     0.024 A 
HETATM   27  C18 UNL     1      28.393  -0.561  53.674  1.00  0.00     0.034 A 
HETATM   28 CL1  UNL     1      30.138  -0.623  53.639  1.00  0.00    -0.084 Cl
HETATM   29  C19 UNL     1      27.690  -1.285  52.743  1.00  0.00     0.024 A 
HETATM   30  C20 UNL     1      26.325  -1.224  52.788  1.00  0.00     0.015 A 
ENDBRANCH  23  24
ENDBRANCH   3  18
TORSDOF 8
ENDMDL
MODEL 6
REMARK VINA RESULT:      -7.3      3.756      7.477
REMARK  8 active torsions:
REMARK  status: ('A' for Active; 'I' for Inactive)
REMARK    1  A    between atoms: C3_3  and  N1_4 
REMARK    2  A    between atoms: C3_3  and  C11_16 
REMARK    3  A    between atoms: N1_4  and  C4_5 
REMARK    4  A    between atoms: C4_5  and  N2_7 
REMARK    5  A    between atoms: N2_7  and  C5_8 
REMARK    6  A    between atoms: C5_8  and  C6_9 
REMARK    7  A    between atoms: C6_9  and  N3_10 
REMARK    8  A    between atoms: C14_21  and  C15_22 
ROOT
HETATM    1  C1  UNL     1      22.395   1.801  48.448  1.00  0.00     0.038 C 
HETATM    2  C2  UNL     1      22.539   3.106  49.110  1.00  0.00    -0.005 C 
HETATM    3  C3  UNL     1      23.066   3.446  50.306  1.00  0.00     0.019 C 
ENDROOT
BRANCH   3   4
HETATM    4  N1  UNL     1      23.383   2.091  50.591  1.00  0.00    -0.337 N 
HETATM    5  H5  UNL     1      23.848   1.402  49.983  1.00  0.00     0.168 HD
BRANCH   4   6
HETATM    6  C4  UNL     1      22.997   1.684  51.917  1.00  0.00     0.172 C 
HETATM    7  S1  UNL     1      21.575   1.013  52.313  1.00  0.00    -0.041 SA
BRANCH   6   8
HETATM    8  N2  UNL     1      23.889   1.857  53.012  1.00  0.00    -0.365 N 
HETATM    9  H6  UNL     1      23.616   1.442  53.949  1.00  0.00     0.161 HD
BRANCH   8  10
HETATM   10  C5  UNL     1      25.161   2.559  52.976  1.00  0.00     0.152 C 
BRANCH  10  11
HETATM   11  C6  UNL     1      26.212   1.888  53.792  1.00  0.00     0.292 C 
BRANCH  11  12
HETATM   12  N3  UNL     1      27.240   1.293  53.001  1.00  0.00     0.094 N 
HETATM   13  C7  UNL     1      26.942  -0.103  52.739  1.00  0.00     0.298 C 
HETATM   14  C8  UNL     1      28.089  -1.010  53.118  1.00  0.00     0.198 C 
HETATM   15  O1  UNL     1      28.549  -0.831  54.399  1.00  0.00    -0.388 OA
HETATM   16  C9  UNL     1      28.683   0.489  54.756  1.00  0.00     0.198 C 
HETATM   17  C10 UNL     1      28.567   1.381  53.524  1.00  0.00     0.298 C 
ENDBRANCH  11  12
ENDBRANCH  10  11
ENDBRANCH   8  10
ENDBRANCH   6   8
ENDBRANCH   4   6
ENDBRANCH   3   4
BRANCH   3  18
HETATM   18  C11 UNL     1      23.186   4.819  50.941  1.00  0.00     0.108 A 
HETATM   19  C12 UNL     1      21.850   5.278  51.401  1.00  0.00     0.167 A 
HETATM   20  N4  UNL     1      21.377   6.440  50.763  1.00  0.00    -0.282 NA
HETATM   21  C13 UNL     1      21.920   7.189  49.928  1.00  0.00     0.226 A 
HETATM   22  N5  UNL     1      23.220   6.808  49.547  1.00  0.00    -0.245 NA
HETATM   23  C14 UNL     1      23.815   5.756  49.993  1.00  0.00     0.057 A 
BRANCH  23  24
HETATM   24  C15 UNL     1      25.169   5.646  49.467  1.00  0.00    -0.011 A 
HETATM   25  C16 UNL     1      25.898   6.686  48.932  1.00  0.00     0.015 A 
HETATM   26  C17 UNL     1      27.190   6.617  48.463  1.00  0.00     0.024 A 
HETATM   27  C18 UNL     1      27.842   5.407  48.520  1.00  0.00     0.034 A 
HETATM   28 CL1  UNL     1      29.482   5.220  47.950  1.00  0.00    -0.084 Cl
HETATM   29  C19 UNL     1      27.196   4.311  49.036  1.00  0.00     0.024 A 
HETATM   30  C20 UNL     1      25.913   4.478  49.478  1.00  0.00     0.015 A 
ENDBRANCH  23  24
ENDBRANCH   3  18
TORSDOF 8
ENDMDL
MODEL 7
REMARK VINA RESULT:      -7.2      3.106      4.515
REMARK  8 active torsions:
REMARK  status: ('A' for Active; 'I' for Inactive)
REMARK    1  A    between atoms: C3_3  and  N1_4 
REMARK    2  A    between atoms: C3_3  and  C11_16 
REMARK    3  A    between atoms: N1_4  and  C4_5 
REMARK    4  A    between atoms: C4_5  and  N2_7 
REMARK    5  A    between atoms: N2_7  and  C5_8 
REMARK    6  A    between atoms: C5_8  and  C6_9 
REMARK    7  A    between atoms: C6_9  and  N3_10 
REMARK    8  A    between atoms: C14_21  and  C15_22 
ROOT
HETATM    1  C1  UNL     1      27.814   4.771  48.709  1.00  0.00     0.038 C 
HETATM    2  C2  UNL     1      26.787   3.792  49.093  1.00  0.00    -0.005 C 
HETATM    3  C3  UNL     1      25.720   3.893  49.914  1.00  0.00     0.019 C 
ENDROOT
BRANCH   3   4
HETATM    4  N1  UNL     1      26.026   5.250  50.201  1.00  0.00    -0.337 N 
HETATM    5  H5  UNL     1      26.906   5.644  50.566  1.00  0.00     0.168 HD
BRANCH   4   6
HETATM    6  C4  UNL     1      24.941   6.151  49.913  1.00  0.00     0.172 C 
HETATM    7  S1  UNL     1      24.055   6.933  51.024  1.00  0.00    -0.041 SA
BRANCH   6   8
HETATM    8  N2  UNL     1      24.565   6.420  48.567  1.00  0.00    -0.365 N 
HETATM    9  H6  UNL     1      24.092   5.647  48.017  1.00  0.00     0.161 HD
BRANCH   8  10
HETATM   10  C5  UNL     1      24.768   7.671  47.857  1.00  0.00     0.152 C 
BRANCH  10  11
HETATM   11  C6  UNL     1      26.202   7.929  47.542  1.00  0.00     0.292 C 
BRANCH  11  12
HETATM   12  N3  UNL     1      26.598   9.275  47.799  1.00  0.00     0.094 N 
HETATM   13  C7  UNL     1      28.016   9.450  47.543  1.00  0.00     0.298 C 
HETATM   14  C8  UNL     1      28.735  10.067  48.719  1.00  0.00     0.198 C 
HETATM   15  O1  UNL     1      28.519   9.422  49.913  1.00  0.00    -0.388 OA
HETATM   16  C9  UNL     1      27.206   9.078  50.123  1.00  0.00     0.198 C 
HETATM   17  C10 UNL     1      26.310   9.777  49.105  1.00  0.00     0.298 C 
ENDBRANCH  11  12
ENDBRANCH  10  11
ENDBRANCH   8  10
ENDBRANCH   6   8
ENDBRANCH   4   6
ENDBRANCH   3   4
BRANCH   3  18
HETATM   18  C11 UNL     1      24.689   2.841  50.276  1.00  0.00     0.108 A 
HETATM   19  C12 UNL     1      23.323   3.377  50.043  1.00  0.00     0.167 A 
HETATM   20  N4  UNL     1      22.527   3.477  51.199  1.00  0.00    -0.282 NA
HETATM   21  C13 UNL     1      22.750   3.127  52.375  1.00  0.00     0.226 A 
HETATM   22  N5  UNL     1      24.012   2.544  52.590  1.00  0.00    -0.245 NA
HETATM   23  C14 UNL     1      24.896   2.394  51.665  1.00  0.00     0.057 A 
BRANCH  23  24
HETATM   24  C15 UNL     1      26.082   1.711  52.166  1.00  0.00    -0.011 A 
HETATM   25  C16 UNL     1      27.150   2.327  52.783  1.00  0.00     0.015 A 
HETATM   26  C17 UNL     1      28.262   1.703  53.298  1.00  0.00     0.024 A 
HETATM   27  C18 UNL     1      28.345   0.333  53.201  1.00  0.00     0.034 A 
HETATM   28 CL1  UNL     1      29.718  -0.549  53.825  1.00  0.00    -0.084 Cl
HETATM   29  C19 UNL     1      27.330  -0.369  52.601  1.00  0.00     0.024 A 
HETATM   30  C20 UNL     1      26.264   0.339  52.120  1.00  0.00     0.015 A 
ENDBRANCH  23  24
ENDBRANCH   3  18
TORSDOF 8
ENDMDL
MODEL 8
REMARK VINA RESULT:      -7.1      3.982      5.740
REMARK  8 active torsions:
REMARK  status: ('A' for Active; 'I' for Inactive)
REMARK    1  A    between atoms: C3_3  and  N1_4 
REMARK    2  A    between atoms: C3_3  and  C11_16 
REMARK    3  A    between atoms: N1_4  and  C4_5 
REMARK    4  A    between atoms: C4_5  and  N2_7 
REMARK    5  A    between atoms: N2_7  and  C5_8 
REMARK    6  A    between atoms: C5_8  and  C6_9 
REMARK    7  A    between atoms: C6_9  and  N3_10 
REMARK    8  A    between atoms: C14_21  and  C15_22 
ROOT
HETATM    1  C1  UNL     1      22.818   4.711  52.747  1.00  0.00     0.038 C 
HETATM    2  C2  UNL     1      22.559   3.267  52.647  1.00  0.00    -0.005 C 
HETATM    3  C3  UNL     1      23.393   2.223  52.451  1.00  0.00     0.019 C 
ENDROOT
BRANCH   3   4
HETATM    4  N1  UNL     1      24.518   3.088  52.393  1.00  0.00    -0.337 N 
HETATM    5  H5  UNL     1      24.831   3.778  53.091  1.00  0.00     0.168 HD
BRANCH   4   6
HETATM    6  C4  UNL     1      25.296   2.929  51.192  1.00  0.00     0.172 C 
HETATM    7  S1  UNL     1      26.847   2.456  51.138  1.00  0.00    -0.041 SA
BRANCH   6   8
HETATM    8  N2  UNL     1      24.719   3.193  49.919  1.00  0.00    -0.365 N 
HETATM    9  H6  UNL     1      24.358   2.370  49.354  1.00  0.00     0.161 HD
BRANCH   8  10
HETATM   10  C5  UNL     1      24.571   4.499  49.302  1.00  0.00     0.152 C 
BRANCH  10  11
HETATM   11  C6  UNL     1      23.154   4.822  48.969  1.00  0.00     0.292 C 
BRANCH  11  12
HETATM   12  N3  UNL     1      22.358   3.664  48.725  1.00  0.00     0.094 N 
HETATM   13  C7  UNL     1      22.096   3.511  47.305  1.00  0.00     0.298 C 
HETATM   14  C8  UNL     1      20.623   3.361  47.011  1.00  0.00     0.198 C 
HETATM   15  O1  UNL     1      19.836   4.345  47.560  1.00  0.00    -0.388 OA
HETATM   16  C9  UNL     1      20.162   4.649  48.859  1.00  0.00     0.198 C 
HETATM   17  C10 UNL     1      21.113   3.598  49.423  1.00  0.00     0.298 C 
ENDBRANCH  11  12
ENDBRANCH  10  11
ENDBRANCH   8  10
ENDBRANCH   6   8
ENDBRANCH   4   6
ENDBRANCH   3   4
BRANCH   3  18
HETATM   18  C11 UNL     1      23.066   0.744  52.354  1.00  0.00     0.108 A 
HETATM   19  C12 UNL     1      21.596   0.549  52.444  1.00  0.00     0.167 A 
HETATM   20  N4  UNL     1      21.170  -0.196  53.560  1.00  0.00    -0.282 NA
HETATM   21  C13 UNL     1      21.823  -0.779  54.448  1.00  0.00     0.226 A 
HETATM   22  N5  UNL     1      23.220  -0.667  54.325  1.00  0.00    -0.245 NA
HETATM   23  C14 UNL     1      23.804   0.000  53.391  1.00  0.00     0.057 A 
BRANCH  23  24
HETATM   24  C15 UNL     1      25.254  -0.108  53.485  1.00  0.00    -0.011 A 
HETATM   25  C16 UNL     1      26.036   0.523  54.429  1.00  0.00     0.015 A 
HETATM   26  C17 UNL     1      27.401   0.408  54.562  1.00  0.00     0.024 A 
HETATM   27  C18 UNL     1      28.076  -0.406  53.682  1.00  0.00     0.034 A 
HETATM   28 CL1  UNL     1      29.809  -0.615  53.772  1.00  0.00    -0.084 Cl
HETATM   29  C19 UNL     1      27.382  -1.074  52.705  1.00  0.00     0.024 A 
HETATM   30  C20 UNL     1      26.028  -0.898  52.652  1.00  0.00     0.015 A 
ENDBRANCH  23  24
ENDBRANCH   3  18
TORSDOF 8
ENDMDL
MODEL 9
REMARK VINA RESULT:      -6.8      3.955      6.041
REMARK  8 active torsions:
REMARK  status: ('A' for Active; 'I' for Inactive)
REMARK    1  A    between atoms: C3_3  and  N1_4 
REMARK    2  A    between atoms: C3_3  and  C11_16 
REMARK    3  A    between atoms: N1_4  and  C4_5 
REMARK    4  A    between atoms: C4_5  and  N2_7 
REMARK    5  A    between atoms: N2_7  and  C5_8 
REMARK    6  A    between atoms: C5_8  and  C6_9 
REMARK    7  A    between atoms: C6_9  and  N3_10 
REMARK    8  A    between atoms: C14_21  and  C15_22 
ROOT
HETATM    1  C1  UNL     1      21.994  -1.090  53.903  1.00  0.00     0.038 C 
HETATM    2  C2  UNL     1      22.792   0.145  53.915  1.00  0.00    -0.005 C 
HETATM    3  C3  UNL     1      23.176   0.968  52.917  1.00  0.00     0.019 C 
ENDROOT
BRANCH   3   4
HETATM    4  N1  UNL     1      22.514   0.164  51.952  1.00  0.00    -0.337 N 
HETATM    5  H5  UNL     1      22.570  -0.857  51.823  1.00  0.00     0.168 HD
BRANCH   4   6
HETATM    6  C4  UNL     1      21.656   0.917  51.075  1.00  0.00     0.172 C 
HETATM    7  S1  UNL     1      20.099   1.268  51.364  1.00  0.00    -0.041 SA
BRANCH   6   8
HETATM    8  N2  UNL     1      22.151   1.421  49.840  1.00  0.00    -0.365 N 
HETATM    9  H6  UNL     1      23.051   1.984  49.855  1.00  0.00     0.161 HD
BRANCH   8  10
HETATM   10  C5  UNL     1      21.538   1.240  48.536  1.00  0.00     0.152 C 
BRANCH  10  11
HETATM   11  C6  UNL     1      21.011   2.512  47.965  1.00  0.00     0.292 C 
BRANCH  11  12
HETATM   12  N3  UNL     1      21.579   3.673  48.566  1.00  0.00     0.094 N 
HETATM   13  C7  UNL     1      20.539   4.596  48.985  1.00  0.00     0.298 C 
HETATM   14  C8  UNL     1      20.761   5.988  48.444  1.00  0.00     0.198 C 
HETATM   15  O1  UNL     1      20.956   6.039  47.085  1.00  0.00    -0.388 OA
HETATM   16  C9  UNL     1      21.805   5.068  46.613  1.00  0.00     0.198 C 
HETATM   17  C10 UNL     1      22.527   4.392  47.775  1.00  0.00     0.298 C 
ENDBRANCH  11  12
ENDBRANCH  10  11
ENDBRANCH   8  10
ENDBRANCH   6   8
ENDBRANCH   4   6
ENDBRANCH   3   4
BRANCH   3  18
HETATM   18  C11 UNL     1      24.007   2.236  52.989  1.00  0.00     0.108 A 
HETATM   19  C12 UNL     1      23.214   3.385  52.481  1.00  0.00     0.167 A 
HETATM   20  N4  UNL     1      23.742   3.999  51.330  1.00  0.00    -0.282 NA
HETATM   21  C13 UNL     1      24.800   3.786  50.705  1.00  0.00     0.226 A 
HETATM   22  N5  UNL     1      25.598   2.751  51.227  1.00  0.00    -0.245 NA
HETATM   23  C14 UNL     1      25.272   2.048  52.256  1.00  0.00     0.057 A 
BRANCH  23  24
HETATM   24  C15 UNL     1      26.314   1.090  52.599  1.00  0.00    -0.011 A 
HETATM   25  C16 UNL     1      26.238  -0.272  52.396  1.00  0.00     0.015 A 
HETATM   26  C17 UNL     1      27.221  -1.192  52.676  1.00  0.00     0.024 A 
HETATM   27  C18 UNL     1      28.405  -0.740  53.211  1.00  0.00     0.034 A 
HETATM   28 CL1  UNL     1      29.712  -1.832  53.600  1.00  0.00    -0.084 Cl
HETATM   29  C19 UNL     1      28.575   0.601  53.451  1.00  0.00     0.024 A 
HETATM   30  C20 UNL     1      27.541   1.439  53.139  1.00  0.00     0.015 A 
ENDBRANCH  23  24
ENDBRANCH   3  18
TORSDOF 8
ENDMDL
