MODEL 1
REMARK VINA RESULT:      -7.4      0.000      0.000
REMARK  6 active torsions:
REMARK  status: ('A' for Active; 'I' for Inactive)
REMARK    1  A    between atoms: C6_8  and  N3_9 
REMARK    2  A    between atoms: N3_9  and  C7_10 
REMARK    3  A    between atoms: C7_10  and  C8_11 
REMARK    4  A    between atoms: C9_12  and  O1_13 
REMARK    5  A    between atoms: C9_12  and  C10_14 
REMARK    6  A    between atoms: C10_14  and  C11_15 
ROOT
HETATM    1  C1  UNL     1      18.596  -0.519  52.566  1.00  0.00     0.049 C 
HETATM    2  C2  UNL     1      20.046  -0.481  52.891  1.00  0.00    -0.054 A 
HETATM    3  C3  UNL     1      20.554  -1.070  54.028  1.00  0.00     0.039 A 
HETATM    4  C4  UNL     1      21.915  -1.018  54.304  1.00  0.00     0.072 A 
HETATM    5  N1  UNL     1      22.433  -1.591  55.418  1.00  0.00    -0.241 NA
HETATM    6  C5  UNL     1      23.778  -1.512  55.646  1.00  0.00     0.235 A 
HETATM    7  N2  UNL     1      24.587  -0.882  54.792  1.00  0.00    -0.224 NA
HETATM    8  C6  UNL     1      24.160  -0.290  53.673  1.00  0.00     0.137 A 
HETATM    9  C12 UNL     1      22.811  -0.384  53.468  1.00  0.00     0.039 A 
HETATM   10  C13 UNL     1      22.257   0.190  52.345  1.00  0.00     0.025 A 
HETATM   11  C14 UNL     1      20.916   0.169  52.020  1.00  0.00    -0.055 A 
HETATM   12  C15 UNL     1      20.363   0.800  50.798  1.00  0.00     0.049 C 
ENDROOT
BRANCH   8  13
HETATM   13  N3  UNL     1      25.067   0.368  52.798  1.00  0.00    -0.370 N 
HETATM   14  H6  UNL     1      25.316   0.068  51.842  1.00  0.00     0.161 HD
BRANCH  13  15
HETATM   15  C7  UNL     1      25.722   1.585  53.275  1.00  0.00     0.151 C 
BRANCH  15  16
HETATM   16  C8  UNL     1      27.172   1.413  53.107  1.00  0.00     0.024 C 
HETATM   17  C9  UNL     1      27.852   0.624  53.917  1.00  0.00     0.043 C 
BRANCH  17  18
HETATM   18  O1  UNL     1      27.452  -0.146  54.989  1.00  0.00    -0.365 OA
HETATM   19  H10 UNL     1      28.025  -0.872  55.401  1.00  0.00     0.217 HD
ENDBRANCH  17  18
BRANCH  17  20
HETATM   20  C10 UNL     1      29.314   0.394  53.819  1.00  0.00     0.095 C 
BRANCH  20  21
HETATM   21  C11 UNL     1      29.628  -1.085  53.752  1.00  0.00     0.228 C 
HETATM   22  F1  UNL     1      28.827  -1.648  52.790  1.00  0.00    -0.255 F 
ENDBRANCH  20  21
ENDBRANCH  17  20
ENDBRANCH  15  16
ENDBRANCH  13  15
ENDBRANCH   8  13
TORSDOF 6
ENDMDL
MODEL 2
REMARK VINA RESULT:      -7.0      3.561      5.894
REMARK  6 active torsions:
REMARK  status: ('A' for Active; 'I' for Inactive)
REMARK    1  A    between atoms: C6_8  and  N3_9 
REMARK    2  A    between atoms: N3_9  and  C7_10 
REMARK    3  A    between atoms: C7_10  and  C8_11 
REMARK    4  A    between atoms: C9_12  and  O1_13 
REMARK    5  A    between atoms: C9_12  and  C10_14 
REMARK    6  A    between atoms: C10_14  and  C11_15 
ROOT
HETATM    1  C1  UNL     1      28.666  -0.115  54.572  1.00  0.00     0.049 C 
HETATM    2  C2  UNL     1      27.359   0.388  54.074  1.00  0.00    -0.054 A 
HETATM    3  C3  UNL     1      26.211  -0.372  54.140  1.00  0.00     0.039 A 
HETATM    4  C4  UNL     1      25.004   0.126  53.666  1.00  0.00     0.072 A 
HETATM    5  N1  UNL     1      23.865  -0.607  53.722  1.00  0.00    -0.241 NA
HETATM    6  C5  UNL     1      22.703  -0.073  53.243  1.00  0.00     0.235 A 
HETATM    7  N2  UNL     1      22.670   1.155  52.723  1.00  0.00    -0.224 NA
HETATM    8  C6  UNL     1      23.744   1.944  52.629  1.00  0.00     0.137 A 
HETATM    9  C12 UNL     1      24.894   1.386  53.115  1.00  0.00     0.039 A 
HETATM   10  C13 UNL     1      26.066   2.109  53.070  1.00  0.00     0.025 A 
HETATM   11  C14 UNL     1      27.292   1.666  53.525  1.00  0.00    -0.055 A 
HETATM   12  C15 UNL     1      28.529   2.479  53.458  1.00  0.00     0.049 C 
ENDROOT
BRANCH   8  13
HETATM   13  N3  UNL     1      23.652   3.245  52.064  1.00  0.00    -0.370 N 
HETATM   14  H6  UNL     1      23.803   4.137  52.563  1.00  0.00     0.161 HD
BRANCH  13  15
HETATM   15  C7  UNL     1      23.311   3.358  50.647  1.00  0.00     0.151 C 
BRANCH  15  16
HETATM   16  C8  UNL     1      24.547   3.191  49.871  1.00  0.00     0.024 C 
HETATM   17  C9  UNL     1      25.546   4.042  50.011  1.00  0.00     0.043 C 
BRANCH  17  18
HETATM   18  O1  UNL     1      25.689   5.160  50.806  1.00  0.00    -0.365 OA
HETATM   19  H10 UNL     1      26.366   5.891  50.626  1.00  0.00     0.217 HD
ENDBRANCH  17  18
BRANCH  17  20
HETATM   20  C10 UNL     1      26.828   3.949  49.268  1.00  0.00     0.095 C 
BRANCH  20  21
HETATM   21  C11 UNL     1      27.170   5.268  48.609  1.00  0.00     0.228 C 
HETATM   22  F1  UNL     1      28.506   5.256  48.298  1.00  0.00    -0.255 F 
ENDBRANCH  20  21
ENDBRANCH  17  20
ENDBRANCH  15  16
ENDBRANCH  13  15
ENDBRANCH   8  13
TORSDOF 6
ENDMDL
MODEL 3
REMARK VINA RESULT:      -7.0      2.241      3.427
REMARK  6 active torsions:
REMARK  status: ('A' for Active; 'I' for Inactive)
REMARK    1  A    between atoms: C6_8  and  N3_9 
REMARK    2  A    between atoms: N3_9  and  C7_10 
REMARK    3  A    between atoms: C7_10  and  C8_11 
REMARK    4  A    between atoms: C9_12  and  O1_13 
REMARK    5  A    between atoms: C9_12  and  C10_14 
REMARK    6  A    between atoms: C10_14  and  C11_15 
ROOT
HETATM    1  C1  UNL     1      21.324  -1.609  54.512  1.00  0.00     0.049 C 
HETATM    2  C2  UNL     1      22.084  -0.514  53.853  1.00  0.00    -0.054 A 
HETATM    3  C3  UNL     1      21.494   0.336  52.943  1.00  0.00     0.039 A 
HETATM    4  C4  UNL     1      22.230   1.351  52.343  1.00  0.00     0.072 A 
HETATM    5  N1  UNL     1      21.668   2.197  51.445  1.00  0.00    -0.241 NA
HETATM    6  C5  UNL     1      22.434   3.178  50.882  1.00  0.00     0.235 A 
HETATM    7  N2  UNL     1      23.722   3.317  51.202  1.00  0.00    -0.224 NA
HETATM    8  C6  UNL     1      24.354   2.529  52.075  1.00  0.00     0.137 A 
HETATM    9  C12 UNL     1      23.566   1.555  52.624  1.00  0.00     0.039 A 
HETATM   10  C13 UNL     1      24.111   0.681  53.539  1.00  0.00     0.025 A 
HETATM   11  C14 UNL     1      23.430  -0.343  54.164  1.00  0.00    -0.055 A 
HETATM   12  C15 UNL     1      24.057  -1.260  55.145  1.00  0.00     0.049 C 
ENDROOT
BRANCH   8  13
HETATM   13  N3  UNL     1      25.729   2.723  52.377  1.00  0.00    -0.370 N 
HETATM   14  H6  UNL     1      26.107   3.278  53.161  1.00  0.00     0.161 HD
BRANCH  13  15
HETATM   15  C7  UNL     1      26.721   2.086  51.511  1.00  0.00     0.151 C 
BRANCH  15  16
HETATM   16  C8  UNL     1      27.554   1.211  52.347  1.00  0.00     0.024 C 
HETATM   17  C9  UNL     1      28.075   1.657  53.474  1.00  0.00     0.043 C 
BRANCH  17  18
HETATM   18  O1  UNL     1      27.995   2.887  54.092  1.00  0.00    -0.365 OA
HETATM   19  H10 UNL     1      28.245   3.043  55.060  1.00  0.00     0.217 HD
ENDBRANCH  17  18
BRANCH  17  20
HETATM   20  C10 UNL     1      28.926   0.842  54.376  1.00  0.00     0.095 C 
BRANCH  20  21
HETATM   21  C11 UNL     1      28.954  -0.605  53.936  1.00  0.00     0.228 C 
HETATM   22  F1  UNL     1      30.086  -0.802  53.186  1.00  0.00    -0.255 F 
ENDBRANCH  20  21
ENDBRANCH  17  20
ENDBRANCH  15  16
ENDBRANCH  13  15
ENDBRANCH   8  13
TORSDOF 6
ENDMDL
MODEL 4
REMARK VINA RESULT:      -6.9      4.401      5.776
REMARK  6 active torsions:
REMARK  status: ('A' for Active; 'I' for Inactive)
REMARK    1  A    between atoms: C6_8  and  N3_9 
REMARK    2  A    between atoms: N3_9  and  C7_10 
REMARK    3  A    between atoms: C7_10  and  C8_11 
REMARK    4  A    between atoms: C9_12  and  O1_13 
REMARK    5  A    between atoms: C9_12  and  C10_14 
REMARK    6  A    between atoms: C10_14  and  C11_15 
ROOT
HETATM    1  C1  UNL     1      22.674  -0.995  54.329  1.00  0.00     0.049 C 
HETATM    2  C2  UNL     1      23.821  -0.194  53.828  1.00  0.00    -0.054 A 
HETATM    3  C3  UNL     1      25.115  -0.440  54.234  1.00  0.00     0.039 A 
HETATM    4  C4  UNL     1      26.167   0.326  53.748  1.00  0.00     0.072 A 
HETATM    5  N1  UNL     1      27.446   0.099  54.136  1.00  0.00    -0.241 NA
HETATM    6  C5  UNL     1      28.446   0.880  53.630  1.00  0.00     0.235 A 
HETATM    7  N2  UNL     1      28.185   1.859  52.762  1.00  0.00    -0.224 NA
HETATM    8  C6  UNL     1      26.956   2.151  52.327  1.00  0.00     0.137 A 
HETATM    9  C12 UNL     1      25.974   1.354  52.849  1.00  0.00     0.039 A 
HETATM   10  C13 UNL     1      24.665   1.563  52.472  1.00  0.00     0.025 A 
HETATM   11  C14 UNL     1      23.582   0.835  52.921  1.00  0.00    -0.055 A 
HETATM   12  C15 UNL     1      22.189   1.094  52.488  1.00  0.00     0.049 C 
ENDROOT
BRANCH   8  13
HETATM   13  N3  UNL     1      26.736   3.206  51.401  1.00  0.00    -0.370 N 
HETATM   14  H6  UNL     1      26.714   4.215  51.622  1.00  0.00     0.161 HD
BRANCH  13  15
HETATM   15  C7  UNL     1      26.517   2.857  49.998  1.00  0.00     0.151 C 
BRANCH  15  16
HETATM   16  C8  UNL     1      26.181   4.090  49.273  1.00  0.00     0.024 C 
HETATM   17  C9  UNL     1      27.113   4.986  49.007  1.00  0.00     0.043 C 
BRANCH  17  18
HETATM   18  O1  UNL     1      28.461   5.013  49.293  1.00  0.00    -0.365 OA
HETATM   19  H10 UNL     1      28.910   5.763  49.803  1.00  0.00     0.217 HD
ENDBRANCH  17  18
BRANCH  17  20
HETATM   20  C10 UNL     1      26.861   6.256  48.282  1.00  0.00     0.095 C 
BRANCH  20  21
HETATM   21  C11 UNL     1      25.464   6.768  48.553  1.00  0.00     0.228 C 
HETATM   22  F1  UNL     1      24.968   7.294  47.388  1.00  0.00    -0.255 F 
ENDBRANCH  20  21
ENDBRANCH  17  20
ENDBRANCH  15  16
ENDBRANCH  13  15
ENDBRANCH   8  13
TORSDOF 6
ENDMDL
MODEL 5
REMARK VINA RESULT:      -6.8      3.265      4.648
REMARK  6 active torsions:
REMARK  status: ('A' for Active; 'I' for Inactive)
REMARK    1  A    between atoms: C6_8  and  N3_9 
REMARK    2  A    between atoms: N3_9  and  C7_10 
REMARK    3  A    between atoms: C7_10  and  C8_11 
REMARK    4  A    between atoms: C9_12  and  O1_13 
REMARK    5  A    between atoms: C9_12  and  C10_14 
REMARK    6  A    between atoms: C10_14  and  C11_15 
ROOT
HETATM    1  C1  UNL     1      21.432  -1.395  53.922  1.00  0.00     0.049 C 
HETATM    2  C2  UNL     1      22.690  -0.611  53.798  1.00  0.00    -0.054 A 
HETATM    3  C3  UNL     1      23.834  -0.956  54.485  1.00  0.00     0.039 A 
HETATM    4  C4  UNL     1      24.994  -0.204  54.349  1.00  0.00     0.072 A 
HETATM    5  N1  UNL     1      26.129  -0.527  55.017  1.00  0.00    -0.241 NA
HETATM    6  C5  UNL     1      27.244   0.244  54.850  1.00  0.00     0.235 A 
HETATM    7  N2  UNL     1      27.235   1.306  54.043  1.00  0.00    -0.224 NA
HETATM    8  C6  UNL     1      26.161   1.695  53.349  1.00  0.00     0.137 A 
HETATM    9  C12 UNL     1      25.059   0.907  53.533  1.00  0.00     0.039 A 
HETATM   10  C13 UNL     1      23.892   1.213  52.868  1.00  0.00     0.025 A 
HETATM   11  C14 UNL     1      22.712   0.503  52.964  1.00  0.00    -0.055 A 
HETATM   12  C15 UNL     1      21.479   0.868  52.228  1.00  0.00     0.049 C 
ENDROOT
BRANCH   8  13
HETATM   13  N3  UNL     1      26.208   2.837  52.503  1.00  0.00    -0.370 N 
HETATM   14  H6  UNL     1      25.836   3.774  52.725  1.00  0.00     0.161 HD
BRANCH  13  15
HETATM   15  C7  UNL     1      26.837   2.696  51.191  1.00  0.00     0.151 C 
BRANCH  15  16
HETATM   16  C8  UNL     1      25.802   2.908  50.170  1.00  0.00     0.024 C 
HETATM   17  C9  UNL     1      24.980   3.937  50.252  1.00  0.00     0.043 C 
BRANCH  17  18
HETATM   18  O1  UNL     1      24.877   4.951  51.180  1.00  0.00    -0.365 OA
HETATM   19  H10 UNL     1      25.674   5.454  51.549  1.00  0.00     0.217 HD
ENDBRANCH  17  18
BRANCH  17  20
HETATM   20  C10 UNL     1      23.909   4.226  49.266  1.00  0.00     0.095 C 
BRANCH  20  21
HETATM   21  C11 UNL     1      22.752   3.264  49.425  1.00  0.00     0.228 C 
HETATM   22  F1  UNL     1      22.966   2.197  48.590  1.00  0.00    -0.255 F 
ENDBRANCH  20  21
ENDBRANCH  17  20
ENDBRANCH  15  16
ENDBRANCH  13  15
ENDBRANCH   8  13
TORSDOF 6
ENDMDL
MODEL 6
REMARK VINA RESULT:      -6.6      3.341      6.846
REMARK  6 active torsions:
REMARK  status: ('A' for Active; 'I' for Inactive)
REMARK    1  A    between atoms: C6_8  and  N3_9 
REMARK    2  A    between atoms: N3_9  and  C7_10 
REMARK    3  A    between atoms: C7_10  and  C8_11 
REMARK    4  A    between atoms: C9_12  and  O1_13 
REMARK    5  A    between atoms: C9_12  and  C10_14 
REMARK    6  A    between atoms: C10_14  and  C11_15 
ROOT
HETATM    1  C1  UNL     1      28.631   1.139  53.792  1.00  0.00     0.049 C 
HETATM    2  C2  UNL     1      27.209   0.708  53.811  1.00  0.00    -0.054 A 
HETATM    3  C3  UNL     1      26.706  -0.106  54.803  1.00  0.00     0.039 A 
HETATM    4  C4  UNL     1      25.371  -0.491  54.794  1.00  0.00     0.072 A 
HETATM    5  N1  UNL     1      24.860  -1.291  55.761  1.00  0.00    -0.241 NA
HETATM    6  C5  UNL     1      23.540  -1.643  55.707  1.00  0.00     0.235 A 
HETATM    7  N2  UNL     1      22.750  -1.212  54.722  1.00  0.00    -0.224 NA
HETATM    8  C6  UNL     1      23.173  -0.423  53.731  1.00  0.00     0.137 A 
HETATM    9  C12 UNL     1      24.495  -0.085  53.808  1.00  0.00     0.039 A 
HETATM   10  C13 UNL     1      25.043   0.726  52.838  1.00  0.00     0.025 A 
HETATM   11  C14 UNL     1      26.359   1.140  52.796  1.00  0.00    -0.055 A 
HETATM   12  C15 UNL     1      26.905   2.016  51.733  1.00  0.00     0.049 C 
ENDROOT
BRANCH   8  13
HETATM   13  N3  UNL     1      22.286   0.006  52.705  1.00  0.00    -0.370 N 
HETATM   14  H6  UNL     1      22.265  -0.344  51.734  1.00  0.00     0.161 HD
BRANCH  13  15
HETATM   15  C7  UNL     1      21.303   1.038  53.032  1.00  0.00     0.151 C 
BRANCH  15  16
HETATM   16  C8  UNL     1      19.988   0.570  52.573  1.00  0.00     0.024 C 
HETATM   17  C9  UNL     1      19.408  -0.466  53.148  1.00  0.00     0.043 C 
BRANCH  17  18
HETATM   18  O1  UNL     1      19.812  -1.280  54.185  1.00  0.00    -0.365 OA
HETATM   19  H10 UNL     1      19.354  -1.303  55.088  1.00  0.00     0.217 HD
ENDBRANCH  17  18
BRANCH  17  20
HETATM   20  C10 UNL     1      18.084  -1.004  52.748  1.00  0.00     0.095 C 
BRANCH  20  21
HETATM   21  C11 UNL     1      17.395  -0.078  51.770  1.00  0.00     0.228 C 
HETATM   22  F1  UNL     1      17.666  -0.520  50.500  1.00  0.00    -0.255 F 
ENDBRANCH  20  21
ENDBRANCH  17  20
ENDBRANCH  15  16
ENDBRANCH  13  15
ENDBRANCH   8  13
TORSDOF 6
ENDMDL
MODEL 7
REMARK VINA RESULT:      -6.5      5.379      8.073
REMARK  6 active torsions:
REMARK  status: ('A' for Active; 'I' for Inactive)
REMARK    1  A    between atoms: C6_8  and  N3_9 
REMARK    2  A    between atoms: N3_9  and  C7_10 
REMARK    3  A    between atoms: C7_10  and  C8_11 
REMARK    4  A    between atoms: C9_12  and  O1_13 
REMARK    5  A    between atoms: C9_12  and  C10_14 
REMARK    6  A    between atoms: C10_14  and  C11_15 
ROOT
HETATM    1  C1  UNL     1      29.068   7.888  46.985  1.00  0.00     0.049 C 
HETATM    2  C2  UNL     1      28.162   6.940  47.685  1.00  0.00    -0.054 A 
HETATM    3  C3  UNL     1      26.823   7.210  47.866  1.00  0.00     0.039 A 
HETATM    4  C4  UNL     1      26.001   6.303  48.524  1.00  0.00     0.072 A 
HETATM    5  N1  UNL     1      24.682   6.551  48.711  1.00  0.00    -0.241 NA
HETATM    6  C5  UNL     1      23.915   5.628  49.366  1.00  0.00     0.235 A 
HETATM    7  N2  UNL     1      24.443   4.490  49.821  1.00  0.00    -0.224 NA
HETATM    8  C6  UNL     1      25.731   4.167  49.679  1.00  0.00     0.137 A 
HETATM    9  C12 UNL     1      26.476   5.107  49.022  1.00  0.00     0.039 A 
HETATM   10  C13 UNL     1      27.820   4.881  48.818  1.00  0.00     0.025 A 
HETATM   11  C14 UNL     1      28.682   5.744  48.172  1.00  0.00    -0.055 A 
HETATM   12  C15 UNL     1      30.123   5.460  47.974  1.00  0.00     0.049 C 
ENDROOT
BRANCH   8  13
HETATM   13  N3  UNL     1      26.240   2.940  50.185  1.00  0.00    -0.370 N 
HETATM   14  H6  UNL     1      26.690   2.194  49.631  1.00  0.00     0.161 HD
BRANCH  13  15
HETATM   15  C7  UNL     1      26.127   2.688  51.621  1.00  0.00     0.151 C 
BRANCH  15  16
HETATM   16  C8  UNL     1      27.172   1.724  51.993  1.00  0.00     0.024 C 
HETATM   17  C9  UNL     1      27.858   1.878  53.110  1.00  0.00     0.043 C 
BRANCH  17  18
HETATM   18  O1  UNL     1      27.796   2.842  54.094  1.00  0.00    -0.365 OA
HETATM   19  H10 UNL     1      27.788   2.631  55.084  1.00  0.00     0.217 HD
ENDBRANCH  17  18
BRANCH  17  20
HETATM   20  C10 UNL     1      28.928   0.955  53.562  1.00  0.00     0.095 C 
BRANCH  20  21
HETATM   21  C11 UNL     1      28.517  -0.489  53.368  1.00  0.00     0.228 C 
HETATM   22  F1  UNL     1      29.608  -1.281  53.620  1.00  0.00    -0.255 F 
ENDBRANCH  20  21
ENDBRANCH  17  20
ENDBRANCH  15  16
ENDBRANCH  13  15
ENDBRANCH   8  13
TORSDOF 6
ENDMDL
MODEL 8
REMARK VINA RESULT:      -6.5      2.076      3.121
REMARK  6 active torsions:
REMARK  status: ('A' for Active; 'I' for Inactive)
REMARK    1  A    between atoms: C6_8  and  N3_9 
REMARK    2  A    between atoms: N3_9  and  C7_10 
REMARK    3  A    between atoms: C7_10  and  C8_11 
REMARK    4  A    between atoms: C9_12  and  O1_13 
REMARK    5  A    between atoms: C9_12  and  C10_14 
REMARK    6  A    between atoms: C10_14  and  C11_15 
ROOT
HETATM    1  C1  UNL     1      22.399   3.793  50.422  1.00  0.00     0.049 C 
HETATM    2  C2  UNL     1      22.792   2.684  51.331  1.00  0.00    -0.054 A 
HETATM    3  C3  UNL     1      21.858   1.887  51.955  1.00  0.00     0.039 A 
HETATM    4  C4  UNL     1      22.256   0.858  52.799  1.00  0.00     0.072 A 
HETATM    5  N1  UNL     1      21.351   0.064  53.422  1.00  0.00    -0.241 NA
HETATM    6  C5  UNL     1      21.793  -0.935  54.243  1.00  0.00     0.235 A 
HETATM    7  N2  UNL     1      23.097  -1.141  54.439  1.00  0.00    -0.224 NA
HETATM    8  C6  UNL     1      24.054  -0.407  53.866  1.00  0.00     0.137 A 
HETATM    9  C12 UNL     1      23.585   0.585  53.050  1.00  0.00     0.039 A 
HETATM   10  C13 UNL     1      24.483   1.408  52.404  1.00  0.00     0.025 A 
HETATM   11  C14 UNL     1      24.145   2.444  51.557  1.00  0.00    -0.055 A 
HETATM   12  C15 UNL     1      25.145   3.304  50.882  1.00  0.00     0.049 C 
ENDROOT
BRANCH   8  13
HETATM   13  N3  UNL     1      25.429  -0.671  54.112  1.00  0.00    -0.370 N 
HETATM   14  H6  UNL     1      25.953  -0.420  54.965  1.00  0.00     0.161 HD
BRANCH  13  15
HETATM   15  C7  UNL     1      26.193  -1.362  53.075  1.00  0.00     0.151 C 
BRANCH  15  16
HETATM   16  C8  UNL     1      27.403  -0.575  52.806  1.00  0.00     0.024 C 
HETATM   17  C9  UNL     1      28.147  -0.128  53.801  1.00  0.00     0.043 C 
BRANCH  17  18
HETATM   18  O1  UNL     1      28.017  -0.256  55.167  1.00  0.00    -0.365 OA
HETATM   19  H10 UNL     1      28.735   0.017  55.826  1.00  0.00     0.217 HD
ENDBRANCH  17  18
BRANCH  17  20
HETATM   20  C10 UNL     1      29.383   0.673  53.620  1.00  0.00     0.095 C 
BRANCH  20  21
HETATM   21  C11 UNL     1      29.168   2.107  54.051  1.00  0.00     0.228 C 
HETATM   22  F1  UNL     1      28.206   2.657  53.243  1.00  0.00    -0.255 F 
ENDBRANCH  20  21
ENDBRANCH  17  20
ENDBRANCH  15  16
ENDBRANCH  13  15
ENDBRANCH   8  13
TORSDOF 6
ENDMDL
MODEL 9
REMARK VINA RESULT:      -6.4      3.202      6.675
REMARK  6 active torsions:
REMARK  status: ('A' for Active; 'I' for Inactive)
REMARK    1  A    between atoms: C6_8  and  N3_9 
REMARK    2  A    between atoms: N3_9  and  C7_10 
REMARK    3  A    between atoms: C7_10  and  C8_11 
REMARK    4  A    between atoms: C9_12  and  O1_13 
REMARK    5  A    between atoms: C9_12  and  C10_14 
REMARK    6  A    between atoms: C10_14  and  C11_15 
ROOT
HETATM    1  C1  UNL     1      28.094  -0.154  54.216  1.00  0.00     0.049 C 
HETATM    2  C2  UNL     1      27.072   0.549  53.397  1.00  0.00    -0.054 A 
HETATM    3  C3  UNL     1      27.420   1.419  52.386  1.00  0.00     0.039 A 
HETATM    4  C4  UNL     1      26.441   2.061  51.638  1.00  0.00     0.072 A 
HETATM    5  N1  UNL     1      26.764   2.920  50.640  1.00  0.00    -0.241 NA
HETATM    6  C5  UNL     1      25.764   3.528  49.933  1.00  0.00     0.235 A 
HETATM    7  N2  UNL     1      24.481   3.290  50.209  1.00  0.00    -0.224 NA
HETATM    8  C6  UNL     1      24.076   2.460  51.174  1.00  0.00     0.137 A 
HETATM    9  C12 UNL     1      25.094   1.865  51.865  1.00  0.00     0.039 A 
HETATM   10  C13 UNL     1      24.795   0.988  52.886  1.00  0.00     0.025 A 
HETATM   11  C14 UNL     1      25.724   0.323  53.660  1.00  0.00    -0.055 A 
HETATM   12  C15 UNL     1      25.357  -0.614  54.748  1.00  0.00     0.049 C 
ENDROOT
BRANCH   8  13
HETATM   13  N3  UNL     1      22.693   2.245  51.424  1.00  0.00    -0.370 N 
HETATM   14  H6  UNL     1      22.130   2.699  52.161  1.00  0.00     0.161 HD
BRANCH  13  15
HETATM   15  C7  UNL     1      21.979   1.296  50.571  1.00  0.00     0.151 C 
BRANCH  15  16
HETATM   16  C8  UNL     1      21.453   0.225  51.428  1.00  0.00     0.024 C 
HETATM   17  C9  UNL     1      20.722   0.514  52.489  1.00  0.00     0.043 C 
BRANCH  17  18
HETATM   18  O1  UNL     1      20.309   1.721  53.011  1.00  0.00    -0.365 OA
HETATM   19  H10 UNL     1      20.145   1.876  53.998  1.00  0.00     0.217 HD
ENDBRANCH  17  18
BRANCH  17  20
HETATM   20  C10 UNL     1      20.153  -0.503  53.408  1.00  0.00     0.095 C 
BRANCH  20  21
HETATM   21  C11 UNL     1      21.243  -1.183  54.207  1.00  0.00     0.228 C 
HETATM   22  F1  UNL     1      21.964  -0.214  54.858  1.00  0.00    -0.255 F 
ENDBRANCH  20  21
ENDBRANCH  17  20
ENDBRANCH  15  16
ENDBRANCH  13  15
ENDBRANCH   8  13
TORSDOF 6
ENDMDL
