MODEL 1
REMARK VINA RESULT:      -9.2      0.000      0.000
REMARK  4 active torsions:
REMARK  status: ('A' for Active; 'I' for Inactive)
REMARK    1  A    between atoms: C4_4  and  C5_5 
REMARK    2  A    between atoms: C8_8  and  N1_9 
REMARK    3  A    between atoms: N1_9  and  C9_10 
REMARK    4  A    between atoms: C9_10  and  N2_11 
ROOT
HETATM    1  C5  UNL     1      25.736   0.022  52.452  1.00  0.00     0.044 A 
HETATM    2  C6  UNL     1      24.320   0.087  52.886  1.00  0.00    -0.015 A 
HETATM    3  C7  UNL     1      23.836   1.303  52.761  1.00  0.00     0.025 A 
HETATM    4  C8  UNL     1      24.896   2.170  52.228  1.00  0.00     0.026 A 
HETATM    5  C17 UNL     1      25.995   1.429  52.048  1.00  0.00     0.012 A 
ENDROOT
BRANCH   4   6
HETATM    6  N1  UNL     1      25.097   3.530  51.852  1.00  0.00    -0.352 N 
HETATM    7  H9  UNL     1      25.584   4.105  52.602  1.00  0.00     0.162 HD
BRANCH   6   8
HETATM    8  C9  UNL     1      24.685   4.088  50.575  1.00  0.00     0.260 A 
HETATM    9  C10 UNL     1      24.263   5.506  50.596  1.00  0.00     0.108 A 
HETATM   10  C11 UNL     1      25.455   5.803  49.823  1.00  0.00    -0.043 A 
HETATM   11  C12 UNL     1      26.230   6.763  49.195  1.00  0.00     0.008 A 
HETATM   12  C16 UNL     1      25.838   4.500  49.807  1.00  0.00     0.007 A 
HETATM   13  C13 UNL     1      27.405   6.395  48.544  1.00  0.00     0.001 A 
HETATM   14  C14 UNL     1      27.790   5.055  48.531  1.00  0.00     0.001 A 
HETATM   15  C15 UNL     1      27.010   4.085  49.166  1.00  0.00     0.012 A 
BRANCH   8  16
HETATM   16  N2  UNL     1      23.755   3.184  49.918  1.00  0.00     0.112 N 
HETATM   17  H10 UNL     1      22.990   2.877  50.561  1.00  0.00     0.316 HD
HETATM   18  H11 UNL     1      24.252   2.373  49.489  1.00  0.00     0.316 HD
ENDBRANCH   8  16
ENDBRANCH   6   8
ENDBRANCH   4   6
BRANCH   1  19
HETATM   19  C4  UNL     1      26.615  -0.402  53.599  1.00  0.00     0.042 C 
HETATM   20  C3  UNL     1      27.608   0.609  53.980  1.00  0.00    -0.011 C 
HETATM   21  C2  UNL     1      28.921   0.757  54.003  1.00  0.00    -0.065 C 
HETATM   22  C1  UNL     1      29.476   2.041  54.507  1.00  0.00     0.048 C 
HETATM   23  C21 UNL     1      29.831  -0.270  53.564  1.00  0.00     0.006 C 
HETATM   24  C20 UNL     1      29.652  -1.510  53.189  1.00  0.00     0.000 C 
HETATM   25  C19 UNL     1      28.387  -2.229  53.112  1.00  0.00    -0.003 C 
HETATM   26  C18 UNL     1      27.172  -1.735  53.286  1.00  0.00    -0.017 C 
ENDBRANCH   1  19
TORSDOF 4
ENDMDL
MODEL 2
REMARK VINA RESULT:      -9.2      2.749      6.775
REMARK  4 active torsions:
REMARK  status: ('A' for Active; 'I' for Inactive)
REMARK    1  A    between atoms: C4_4  and  C5_5 
REMARK    2  A    between atoms: C8_8  and  N1_9 
REMARK    3  A    between atoms: N1_9  and  C9_10 
REMARK    4  A    between atoms: C9_10  and  N2_11 
ROOT
HETATM    1  C5  UNL     1      22.455   2.318  52.202  1.00  0.00     0.044 A 
HETATM    2  C6  UNL     1      22.652   3.787  52.171  1.00  0.00    -0.015 A 
HETATM    3  C7  UNL     1      23.830   4.122  52.649  1.00  0.00     0.025 A 
HETATM    4  C8  UNL     1      24.533   2.895  53.048  1.00  0.00     0.026 A 
HETATM    5  C17 UNL     1      23.739   1.851  52.789  1.00  0.00     0.012 A 
ENDROOT
BRANCH   4   6
HETATM    6  N1  UNL     1      25.779   2.495  53.613  1.00  0.00    -0.352 N 
HETATM    7  H9  UNL     1      25.753   2.412  54.672  1.00  0.00     0.162 HD
BRANCH   6   8
HETATM    8  C9  UNL     1      26.974   2.223  52.830  1.00  0.00     0.260 A 
HETATM    9  C10 UNL     1      28.262   2.388  53.540  1.00  0.00     0.108 A 
HETATM   10  C11 UNL     1      28.424   0.949  53.443  1.00  0.00    -0.043 A 
HETATM   11  C12 UNL     1      29.206  -0.160  53.721  1.00  0.00     0.008 A 
HETATM   12  C16 UNL     1      27.241   0.803  52.792  1.00  0.00     0.007 A 
HETATM   13  C13 UNL     1      28.781  -1.428  53.332  1.00  0.00     0.001 A 
HETATM   14  C14 UNL     1      27.566  -1.569  52.664  1.00  0.00     0.001 A 
HETATM   15  C15 UNL     1      26.775  -0.451  52.384  1.00  0.00     0.012 A 
BRANCH   8  16
HETATM   16  N2  UNL     1      26.891   2.904  51.549  1.00  0.00     0.112 N 
HETATM   17  H10 UNL     1      27.370   2.365  50.790  1.00  0.00     0.316 HD
HETATM   18  H11 UNL     1      27.246   3.883  51.615  1.00  0.00     0.316 HD
ENDBRANCH   8  16
ENDBRANCH   6   8
ENDBRANCH   4   6
BRANCH   1  19
HETATM   19  C4  UNL     1      21.280   1.967  53.075  1.00  0.00     0.042 C 
HETATM   20  C3  UNL     1      21.386   0.640  53.693  1.00  0.00    -0.011 C 
HETATM   21  C2  UNL     1      20.763  -0.525  53.666  1.00  0.00    -0.065 C 
HETATM   22  C1  UNL     1      21.284  -1.622  54.523  1.00  0.00     0.048 C 
HETATM   23  C21 UNL     1      19.605  -0.772  52.845  1.00  0.00     0.006 C 
HETATM   24  C20 UNL     1      18.868   0.007  52.096  1.00  0.00     0.000 C 
HETATM   25  C19 UNL     1      19.042   1.437  51.882  1.00  0.00    -0.003 C 
HETATM   26  C18 UNL     1      20.042   2.195  52.299  1.00  0.00    -0.017 C 
ENDBRANCH   1  19
TORSDOF 4
ENDMDL
MODEL 3
REMARK VINA RESULT:      -9.1      2.009      4.338
REMARK  4 active torsions:
REMARK  status: ('A' for Active; 'I' for Inactive)
REMARK    1  A    between atoms: C4_4  and  C5_5 
REMARK    2  A    between atoms: C8_8  and  N1_9 
REMARK    3  A    between atoms: N1_9  and  C9_10 
REMARK    4  A    between atoms: C9_10  and  N2_11 
ROOT
HETATM    1  C5  UNL     1      24.835   0.618  53.383  1.00  0.00     0.044 A 
HETATM    2  C6  UNL     1      25.994   0.371  52.492  1.00  0.00    -0.015 A 
HETATM    3  C7  UNL     1      26.246   1.415  51.734  1.00  0.00     0.025 A 
HETATM    4  C8  UNL     1      25.267   2.464  52.052  1.00  0.00     0.026 A 
HETATM    5  C17 UNL     1      24.452   2.004  53.007  1.00  0.00     0.012 A 
ENDROOT
BRANCH   4   6
HETATM    6  N1  UNL     1      24.938   3.794  51.659  1.00  0.00    -0.352 N 
HETATM    7  H9  UNL     1      24.911   4.478  52.471  1.00  0.00     0.162 HD
BRANCH   6   8
HETATM    8  C9  UNL     1      24.664   4.189  50.287  1.00  0.00     0.260 A 
HETATM    9  C10 UNL     1      24.214   5.585  50.094  1.00  0.00     0.108 A 
HETATM   10  C11 UNL     1      25.482   5.832  49.431  1.00  0.00    -0.043 A 
HETATM   11  C12 UNL     1      26.305   6.739  48.785  1.00  0.00     0.008 A 
HETATM   12  C16 UNL     1      25.889   4.549  49.610  1.00  0.00     0.007 A 
HETATM   13  C13 UNL     1      27.554   6.338  48.317  1.00  0.00     0.001 A 
HETATM   14  C14 UNL     1      27.964   5.019  48.505  1.00  0.00     0.001 A 
HETATM   15  C15 UNL     1      27.135   4.102  49.157  1.00  0.00     0.012 A 
BRANCH   8  16
HETATM   16  N2  UNL     1      23.834   3.185  49.640  1.00  0.00     0.112 N 
HETATM   17  H10 UNL     1      23.813   3.309  48.601  1.00  0.00     0.316 HD
HETATM   18  H11 UNL     1      22.875   3.163  50.049  1.00  0.00     0.316 HD
ENDBRANCH   8  16
ENDBRANCH   6   8
ENDBRANCH   4   6
BRANCH   1  19
HETATM   19  C4  UNL     1      23.734  -0.366  53.092  1.00  0.00     0.042 C 
HETATM   20  C3  UNL     1      22.729   0.142  52.150  1.00  0.00    -0.011 C 
HETATM   21  C2  UNL     1      21.443   0.449  52.134  1.00  0.00    -0.065 C 
HETATM   22  C1  UNL     1      20.856   0.953  50.865  1.00  0.00     0.048 C 
HETATM   23  C21 UNL     1      20.594   0.316  53.290  1.00  0.00     0.006 C 
HETATM   24  C20 UNL     1      20.790  -0.193  54.479  1.00  0.00     0.000 C 
HETATM   25  C19 UNL     1      22.014  -0.803  54.980  1.00  0.00    -0.003 C 
HETATM   26  C18 UNL     1      23.191  -0.849  54.380  1.00  0.00    -0.017 C 
ENDBRANCH   1  19
TORSDOF 4
ENDMDL
MODEL 4
REMARK VINA RESULT:      -9.0      1.372      2.410
REMARK  4 active torsions:
REMARK  status: ('A' for Active; 'I' for Inactive)
REMARK    1  A    between atoms: C4_4  and  C5_5 
REMARK    2  A    between atoms: C8_8  and  N1_9 
REMARK    3  A    between atoms: N1_9  and  C9_10 
REMARK    4  A    between atoms: C9_10  and  N2_11 
ROOT
HETATM    1  C5  UNL     1      25.116   1.221  52.673  1.00  0.00     0.044 A 
HETATM    2  C6  UNL     1      25.062   2.503  53.416  1.00  0.00    -0.015 A 
HETATM    3  C7  UNL     1      24.224   3.347  52.854  1.00  0.00     0.025 A 
HETATM    4  C8  UNL     1      23.639   2.699  51.672  1.00  0.00     0.026 A 
HETATM    5  C17 UNL     1      24.154   1.469  51.567  1.00  0.00     0.012 A 
ENDROOT
BRANCH   4   6
HETATM    6  N1  UNL     1      22.709   2.982  50.631  1.00  0.00    -0.352 N 
HETATM    7  H9  UNL     1      21.695   2.866  50.929  1.00  0.00     0.162 HD
BRANCH   6   8
HETATM    8  C9  UNL     1      23.093   3.392  49.289  1.00  0.00     0.260 A 
HETATM    9  C10 UNL     1      22.728   4.774  48.907  1.00  0.00     0.108 A 
HETATM   10  C11 UNL     1      24.147   5.079  48.914  1.00  0.00    -0.043 A 
HETATM   11  C12 UNL     1      25.139   6.028  48.728  1.00  0.00     0.008 A 
HETATM   12  C16 UNL     1      24.476   3.809  49.265  1.00  0.00     0.007 A 
HETATM   13  C13 UNL     1      26.477   5.682  48.901  1.00  0.00     0.001 A 
HETATM   14  C14 UNL     1      26.806   4.376  49.260  1.00  0.00     0.001 A 
HETATM   15  C15 UNL     1      25.807   3.417  49.449  1.00  0.00     0.012 A 
BRANCH   8  16
HETATM   16  N2  UNL     1      22.705   2.370  48.330  1.00  0.00     0.112 N 
HETATM   17  H10 UNL     1      21.722   2.046  48.484  1.00  0.00     0.316 HD
HETATM   18  H11 UNL     1      23.381   1.576  48.326  1.00  0.00     0.316 HD
ENDBRANCH   8  16
ENDBRANCH   6   8
ENDBRANCH   4   6
BRANCH   1  19
HETATM   19  C4  UNL     1      26.509   0.975  52.158  1.00  0.00     0.042 C 
HETATM   20  C3  UNL     1      26.972  -0.404  52.358  1.00  0.00    -0.011 C 
HETATM   21  C2  UNL     1      27.907  -1.054  53.029  1.00  0.00    -0.065 C 
HETATM   22  C1  UNL     1      27.969  -2.533  52.895  1.00  0.00     0.048 C 
HETATM   23  C21 UNL     1      28.863  -0.390  53.878  1.00  0.00     0.006 C 
HETATM   24  C20 UNL     1      29.124   0.871  54.100  1.00  0.00     0.000 C 
HETATM   25  C19 UNL     1      28.464   2.023  53.499  1.00  0.00    -0.003 C 
HETATM   26  C18 UNL     1      27.399   2.016  52.714  1.00  0.00    -0.017 C 
ENDBRANCH   1  19
TORSDOF 4
ENDMDL
MODEL 5
REMARK VINA RESULT:      -9.0      1.753      6.544
REMARK  4 active torsions:
REMARK  status: ('A' for Active; 'I' for Inactive)
REMARK    1  A    between atoms: C4_4  and  C5_5 
REMARK    2  A    between atoms: C8_8  and  N1_9 
REMARK    3  A    between atoms: N1_9  and  C9_10 
REMARK    4  A    between atoms: C9_10  and  N2_11 
ROOT
HETATM    1  C5  UNL     1      22.728   3.390  52.729  1.00  0.00     0.044 A 
HETATM    2  C6  UNL     1      22.669   1.932  52.471  1.00  0.00    -0.015 A 
HETATM    3  C7  UNL     1      23.813   1.349  52.758  1.00  0.00     0.025 A 
HETATM    4  C8  UNL     1      24.748   2.376  53.237  1.00  0.00     0.026 A 
HETATM    5  C17 UNL     1      24.121   3.557  53.221  1.00  0.00     0.012 A 
ENDROOT
BRANCH   4   6
HETATM    6  N1  UNL     1      26.090   2.487  53.703  1.00  0.00    -0.352 N 
HETATM    7  H9  UNL     1      26.158   2.793  54.718  1.00  0.00     0.162 HD
BRANCH   6   8
HETATM    8  C9  UNL     1      27.258   2.211  52.882  1.00  0.00     0.260 A 
HETATM    9  C10 UNL     1      28.570   2.428  53.533  1.00  0.00     0.108 A 
HETATM   10  C11 UNL     1      28.759   0.990  53.481  1.00  0.00    -0.043 A 
HETATM   11  C12 UNL     1      29.576  -0.091  53.766  1.00  0.00     0.008 A 
HETATM   12  C16 UNL     1      27.555   0.796  52.884  1.00  0.00     0.007 A 
HETATM   13  C13 UNL     1      29.164  -1.382  53.441  1.00  0.00     0.001 A 
HETATM   14  C14 UNL     1      27.927  -1.572  52.829  1.00  0.00     0.001 A 
HETATM   15  C15 UNL     1      27.100  -0.482  52.541  1.00  0.00     0.012 A 
BRANCH   8  16
HETATM   16  N2  UNL     1      27.110   2.842  51.582  1.00  0.00     0.112 N 
HETATM   17  H10 UNL     1      26.393   3.605  51.599  1.00  0.00     0.316 HD
HETATM   18  H11 UNL     1      26.912   2.138  50.838  1.00  0.00     0.316 HD
ENDBRANCH   8  16
ENDBRANCH   6   8
ENDBRANCH   4   6
BRANCH   1  19
HETATM   19  C4  UNL     1      22.488   4.155  51.455  1.00  0.00     0.042 C 
HETATM   20  C3  UNL     1      22.330   3.295  50.276  1.00  0.00    -0.011 C 
HETATM   21  C2  UNL     1      22.946   3.047  49.134  1.00  0.00    -0.065 C 
HETATM   22  C1  UNL     1      22.358   2.028  48.224  1.00  0.00     0.048 C 
HETATM   23  C21 UNL     1      24.157   3.720  48.737  1.00  0.00     0.006 C 
HETATM   24  C20 UNL     1      24.828   4.715  49.256  1.00  0.00     0.000 C 
HETATM   25  C19 UNL     1      24.499   5.457  50.466  1.00  0.00    -0.003 C 
HETATM   26  C18 UNL     1      23.536   5.191  51.333  1.00  0.00    -0.017 C 
ENDBRANCH   1  19
TORSDOF 4
ENDMDL
MODEL 6
REMARK VINA RESULT:      -8.9      2.592      6.674
REMARK  4 active torsions:
REMARK  status: ('A' for Active; 'I' for Inactive)
REMARK    1  A    between atoms: C4_4  and  C5_5 
REMARK    2  A    between atoms: C8_8  and  N1_9 
REMARK    3  A    between atoms: N1_9  and  C9_10 
REMARK    4  A    between atoms: C9_10  and  N2_11 
ROOT
HETATM    1  C5  UNL     1      22.524   0.794  52.755  1.00  0.00     0.044 A 
HETATM    2  C6  UNL     1      22.997  -0.467  53.374  1.00  0.00    -0.015 A 
HETATM    3  C7  UNL     1      24.235  -0.354  53.804  1.00  0.00     0.025 A 
HETATM    4  C8  UNL     1      24.705   1.006  53.506  1.00  0.00     0.026 A 
HETATM    5  C17 UNL     1      23.715   1.671  52.900  1.00  0.00     0.012 A 
ENDROOT
BRANCH   4   6
HETATM    6  N1  UNL     1      25.871   1.809  53.668  1.00  0.00    -0.352 N 
HETATM    7  H9  UNL     1      25.806   2.486  54.485  1.00  0.00     0.162 HD
BRANCH   6   8
HETATM    8  C9  UNL     1      27.042   1.721  52.810  1.00  0.00     0.260 A 
HETATM    9  C10 UNL     1      28.281   2.326  53.344  1.00  0.00     0.108 A 
HETATM   10  C11 UNL     1      28.817   0.981  53.443  1.00  0.00    -0.043 A 
HETATM   11  C12 UNL     1      29.885   0.172  53.795  1.00  0.00     0.008 A 
HETATM   12  C16 UNL     1      27.677   0.430  52.952  1.00  0.00     0.007 A 
HETATM   13  C13 UNL     1      29.792  -1.210  53.646  1.00  0.00     0.001 A 
HETATM   14  C14 UNL     1      28.619  -1.767  53.140  1.00  0.00     0.001 A 
HETATM   15  C15 UNL     1      27.539  -0.952  52.785  1.00  0.00     0.012 A 
BRANCH   8  16
HETATM   16  N2  UNL     1      26.696   2.130  51.458  1.00  0.00     0.112 N 
HETATM   17  H10 UNL     1      25.661   2.214  51.330  1.00  0.00     0.316 HD
HETATM   18  H11 UNL     1      27.126   1.498  50.748  1.00  0.00     0.316 HD
ENDBRANCH   8  16
ENDBRANCH   6   8
ENDBRANCH   4   6
BRANCH   1  19
HETATM   19  C4  UNL     1      22.170   0.566  51.309  1.00  0.00     0.042 C 
HETATM   20  C3  UNL     1      22.685   1.605  50.409  1.00  0.00    -0.011 C 
HETATM   21  C2  UNL     1      22.222   2.542  49.601  1.00  0.00    -0.065 C 
HETATM   22  C1  UNL     1      23.201   3.386  48.868  1.00  0.00     0.048 C 
HETATM   23  C21 UNL     1      20.814   2.776  49.403  1.00  0.00     0.006 C 
HETATM   24  C20 UNL     1      19.745   2.141  49.807  1.00  0.00     0.000 C 
HETATM   25  C19 UNL     1      19.698   0.938  50.628  1.00  0.00    -0.003 C 
HETATM   26  C18 UNL     1      20.713   0.332  51.220  1.00  0.00    -0.017 C 
ENDBRANCH   1  19
TORSDOF 4
ENDMDL
MODEL 7
REMARK VINA RESULT:      -8.7      2.291      4.888
REMARK  4 active torsions:
REMARK  status: ('A' for Active; 'I' for Inactive)
REMARK    1  A    between atoms: C4_4  and  C5_5 
REMARK    2  A    between atoms: C8_8  and  N1_9 
REMARK    3  A    between atoms: N1_9  and  C9_10 
REMARK    4  A    between atoms: C9_10  and  N2_11 
ROOT
HETATM    1  C5  UNL     1      24.861   0.705  53.192  1.00  0.00     0.044 A 
HETATM    2  C6  UNL     1      25.994  -0.045  52.601  1.00  0.00    -0.015 A 
HETATM    3  C7  UNL     1      26.767   0.742  51.885  1.00  0.00     0.025 A 
HETATM    4  C8  UNL     1      26.213   2.102  51.933  1.00  0.00     0.026 A 
HETATM    5  C17 UNL     1      25.110   2.082  52.690  1.00  0.00     0.012 A 
ENDROOT
BRANCH   4   6
HETATM    6  N1  UNL     1      26.493   3.405  51.427  1.00  0.00    -0.352 N 
HETATM    7  H9  UNL     1      27.100   3.986  52.078  1.00  0.00     0.162 HD
BRANCH   6   8
HETATM    8  C9  UNL     1      26.005   3.902  50.151  1.00  0.00     0.260 A 
HETATM    9  C10 UNL     1      25.175   2.960  49.366  1.00  0.00     0.108 A 
HETATM   10  C11 UNL     1      24.051   3.842  49.622  1.00  0.00    -0.043 A 
HETATM   11  C12 UNL     1      22.703   4.098  49.439  1.00  0.00     0.008 A 
HETATM   12  C16 UNL     1      24.817   4.703  50.341  1.00  0.00     0.007 A 
HETATM   13  C13 UNL     1      22.128   5.239  49.992  1.00  0.00     0.001 A 
HETATM   14  C14 UNL     1      22.921   6.118  50.728  1.00  0.00     0.001 A 
HETATM   15  C15 UNL     1      24.282   5.861  50.915  1.00  0.00     0.012 A 
BRANCH   8  16
HETATM   16  N2  UNL     1      27.094   4.518  49.411  1.00  0.00     0.112 N 
HETATM   17  H10 UNL     1      27.212   5.527  49.662  1.00  0.00     0.316 HD
HETATM   18  H11 UNL     1      26.980   4.383  48.383  1.00  0.00     0.316 HD
ENDBRANCH   8  16
ENDBRANCH   6   8
ENDBRANCH   4   6
BRANCH   1  19
HETATM   19  C4  UNL     1      23.552   0.155  52.691  1.00  0.00     0.042 C 
HETATM   20  C3  UNL     1      22.535   1.188  52.456  1.00  0.00    -0.011 C 
HETATM   21  C2  UNL     1      21.351   1.545  52.923  1.00  0.00    -0.065 C 
HETATM   22  C1  UNL     1      20.686   2.730  52.321  1.00  0.00     0.048 C 
HETATM   23  C21 UNL     1      20.684   0.836  53.985  1.00  0.00     0.006 C 
HETATM   24  C20 UNL     1      20.957  -0.277  54.615  1.00  0.00     0.000 C 
HETATM   25  C19 UNL     1      22.097  -1.156  54.388  1.00  0.00    -0.003 C 
HETATM   26  C18 UNL     1      23.132  -0.937  53.594  1.00  0.00    -0.017 C 
ENDBRANCH   1  19
TORSDOF 4
ENDMDL
MODEL 8
REMARK VINA RESULT:      -8.5      3.384      4.554
REMARK  4 active torsions:
REMARK  status: ('A' for Active; 'I' for Inactive)
REMARK    1  A    between atoms: C4_4  and  C5_5 
REMARK    2  A    between atoms: C8_8  and  N1_9 
REMARK    3  A    between atoms: N1_9  and  C9_10 
REMARK    4  A    between atoms: C9_10  and  N2_11 
ROOT
HETATM    1  C5  UNL     1      23.300  -1.041  53.963  1.00  0.00     0.044 A 
HETATM    2  C6  UNL     1      22.275  -0.601  54.939  1.00  0.00    -0.015 A 
HETATM    3  C7  UNL     1      21.195  -0.158  54.332  1.00  0.00     0.025 A 
HETATM    4  C8  UNL     1      21.405  -0.263  52.881  1.00  0.00     0.026 A 
HETATM    5  C17 UNL     1      22.622  -0.774  52.667  1.00  0.00     0.012 A 
ENDROOT
BRANCH   4   6
HETATM    6  N1  UNL     1      20.715   0.010  51.665  1.00  0.00    -0.352 N 
HETATM    7  H9  UNL     1      20.409  -0.868  51.150  1.00  0.00     0.162 HD
BRANCH   6   8
HETATM    8  C9  UNL     1      20.448   1.350  51.167  1.00  0.00     0.260 A 
HETATM    9  C10 UNL     1      21.222   2.440  51.800  1.00  0.00     0.108 A 
HETATM   10  C11 UNL     1      21.910   2.599  50.532  1.00  0.00    -0.043 A 
HETATM   11  C12 UNL     1      22.870   3.279  49.801  1.00  0.00     0.008 A 
HETATM   12  C16 UNL     1      21.196   1.597  49.955  1.00  0.00     0.007 A 
HETATM   13  C13 UNL     1      23.105   2.937  48.471  1.00  0.00     0.001 A 
HETATM   14  C14 UNL     1      22.368   1.908  47.887  1.00  0.00     0.001 A 
HETATM   15  C15 UNL     1      21.400   1.220  48.624  1.00  0.00     0.012 A 
BRANCH   8  16
HETATM   16  N2  UNL     1      19.013   1.577  51.103  1.00  0.00     0.112 N 
HETATM   17  H10 UNL     1      18.560   0.993  50.363  1.00  0.00     0.316 HD
HETATM   18  H11 UNL     1      18.794   2.590  50.990  1.00  0.00     0.316 HD
ENDBRANCH   8  16
ENDBRANCH   6   8
ENDBRANCH   4   6
BRANCH   1  19
HETATM   19  C4  UNL     1      24.554  -0.222  54.117  1.00  0.00     0.042 C 
HETATM   20  C3  UNL     1      24.358   1.207  53.839  1.00  0.00    -0.011 C 
HETATM   21  C2  UNL     1      24.762   2.117  52.971  1.00  0.00    -0.065 C 
HETATM   22  C1  UNL     1      24.252   3.505  53.120  1.00  0.00     0.048 C 
HETATM   23  C21 UNL     1      25.672   1.820  51.894  1.00  0.00     0.006 C 
HETATM   24  C20 UNL     1      26.359   0.752  51.585  1.00  0.00     0.000 C 
HETATM   25  C19 UNL     1      26.384  -0.514  52.306  1.00  0.00    -0.003 C 
HETATM   26  C18 UNL     1      25.628  -0.867  53.332  1.00  0.00    -0.017 C 
ENDBRANCH   1  19
TORSDOF 4
ENDMDL
MODEL 9
REMARK VINA RESULT:      -8.4      2.312      5.077
REMARK  4 active torsions:
REMARK  status: ('A' for Active; 'I' for Inactive)
REMARK    1  A    between atoms: C4_4  and  C5_5 
REMARK    2  A    between atoms: C8_8  and  N1_9 
REMARK    3  A    between atoms: N1_9  and  C9_10 
REMARK    4  A    between atoms: C9_10  and  N2_11 
ROOT
HETATM    1  C5  UNL     1      26.171   2.685  51.555  1.00  0.00     0.044 A 
HETATM    2  C6  UNL     1      26.555   3.006  50.160  1.00  0.00    -0.015 A 
HETATM    3  C7  UNL     1      25.556   3.550  49.501  1.00  0.00     0.025 A 
HETATM    4  C8  UNL     1      24.401   3.641  50.406  1.00  0.00     0.026 A 
HETATM    5  C17 UNL     1      24.757   3.142  51.595  1.00  0.00     0.012 A 
ENDROOT
BRANCH   4   6
HETATM    6  N1  UNL     1      23.050   4.093  50.396  1.00  0.00    -0.352 N 
HETATM    7  H9  UNL     1      22.923   5.048  50.844  1.00  0.00     0.162 HD
BRANCH   6   8
HETATM    8  C9  UNL     1      21.946   3.335  49.831  1.00  0.00     0.260 A 
HETATM    9  C10 UNL     1      22.300   2.032  49.226  1.00  0.00     0.108 A 
HETATM   10  C11 UNL     1      21.576   1.403  50.316  1.00  0.00    -0.043 A 
HETATM   11  C12 UNL     1      21.156   0.227  50.914  1.00  0.00     0.008 A 
HETATM   12  C16 UNL     1      21.254   2.601  50.868  1.00  0.00     0.007 A 
HETATM   13  C13 UNL     1      20.401   0.270  52.083  1.00  0.00     0.001 A 
HETATM   14  C14 UNL     1      20.073   1.504  52.642  1.00  0.00     0.001 A 
HETATM   15  C15 UNL     1      20.498   2.693  52.041  1.00  0.00     0.012 A 
BRANCH   8  16
HETATM   16  N2  UNL     1      21.132   4.197  48.991  1.00  0.00     0.112 N 
HETATM   17  H10 UNL     1      20.626   3.656  48.253  1.00  0.00     0.316 HD
HETATM   18  H11 UNL     1      21.696   4.975  48.586  1.00  0.00     0.316 HD
ENDBRANCH   8  16
ENDBRANCH   6   8
ENDBRANCH   4   6
BRANCH   1  19
HETATM   19  C4  UNL     1      26.288   1.205  51.802  1.00  0.00     0.042 C 
HETATM   20  C3  UNL     1      25.109   0.625  52.458  1.00  0.00    -0.011 C 
HETATM   21  C2  UNL     1      24.792   0.035  53.597  1.00  0.00    -0.065 C 
HETATM   22  C1  UNL     1      23.383  -0.394  53.798  1.00  0.00     0.048 C 
HETATM   23  C21 UNL     1      25.751  -0.208  54.644  1.00  0.00     0.006 C 
HETATM   24  C20 UNL     1      27.048  -0.053  54.711  1.00  0.00     0.000 C 
HETATM   25  C19 UNL     1      27.926   0.446  53.661  1.00  0.00    -0.003 C 
HETATM   26  C18 UNL     1      27.571   0.950  52.491  1.00  0.00    -0.017 C 
ENDBRANCH   1  19
TORSDOF 4
ENDMDL
