MODEL 1
REMARK VINA RESULT:      -9.3      0.000      0.000
REMARK  3 active torsions:
REMARK  status: ('A' for Active; 'I' for Inactive)
REMARK       I    between atoms: C1_2  and  N1_3 
REMARK       I    between atoms: C1_2  and  N5_22 
REMARK    1  A    between atoms: N1_3  and  C2_4 
REMARK    2  A    between atoms: C7_11  and  N4_12 
REMARK    3  A    between atoms: N4_12  and  C8_13 
ROOT
HETATM    1  C2  UNL     1      28.205   5.882  48.321  1.00  0.00     0.037 A 
HETATM    2  C3  UNL     1      27.786   7.211  48.143  1.00  0.00     0.032 A 
HETATM    3  C4  UNL     1      26.492   7.601  48.366  1.00  0.00     0.035 A 
HETATM    4  C5  UNL     1      25.624   6.618  48.772  1.00  0.00     0.072 A 
HETATM    5  N2  UNL     1      24.364   7.010  48.985  1.00  0.00    -0.241 NA
HETATM    6  C6  UNL     1      23.453   6.105  49.387  1.00  0.00     0.236 A 
HETATM    7  N3  UNL     1      23.748   4.820  49.586  1.00  0.00    -0.224 NA
HETATM    8  C7  UNL     1      24.980   4.363  49.392  1.00  0.00     0.142 A 
HETATM    9  C14 UNL     1      25.932   5.300  48.972  1.00  0.00     0.041 A 
HETATM   10  C15 UNL     1      27.245   4.948  48.739  1.00  0.00     0.047 A 
ENDROOT
BRANCH   1  11
HETATM   11  N1  UNL     1      29.528   5.435  48.115  1.00  0.00    -0.309 N 
HETATM   12  C1  UNL     1      30.880   5.762  48.338  1.00  0.00     0.323 C 
HETATM   13  O1  UNL     1      30.822   6.881  48.961  1.00  0.00    -0.247 OA
HETATM   14  N5  UNL     1      32.059   5.049  47.978  1.00  0.00    -0.330 N 
HETATM   15  C16 UNL     1      32.231   3.874  47.239  1.00  0.00     0.147 C 
HETATM   16  C21 UNL     1      33.213   5.688  48.529  1.00  0.00     0.153 C 
HETATM   17  C17 UNL     1      32.689   3.552  45.954  1.00  0.00     0.133 C 
HETATM   18  N6  UNL     1      32.899   4.303  44.810  1.00  0.00    -0.418 N 
HETATM   19  C18 UNL     1      33.944   5.180  44.636  1.00  0.00     0.140 C 
HETATM   20  H15 UNL     1      32.064   4.456  44.189  1.00  0.00     0.153 HD
HETATM   21  C19 UNL     1      33.828   6.554  45.287  1.00  0.00     0.186 C 
HETATM   22  O2  UNL     1      33.661   6.740  46.476  1.00  0.00    -0.388 OA
HETATM   23  C20 UNL     1      33.506   6.918  47.662  1.00  0.00     0.187 C 
HETATM   24  H1  UNL     1      29.373   4.526  47.578  1.00  0.00     0.170 HD
ENDBRANCH   1  11
BRANCH   8  25
HETATM   25  N4  UNL     1      25.311   3.019  49.648  1.00  0.00    -0.340 N 
HETATM   26  H5  UNL     1      25.504   2.256  48.987  1.00  0.00     0.167 HD
BRANCH  25  27
HETATM   27  C8  UNL     1      25.421   2.597  51.001  1.00  0.00     0.035 A 
HETATM   28  C9  UNL     1      24.376   2.237  51.816  1.00  0.00     0.029 A 
HETATM   29  C10 UNL     1      24.567   1.869  53.149  1.00  0.00     0.004 A 
HETATM   30  C11 UNL     1      25.826   1.859  53.695  1.00  0.00     0.019 A 
HETATM   31  C12 UNL     1      26.921   2.206  52.946  1.00  0.00     0.013 A 
HETATM   32 BR1  UNL     1      28.715   2.227  53.649  1.00  0.00    -0.051 Br
HETATM   33  C13 UNL     1      26.656   2.558  51.634  1.00  0.00     0.048 A 
ENDBRANCH  25  27
ENDBRANCH   8  25
TORSDOF 3
ENDMDL
MODEL 2
REMARK VINA RESULT:      -8.8      1.855      2.151
REMARK  3 active torsions:
REMARK  status: ('A' for Active; 'I' for Inactive)
REMARK       I    between atoms: C1_2  and  N1_3 
REMARK       I    between atoms: C1_2  and  N5_22 
REMARK    1  A    between atoms: N1_3  and  C2_4 
REMARK    2  A    between atoms: C7_11  and  N4_12 
REMARK    3  A    between atoms: N4_12  and  C8_13 
ROOT
HETATM    1  C2  UNL     1      28.084   6.102  48.162  1.00  0.00     0.037 A 
HETATM    2  C3  UNL     1      27.604   7.246  47.502  1.00  0.00     0.032 A 
HETATM    3  C4  UNL     1      26.326   7.705  47.679  1.00  0.00     0.035 A 
HETATM    4  C5  UNL     1      25.535   6.980  48.538  1.00  0.00     0.072 A 
HETATM    5  N2  UNL     1      24.289   7.437  48.702  1.00  0.00    -0.241 NA
HETATM    6  C6  UNL     1      23.454   6.783  49.530  1.00  0.00     0.236 A 
HETATM    7  N3  UNL     1      23.811   5.689  50.204  1.00  0.00    -0.224 NA
HETATM    8  C7  UNL     1      25.034   5.182  50.086  1.00  0.00     0.142 A 
HETATM    9  C14 UNL     1      25.907   5.857  49.225  1.00  0.00     0.041 A 
HETATM   10  C15 UNL     1      27.202   5.429  49.021  1.00  0.00     0.047 A 
ENDROOT
BRANCH   1  11
HETATM   11  N1  UNL     1      29.395   5.599  48.020  1.00  0.00    -0.309 N 
HETATM   12  C1  UNL     1      30.749   5.878  48.289  1.00  0.00     0.323 C 
HETATM   13  O1  UNL     1      30.711   7.014  48.883  1.00  0.00    -0.247 OA
HETATM   14  N5  UNL     1      31.912   5.111  47.994  1.00  0.00    -0.330 N 
HETATM   15  C16 UNL     1      32.065   3.912  47.290  1.00  0.00     0.147 C 
HETATM   16  C21 UNL     1      33.068   5.718  48.576  1.00  0.00     0.153 C 
HETATM   17  C17 UNL     1      32.560   3.541  46.033  1.00  0.00     0.133 C 
HETATM   18  N6  UNL     1      32.845   4.254  44.881  1.00  0.00    -0.418 N 
HETATM   19  C18 UNL     1      33.931   5.085  44.728  1.00  0.00     0.140 C 
HETATM   20  H15 UNL     1      32.043   4.424  44.223  1.00  0.00     0.153 HD
HETATM   21  C19 UNL     1      33.845   6.478  45.342  1.00  0.00     0.186 C 
HETATM   22  O2  UNL     1      33.638   6.700  46.519  1.00  0.00    -0.388 OA
HETATM   23  C20 UNL     1      33.444   6.913  47.694  1.00  0.00     0.187 C 
HETATM   24  H1  UNL     1      29.224   4.684  47.498  1.00  0.00     0.170 HD
ENDBRANCH   1  11
BRANCH   8  25
HETATM   25  N4  UNL     1      25.435   4.058  50.832  1.00  0.00    -0.340 N 
HETATM   26  H5  UNL     1      26.372   3.793  51.162  1.00  0.00     0.167 HD
BRANCH  25  27
HETATM   27  C8  UNL     1      24.442   3.119  51.226  1.00  0.00     0.035 A 
HETATM   28  C9  UNL     1      24.278   2.608  52.490  1.00  0.00     0.029 A 
HETATM   29  C10 UNL     1      23.299   1.659  52.785  1.00  0.00     0.004 A 
HETATM   30  C11 UNL     1      22.458   1.197  51.804  1.00  0.00     0.019 A 
HETATM   31  C12 UNL     1      22.559   1.658  50.516  1.00  0.00     0.013 A 
HETATM   32 BR1  UNL     1      21.423   1.047  49.085  1.00  0.00    -0.051 Br
HETATM   33  C13 UNL     1      23.552   2.598  50.298  1.00  0.00     0.048 A 
ENDBRANCH  25  27
ENDBRANCH   8  25
TORSDOF 3
ENDMDL
MODEL 3
REMARK VINA RESULT:      -8.8      4.259      6.764
REMARK  3 active torsions:
REMARK  status: ('A' for Active; 'I' for Inactive)
REMARK       I    between atoms: C1_2  and  N1_3 
REMARK       I    between atoms: C1_2  and  N5_22 
REMARK    1  A    between atoms: N1_3  and  C2_4 
REMARK    2  A    between atoms: C7_11  and  N4_12 
REMARK    3  A    between atoms: N4_12  and  C8_13 
ROOT
HETATM    1  C2  UNL     1      25.748   3.484  51.141  1.00  0.00     0.037 A 
HETATM    2  C3  UNL     1      26.866   2.643  51.266  1.00  0.00     0.032 A 
HETATM    3  C4  UNL     1      26.785   1.409  51.855  1.00  0.00     0.035 A 
HETATM    4  C5  UNL     1      25.547   1.040  52.320  1.00  0.00     0.072 A 
HETATM    5  N2  UNL     1      25.480  -0.166  52.894  1.00  0.00    -0.241 NA
HETATM    6  C6  UNL     1      24.300  -0.602  53.373  1.00  0.00     0.236 A 
HETATM    7  N3  UNL     1      23.180   0.118  53.302  1.00  0.00    -0.224 NA
HETATM    8  C7  UNL     1      23.176   1.324  52.745  1.00  0.00     0.142 A 
HETATM    9  C14 UNL     1      24.401   1.784  52.247  1.00  0.00     0.041 A 
HETATM   10  C15 UNL     1      24.524   3.019  51.645  1.00  0.00     0.047 A 
ENDROOT
BRANCH   1  11
HETATM   11  N1  UNL     1      25.780   4.757  50.532  1.00  0.00    -0.309 N 
HETATM   12  C1  UNL     1      26.170   5.444  49.366  1.00  0.00     0.323 C 
HETATM   13  O1  UNL     1      26.667   4.523  48.625  1.00  0.00    -0.247 OA
HETATM   14  N5  UNL     1      26.057   6.826  49.043  1.00  0.00    -0.330 N 
HETATM   15  C16 UNL     1      25.607   7.911  49.803  1.00  0.00     0.147 C 
HETATM   16  C21 UNL     1      26.459   7.055  47.691  1.00  0.00     0.153 C 
HETATM   17  C17 UNL     1      26.204   9.002  50.450  1.00  0.00     0.133 C 
HETATM   18  N6  UNL     1      27.508   9.285  50.817  1.00  0.00    -0.418 N 
HETATM   19  C18 UNL     1      28.503   9.646  49.939  1.00  0.00     0.140 C 
HETATM   20  H15 UNL     1      27.830   8.897  51.740  1.00  0.00     0.153 HD
HETATM   21  C19 UNL     1      29.171   8.537  49.135  1.00  0.00     0.186 C 
HETATM   22  O2  UNL     1      28.582   7.769  48.400  1.00  0.00    -0.388 OA
HETATM   23  C20 UNL     1      27.991   7.016  47.661  1.00  0.00     0.187 C 
HETATM   24  H1  UNL     1      25.355   5.375  51.291  1.00  0.00     0.170 HD
ENDBRANCH   1  11
BRANCH   8  25
HETATM   25  N4  UNL     1      21.988   2.069  52.621  1.00  0.00    -0.340 N 
HETATM   26  H5  UNL     1      21.750   2.989  53.013  1.00  0.00     0.167 HD
BRANCH  25  27
HETATM   27  C8  UNL     1      20.929   1.527  51.843  1.00  0.00     0.035 A 
HETATM   28  C9  UNL     1      20.698   1.782  50.513  1.00  0.00     0.029 A 
HETATM   29  C10 UNL     1      19.610   1.237  49.831  1.00  0.00     0.004 A 
HETATM   30  C11 UNL     1      18.720   0.418  50.480  1.00  0.00     0.019 A 
HETATM   31  C12 UNL     1      18.880   0.117  51.809  1.00  0.00     0.013 A 
HETATM   32 BR1  UNL     1      17.666  -1.013  52.788  1.00  0.00    -0.051 Br
HETATM   33  C13 UNL     1      19.982   0.692  52.419  1.00  0.00     0.048 A 
ENDBRANCH  25  27
ENDBRANCH   8  25
TORSDOF 3
ENDMDL
MODEL 4
REMARK VINA RESULT:      -8.7      6.694      9.552
REMARK  3 active torsions:
REMARK  status: ('A' for Active; 'I' for Inactive)
REMARK       I    between atoms: C1_2  and  N1_3 
REMARK       I    between atoms: C1_2  and  N5_22 
REMARK    1  A    between atoms: N1_3  and  C2_4 
REMARK    2  A    between atoms: C7_11  and  N4_12 
REMARK    3  A    between atoms: N4_12  and  C8_13 
ROOT
HETATM    1  C2  UNL     1      21.056   1.223  52.324  1.00  0.00     0.037 A 
HETATM    2  C3  UNL     1      20.214   0.676  53.306  1.00  0.00     0.032 A 
HETATM    3  C4  UNL     1      20.694  -0.116  54.316  1.00  0.00     0.035 A 
HETATM    4  C5  UNL     1      22.048  -0.348  54.312  1.00  0.00     0.072 A 
HETATM    5  N2  UNL     1      22.504  -1.123  55.302  1.00  0.00    -0.241 NA
HETATM    6  C6  UNL     1      23.820  -1.396  55.368  1.00  0.00     0.236 A 
HETATM    7  N3  UNL     1      24.703  -0.925  54.486  1.00  0.00    -0.224 NA
HETATM    8  C7  UNL     1      24.316  -0.150  53.479  1.00  0.00     0.142 A 
HETATM    9  C14 UNL     1      22.948   0.136  53.403  1.00  0.00     0.041 A 
HETATM   10  C15 UNL     1      22.426   0.930  52.404  1.00  0.00     0.047 A 
ENDROOT
BRANCH   1  11
HETATM   11  N1  UNL     1      20.610   2.053  51.273  1.00  0.00    -0.309 N 
HETATM   12  C1  UNL     1      20.545   2.167  49.870  1.00  0.00     0.323 C 
HETATM   13  O1  UNL     1      21.110   1.095  49.454  1.00  0.00    -0.247 OA
HETATM   14  N5  UNL     1      19.992   3.204  49.066  1.00  0.00    -0.330 N 
HETATM   15  C16 UNL     1      19.428   4.436  49.418  1.00  0.00     0.147 C 
HETATM   16  C21 UNL     1      20.025   2.834  47.686  1.00  0.00     0.153 C 
HETATM   17  C17 UNL     1      19.823   5.779  49.347  1.00  0.00     0.133 C 
HETATM   18  N6  UNL     1      21.047   6.395  49.144  1.00  0.00    -0.418 N 
HETATM   19  C18 UNL     1      21.699   6.451  47.935  1.00  0.00     0.140 C 
HETATM   20  H15 UNL     1      21.647   6.536  49.996  1.00  0.00     0.153 HD
HETATM   21  C19 UNL     1      22.464   5.211  47.487  1.00  0.00     0.186 C 
HETATM   22  O2  UNL     1      21.969   4.110  47.350  1.00  0.00    -0.388 OA
HETATM   23  C20 UNL     1      21.468   3.019  47.203  1.00  0.00     0.187 C 
HETATM   24  H1  UNL     1      20.198   2.881  51.806  1.00  0.00     0.170 HD
ENDBRANCH   1  11
BRANCH   8  25
HETATM   25  N4  UNL     1      25.248   0.392  52.574  1.00  0.00    -0.340 N 
HETATM   26  H5  UNL     1      25.146   0.587  51.570  1.00  0.00     0.167 HD
BRANCH  25  27
HETATM   27  C8  UNL     1      26.534   0.753  53.062  1.00  0.00     0.035 A 
HETATM   28  C9  UNL     1      26.936   2.021  53.403  1.00  0.00     0.029 A 
HETATM   29  C10 UNL     1      28.232   2.296  53.840  1.00  0.00     0.004 A 
HETATM   30  C11 UNL     1      29.161   1.291  53.941  1.00  0.00     0.019 A 
HETATM   31  C12 UNL     1      28.837  -0.002  53.618  1.00  0.00     0.013 A 
HETATM   32 BR1  UNL     1      30.091  -1.461  53.723  1.00  0.00    -0.051 Br
HETATM   33  C13 UNL     1      27.535  -0.200  53.194  1.00  0.00     0.048 A 
ENDBRANCH  25  27
ENDBRANCH   8  25
TORSDOF 3
ENDMDL
MODEL 5
REMARK VINA RESULT:      -8.7      1.520      2.045
REMARK  3 active torsions:
REMARK  status: ('A' for Active; 'I' for Inactive)
REMARK       I    between atoms: C1_2  and  N1_3 
REMARK       I    between atoms: C1_2  and  N5_22 
REMARK    1  A    between atoms: N1_3  and  C2_4 
REMARK    2  A    between atoms: C7_11  and  N4_12 
REMARK    3  A    between atoms: N4_12  and  C8_13 
ROOT
HETATM    1  C2  UNL     1      27.041   6.692  48.618  1.00  0.00     0.037 A 
HETATM    2  C3  UNL     1      26.113   7.685  48.262  1.00  0.00     0.032 A 
HETATM    3  C4  UNL     1      24.763   7.453  48.265  1.00  0.00     0.035 A 
HETATM    4  C5  UNL     1      24.366   6.190  48.634  1.00  0.00     0.072 A 
HETATM    5  N2  UNL     1      23.046   5.976  48.632  1.00  0.00    -0.241 NA
HETATM    6  C6  UNL     1      22.578   4.764  48.983  1.00  0.00     0.236 A 
HETATM    7  N3  UNL     1      23.374   3.755  49.339  1.00  0.00    -0.224 NA
HETATM    8  C7  UNL     1      24.694   3.901  49.361  1.00  0.00     0.142 A 
HETATM    9  C14 UNL     1      25.188   5.158  48.995  1.00  0.00     0.041 A 
HETATM   10  C15 UNL     1      26.539   5.432  48.981  1.00  0.00     0.047 A 
ENDROOT
BRANCH   1  11
HETATM   11  N1  UNL     1      28.438   6.887  48.641  1.00  0.00    -0.309 N 
HETATM   12  C1  UNL     1      29.519   7.420  47.911  1.00  0.00     0.323 C 
HETATM   13  O1  UNL     1      28.967   7.886  46.852  1.00  0.00    -0.247 OA
HETATM   14  N5  UNL     1      30.905   7.458  48.235  1.00  0.00    -0.330 N 
HETATM   15  C16 UNL     1      31.609   6.917  49.316  1.00  0.00     0.147 C 
HETATM   16  C21 UNL     1      31.621   8.222  47.262  1.00  0.00     0.153 C 
HETATM   17  C17 UNL     1      32.482   5.837  49.507  1.00  0.00     0.133 C 
HETATM   18  N6  UNL     1      32.779   4.716  48.751  1.00  0.00    -0.418 N 
HETATM   19  C18 UNL     1      33.531   4.730  47.599  1.00  0.00     0.140 C 
HETATM   20  H15 UNL     1      32.146   3.886  48.874  1.00  0.00     0.153 HD
HETATM   21  C19 UNL     1      32.846   5.181  46.315  1.00  0.00     0.186 C 
HETATM   22  O2  UNL     1      32.305   6.259  46.165  1.00  0.00    -0.388 OA
HETATM   23  C20 UNL     1      31.778   7.338  46.019  1.00  0.00     0.187 C 
HETATM   24  H1  UNL     1      28.710   6.426  49.564  1.00  0.00     0.170 HD
ENDBRANCH   1  11
BRANCH   8  25
HETATM   25  N4  UNL     1      25.538   2.856  49.784  1.00  0.00    -0.340 N 
HETATM   26  H5  UNL     1      26.119   2.219  49.224  1.00  0.00     0.167 HD
BRANCH  25  27
HETATM   27  C8  UNL     1      25.655   2.603  51.178  1.00  0.00     0.035 A 
HETATM   28  C9  UNL     1      24.686   2.843  52.120  1.00  0.00     0.029 A 
HETATM   29  C10 UNL     1      24.895   2.601  53.478  1.00  0.00     0.004 A 
HETATM   30  C11 UNL     1      26.098   2.110  53.921  1.00  0.00     0.019 A 
HETATM   31  C12 UNL     1      27.117   1.845  53.042  1.00  0.00     0.013 A 
HETATM   32 BR1  UNL     1      28.834   1.168  53.591  1.00  0.00    -0.051 Br
HETATM   33  C13 UNL     1      26.837   2.109  51.712  1.00  0.00     0.048 A 
ENDBRANCH  25  27
ENDBRANCH   8  25
TORSDOF 3
ENDMDL
MODEL 6
REMARK VINA RESULT:      -8.6      7.470     12.224
REMARK  3 active torsions:
REMARK  status: ('A' for Active; 'I' for Inactive)
REMARK       I    between atoms: C1_2  and  N1_3 
REMARK       I    between atoms: C1_2  and  N5_22 
REMARK    1  A    between atoms: N1_3  and  C2_4 
REMARK    2  A    between atoms: C7_11  and  N4_12 
REMARK    3  A    between atoms: N4_12  and  C8_13 
ROOT
HETATM    1  C2  UNL     1      20.957  -0.283  52.866  1.00  0.00     0.037 A 
HETATM    2  C3  UNL     1      20.862  -1.040  54.046  1.00  0.00     0.032 A 
HETATM    3  C4  UNL     1      21.956  -1.317  54.822  1.00  0.00     0.035 A 
HETATM    4  C5  UNL     1      23.155  -0.814  54.380  1.00  0.00     0.072 A 
HETATM    5  N2  UNL     1      24.216  -1.091  55.146  1.00  0.00    -0.241 NA
HETATM    6  C6  UNL     1      25.427  -0.632  54.781  1.00  0.00     0.236 A 
HETATM    7  N3  UNL     1      25.625   0.097  53.682  1.00  0.00    -0.224 NA
HETATM    8  C7  UNL     1      24.614   0.408  52.877  1.00  0.00     0.142 A 
HETATM    9  C14 UNL     1      23.352  -0.069  53.250  1.00  0.00     0.041 A 
HETATM   10  C15 UNL     1      22.226   0.189  52.497  1.00  0.00     0.047 A 
ENDROOT
BRANCH   1  11
HETATM   11  N1  UNL     1      19.858   0.037  52.041  1.00  0.00    -0.309 N 
HETATM   12  C1  UNL     1      19.038   1.099  51.610  1.00  0.00     0.323 C 
HETATM   13  O1  UNL     1      19.518   2.119  52.220  1.00  0.00    -0.247 OA
HETATM   14  N5  UNL     1      17.934   1.088  50.710  1.00  0.00    -0.330 N 
HETATM   15  C16 UNL     1      17.292   0.029  50.060  1.00  0.00     0.147 C 
HETATM   16  C21 UNL     1      17.487   2.421  50.457  1.00  0.00     0.153 C 
HETATM   17  C17 UNL     1      16.069  -0.643  50.199  1.00  0.00     0.133 C 
HETATM   18  N6  UNL     1      15.130  -0.696  51.215  1.00  0.00    -0.418 N 
HETATM   19  C18 UNL     1      14.261   0.324  51.525  1.00  0.00     0.140 C 
HETATM   20  H15 UNL     1      15.303  -1.398  51.978  1.00  0.00     0.153 HD
HETATM   21  C19 UNL     1      14.803   1.489  52.346  1.00  0.00     0.186 C 
HETATM   22  O2  UNL     1      15.749   2.179  52.019  1.00  0.00    -0.388 OA
HETATM   23  C20 UNL     1      16.683   2.870  51.682  1.00  0.00     0.187 C 
HETATM   24  H1  UNL     1      19.592  -0.918  51.647  1.00  0.00     0.170 HD
ENDBRANCH   1  11
BRANCH   8  25
HETATM   25  N4  UNL     1      24.806   1.219  51.742  1.00  0.00    -0.340 N 
HETATM   26  H5  UNL     1      25.240   0.987  50.840  1.00  0.00     0.167 HD
BRANCH  25  27
HETATM   27  C8  UNL     1      24.343   2.562  51.785  1.00  0.00     0.035 A 
HETATM   28  C9  UNL     1      24.148   3.307  52.922  1.00  0.00     0.029 A 
HETATM   29  C10 UNL     1      23.653   4.611  52.879  1.00  0.00     0.004 A 
HETATM   30  C11 UNL     1      23.339   5.197  51.679  1.00  0.00     0.019 A 
HETATM   31  C12 UNL     1      23.504   4.519  50.499  1.00  0.00     0.013 A 
HETATM   32 BR1  UNL     1      23.073   5.272  48.779  1.00  0.00    -0.051 Br
HETATM   33  C13 UNL     1      24.000   3.232  50.619  1.00  0.00     0.048 A 
ENDBRANCH  25  27
ENDBRANCH   8  25
TORSDOF 3
ENDMDL
MODEL 7
REMARK VINA RESULT:      -8.5      3.935      5.592
REMARK  3 active torsions:
REMARK  status: ('A' for Active; 'I' for Inactive)
REMARK       I    between atoms: C1_2  and  N1_3 
REMARK       I    between atoms: C1_2  and  N5_22 
REMARK    1  A    between atoms: N1_3  and  C2_4 
REMARK    2  A    between atoms: C7_11  and  N4_12 
REMARK    3  A    between atoms: N4_12  and  C8_13 
ROOT
HETATM    1  C2  UNL     1      24.196   4.067  49.384  1.00  0.00     0.037 A 
HETATM    2  C3  UNL     1      23.230   3.799  48.400  1.00  0.00     0.032 A 
HETATM    3  C4  UNL     1      22.294   2.811  48.550  1.00  0.00     0.035 A 
HETATM    4  C5  UNL     1      22.354   2.091  49.718  1.00  0.00     0.072 A 
HETATM    5  N2  UNL     1      21.436   1.129  49.853  1.00  0.00    -0.241 NA
HETATM    6  C6  UNL     1      21.428   0.381  50.972  1.00  0.00     0.236 A 
HETATM    7  N3  UNL     1      22.300   0.555  51.966  1.00  0.00    -0.224 NA
HETATM    8  C7  UNL     1      23.238   1.493  51.896  1.00  0.00     0.142 A 
HETATM    9  C14 UNL     1      23.253   2.273  50.734  1.00  0.00     0.041 A 
HETATM   10  C15 UNL     1      24.177   3.279  50.545  1.00  0.00     0.047 A 
ENDROOT
BRANCH   1  11
HETATM   11  N1  UNL     1      25.171   5.082  49.279  1.00  0.00    -0.309 N 
HETATM   12  C1  UNL     1      25.505   6.380  49.713  1.00  0.00     0.323 C 
HETATM   13  O1  UNL     1      24.532   6.700  50.484  1.00  0.00    -0.247 OA
HETATM   14  N5  UNL     1      26.641   7.179  49.400  1.00  0.00    -0.330 N 
HETATM   15  C16 UNL     1      27.707   6.955  48.522  1.00  0.00     0.147 C 
HETATM   16  C21 UNL     1      26.633   8.378  50.178  1.00  0.00     0.153 C 
HETATM   17  C17 UNL     1      28.098   7.449  47.270  1.00  0.00     0.133 C 
HETATM   18  N6  UNL     1      27.435   8.160  46.285  1.00  0.00    -0.418 N 
HETATM   19  C18 UNL     1      27.109   9.494  46.373  1.00  0.00     0.140 C 
HETATM   20  H15 UNL     1      26.875   7.597  45.595  1.00  0.00     0.153 HD
HETATM   21  C19 UNL     1      25.886   9.869  47.201  1.00  0.00     0.186 C 
HETATM   22  O2  UNL     1      25.738   9.591  48.375  1.00  0.00    -0.388 OA
HETATM   23  C20 UNL     1      25.603   9.321  49.546  1.00  0.00     0.187 C 
HETATM   24  H1  UNL     1      25.869   4.647  48.598  1.00  0.00     0.170 HD
ENDBRANCH   1  11
BRANCH   8  25
HETATM   25  N4  UNL     1      24.130   1.717  52.962  1.00  0.00    -0.340 N 
HETATM   26  H5  UNL     1      24.042   2.354  53.764  1.00  0.00     0.167 HD
BRANCH  25  27
HETATM   27  C8  UNL     1      25.343   0.977  52.995  1.00  0.00     0.035 A 
HETATM   28  C9  UNL     1      25.489  -0.339  52.633  1.00  0.00     0.029 A 
HETATM   29  C10 UNL     1      26.712  -1.005  52.731  1.00  0.00     0.004 A 
HETATM   30  C11 UNL     1      27.823  -0.353  53.204  1.00  0.00     0.019 A 
HETATM   31  C12 UNL     1      27.758   0.962  53.588  1.00  0.00     0.013 A 
HETATM   32 BR1  UNL     1      29.272   1.937  54.273  1.00  0.00    -0.051 Br
HETATM   33  C13 UNL     1      26.514   1.557  53.462  1.00  0.00     0.048 A 
ENDBRANCH  25  27
ENDBRANCH   8  25
TORSDOF 3
ENDMDL
MODEL 8
REMARK VINA RESULT:      -8.5      1.997      2.641
REMARK  3 active torsions:
REMARK  status: ('A' for Active; 'I' for Inactive)
REMARK       I    between atoms: C1_2  and  N1_3 
REMARK       I    between atoms: C1_2  and  N5_22 
REMARK    1  A    between atoms: N1_3  and  C2_4 
REMARK    2  A    between atoms: C7_11  and  N4_12 
REMARK    3  A    between atoms: N4_12  and  C8_13 
ROOT
HETATM    1  C2  UNL     1      27.806   7.439  48.682  1.00  0.00     0.037 A 
HETATM    2  C3  UNL     1      27.527   8.696  49.244  1.00  0.00     0.032 A 
HETATM    3  C4  UNL     1      26.370   8.943  49.934  1.00  0.00     0.035 A 
HETATM    4  C5  UNL     1      25.494   7.891  50.045  1.00  0.00     0.072 A 
HETATM    5  N2  UNL     1      24.368   8.144  50.720  1.00  0.00    -0.241 NA
HETATM    6  C6  UNL     1      23.460   7.163  50.874  1.00  0.00     0.236 A 
HETATM    7  N3  UNL     1      23.630   5.935  50.381  1.00  0.00    -0.224 NA
HETATM    8  C7  UNL     1      24.725   5.617  49.701  1.00  0.00     0.142 A 
HETATM    9  C14 UNL     1      25.673   6.634  49.535  1.00  0.00     0.041 A 
HETATM   10  C15 UNL     1      26.850   6.425  48.849  1.00  0.00     0.047 A 
ENDROOT
BRANCH   1  11
HETATM   11  N1  UNL     1      28.988   7.135  47.973  1.00  0.00    -0.309 N 
HETATM   12  C1  UNL     1      30.073   6.238  47.914  1.00  0.00     0.323 C 
HETATM   13  O1  UNL     1      29.844   5.423  48.877  1.00  0.00    -0.247 OA
HETATM   14  N5  UNL     1      31.177   6.204  47.016  1.00  0.00    -0.330 N 
HETATM   15  C16 UNL     1      31.554   7.080  45.993  1.00  0.00     0.147 C 
HETATM   16  C21 UNL     1      31.965   5.033  47.241  1.00  0.00     0.153 C 
HETATM   17  C17 UNL     1      32.554   8.047  45.814  1.00  0.00     0.133 C 
HETATM   18  N6  UNL     1      33.400   8.705  46.691  1.00  0.00    -0.418 N 
HETATM   19  C18 UNL     1      34.487   8.128  47.304  1.00  0.00     0.140 C 
HETATM   20  H15 UNL     1      33.016   9.567  47.155  1.00  0.00     0.153 HD
HETATM   21  C19 UNL     1      34.226   7.245  48.519  1.00  0.00     0.186 C 
HETATM   22  O2  UNL     1      33.507   6.265  48.515  1.00  0.00    -0.388 OA
HETATM   23  C20 UNL     1      32.800   5.284  48.502  1.00  0.00     0.187 C 
HETATM   24  H1  UNL     1      29.016   7.915  47.246  1.00  0.00     0.170 HD
ENDBRANCH   1  11
BRANCH   8  25
HETATM   25  N4  UNL     1      24.935   4.310  49.221  1.00  0.00    -0.340 N 
HETATM   26  H5  UNL     1      24.910   3.956  48.257  1.00  0.00     0.167 HD
BRANCH  25  27
HETATM   27  C8  UNL     1      25.239   3.286  50.160  1.00  0.00     0.035 A 
HETATM   28  C9  UNL     1      26.499   2.856  50.498  1.00  0.00     0.029 A 
HETATM   29  C10 UNL     1      26.710   1.816  51.404  1.00  0.00     0.004 A 
HETATM   30  C11 UNL     1      25.646   1.179  51.993  1.00  0.00     0.019 A 
HETATM   31  C12 UNL     1      24.357   1.550  51.707  1.00  0.00     0.013 A 
HETATM   32 BR1  UNL     1      22.817   0.695  52.485  1.00  0.00    -0.051 Br
HETATM   33  C13 UNL     1      24.225   2.589  50.801  1.00  0.00     0.048 A 
ENDBRANCH  25  27
ENDBRANCH   8  25
TORSDOF 3
ENDMDL
MODEL 9
REMARK VINA RESULT:      -8.4      7.018     12.576
REMARK  3 active torsions:
REMARK  status: ('A' for Active; 'I' for Inactive)
REMARK       I    between atoms: C1_2  and  N1_3 
REMARK       I    between atoms: C1_2  and  N5_22 
REMARK    1  A    between atoms: N1_3  and  C2_4 
REMARK    2  A    between atoms: C7_11  and  N4_12 
REMARK    3  A    between atoms: N4_12  and  C8_13 
ROOT
HETATM    1  C2  UNL     1      20.138  -0.446  53.015  1.00  0.00     0.037 A 
HETATM    2  C3  UNL     1      20.567  -1.223  54.104  1.00  0.00     0.032 A 
HETATM    3  C4  UNL     1      21.882  -1.280  54.482  1.00  0.00     0.035 A 
HETATM    4  C5  UNL     1      22.761  -0.535  53.734  1.00  0.00     0.072 A 
HETATM    5  N2  UNL     1      24.042  -0.600  54.112  1.00  0.00    -0.241 NA
HETATM    6  C6  UNL     1      24.964   0.103  53.431  1.00  0.00     0.236 A 
HETATM    7  N3  UNL     1      24.661   0.872  52.384  1.00  0.00    -0.224 NA
HETATM    8  C7  UNL     1      23.408   0.981  51.956  1.00  0.00     0.142 A 
HETATM    9  C14 UNL     1      22.444   0.250  52.660  1.00  0.00     0.041 A 
HETATM   10  C15 UNL     1      21.110   0.282  52.312  1.00  0.00     0.047 A 
ENDROOT
BRANCH   1  11
HETATM   11  N1  UNL     1      18.794  -0.346  52.595  1.00  0.00    -0.309 N 
HETATM   12  C1  UNL     1      17.972  -0.091  51.480  1.00  0.00     0.323 C 
HETATM   13  O1  UNL     1      18.808   0.115  50.530  1.00  0.00    -0.247 OA
HETATM   14  N5  UNL     1      16.552  -0.061  51.383  1.00  0.00    -0.330 N 
HETATM   15  C16 UNL     1      15.563  -0.194  52.364  1.00  0.00     0.147 C 
HETATM   16  C21 UNL     1      16.150   0.103  50.022  1.00  0.00     0.153 C 
HETATM   17  C17 UNL     1      14.670   0.668  53.015  1.00  0.00     0.133 C 
HETATM   18  N6  UNL     1      14.603   2.046  53.133  1.00  0.00    -0.418 N 
HETATM   19  C18 UNL     1      14.218   2.896  52.122  1.00  0.00     0.140 C 
HETATM   20  H15 UNL     1      15.172   2.479  53.904  1.00  0.00     0.153 HD
HETATM   21  C19 UNL     1      15.247   3.229  51.049  1.00  0.00     0.186 C 
HETATM   22  O2  UNL     1      15.810   2.403  50.356  1.00  0.00    -0.388 OA
HETATM   23  C20 UNL     1      16.358   1.578  49.663  1.00  0.00     0.187 C 
HETATM   24  H1  UNL     1      18.265  -0.523  53.505  1.00  0.00     0.170 HD
ENDBRANCH   1  11
BRANCH   8  25
HETATM   25  N4  UNL     1      23.072   1.830  50.884  1.00  0.00    -0.340 N 
HETATM   26  H5  UNL     1      22.541   1.623  50.029  1.00  0.00     0.167 HD
BRANCH  25  27
HETATM   27  C8  UNL     1      23.493   3.186  50.938  1.00  0.00     0.035 A 
HETATM   28  C9  UNL     1      22.906   4.179  51.683  1.00  0.00     0.029 A 
HETATM   29  C10 UNL     1      23.360   5.498  51.651  1.00  0.00     0.004 A 
HETATM   30  C11 UNL     1      24.424   5.850  50.858  1.00  0.00     0.019 A 
HETATM   31  C12 UNL     1      25.063   4.916  50.084  1.00  0.00     0.013 A 
HETATM   32 BR1  UNL     1      26.553   5.338  48.938  1.00  0.00    -0.051 Br
HETATM   33  C13 UNL     1      24.559   3.629  50.167  1.00  0.00     0.048 A 
ENDBRANCH  25  27
ENDBRANCH   8  25
TORSDOF 3
ENDMDL
