MODEL 1
REMARK VINA RESULT:      -9.1      0.000      0.000
REMARK  3 active torsions:
REMARK  status: ('A' for Active; 'I' for Inactive)
REMARK    1  A    between atoms: C12_12  and  C13_13 
REMARK    2  A    between atoms: C19_21  and  N2_22 
REMARK    3  A    between atoms: N3_24  and  N4_25 
ROOT
HETATM    1  C1  UNL     1      23.864  -1.272  55.173  1.00  0.00     0.049 C 
HETATM    2  C2  UNL     1      22.845  -0.462  54.463  1.00  0.00    -0.053 A 
HETATM    3  C3  UNL     1      21.555  -0.453  54.976  1.00  0.00     0.007 A 
HETATM    4  C4  UNL     1      20.536   0.265  54.393  1.00  0.00     0.003 A 
HETATM    5  C5  UNL     1      20.838   0.993  53.261  1.00  0.00     0.032 A 
HETATM    6  C6  UNL     1      22.133   0.992  52.735  1.00  0.00     0.058 A 
HETATM    7  C7  UNL     1      23.148   0.267  53.328  1.00  0.00    -0.020 A 
HETATM    8  C8  UNL     1      24.582   0.098  52.980  1.00  0.00     0.069 C 
HETATM    9  C9  UNL     1      25.097   1.210  52.167  1.00  0.00    -0.012 C 
HETATM   10  C10 UNL     1      24.594   1.907  51.167  1.00  0.00    -0.027 A 
HETATM   11  C11 UNL     1      25.524   2.925  50.695  1.00  0.00     0.042 A 
HETATM   12  C12 UNL     1      25.207   3.729  49.696  1.00  0.00     0.069 A 
HETATM   13  N1  UNL     1      23.925   3.560  49.103  1.00  0.00    -0.233 NA
HETATM   14  C19 UNL     1      23.073   2.681  49.480  1.00  0.00     0.128 A 
HETATM   15  C20 UNL     1      23.252   1.716  50.560  1.00  0.00     0.209 A 
HETATM   16  N3  UNL     1      22.204   1.811  51.570  1.00  0.00    -0.282 N 
ENDROOT
BRANCH  12  17
HETATM   17  C13 UNL     1      26.071   4.773  49.161  1.00  0.00    -0.007 A 
HETATM   18  C14 UNL     1      27.410   4.539  48.877  1.00  0.00     0.015 A 
HETATM   19  C15 UNL     1      28.239   5.517  48.371  1.00  0.00     0.024 A 
HETATM   20  C16 UNL     1      27.774   6.782  48.122  1.00  0.00     0.034 A 
HETATM   21 CL1  UNL     1      28.884   7.972  47.479  1.00  0.00    -0.084 Cl
HETATM   22  C17 UNL     1      26.463   7.054  48.387  1.00  0.00     0.024 A 
HETATM   23  C18 UNL     1      25.659   6.054  48.893  1.00  0.00     0.015 A 
ENDBRANCH  12  17
BRANCH  14  24
HETATM   24  N2  UNL     1      21.812   2.624  48.787  1.00  0.00    -0.385 N 
HETATM   25  H15 UNL     1      21.164   3.463  48.765  1.00  0.00     0.157 HD
HETATM   26  H16 UNL     1      21.346   1.844  48.236  1.00  0.00     0.157 HD
ENDBRANCH  14  24
BRANCH  16  27
HETATM   27  N4  UNL     1      21.169   2.725  51.477  1.00  0.00    -0.342 N 
HETATM   28  H18 UNL     1      20.220   2.359  51.555  1.00  0.00     0.177 HD
HETATM   29  H19 UNL     1      21.353   3.630  51.939  1.00  0.00     0.177 HD
ENDBRANCH  16  27
TORSDOF 3
ENDMDL
MODEL 2
REMARK VINA RESULT:      -8.8      4.649      8.500
REMARK  3 active torsions:
REMARK  status: ('A' for Active; 'I' for Inactive)
REMARK    1  A    between atoms: C12_12  and  C13_13 
REMARK    2  A    between atoms: C19_21  and  N2_22 
REMARK    3  A    between atoms: N3_24  and  N4_25 
ROOT
HETATM    1  C1  UNL     1      27.119  -0.489  53.771  1.00  0.00     0.049 C 
HETATM    2  C2  UNL     1      26.338   0.439  52.917  1.00  0.00    -0.053 A 
HETATM    3  C3  UNL     1      27.037   1.227  52.012  1.00  0.00     0.007 A 
HETATM    4  C4  UNL     1      26.408   2.119  51.175  1.00  0.00     0.003 A 
HETATM    5  C5  UNL     1      25.034   2.211  51.260  1.00  0.00     0.032 A 
HETATM    6  C6  UNL     1      24.320   1.423  52.167  1.00  0.00     0.058 A 
HETATM    7  C7  UNL     1      24.962   0.531  53.003  1.00  0.00    -0.020 A 
HETATM    8  C8  UNL     1      24.451  -0.406  54.036  1.00  0.00     0.069 C 
HETATM    9  C9  UNL     1      23.041  -0.764  53.820  1.00  0.00    -0.012 C 
HETATM   10  C10 UNL     1      21.981  -0.076  53.444  1.00  0.00    -0.027 A 
HETATM   11  C11 UNL     1      20.788  -0.911  53.380  1.00  0.00     0.042 A 
HETATM   12  C12 UNL     1      19.620  -0.407  53.023  1.00  0.00     0.069 A 
HETATM   13  N1  UNL     1      19.576   0.979  52.707  1.00  0.00    -0.233 NA
HETATM   14  C19 UNL     1      20.594   1.755  52.748  1.00  0.00     0.128 A 
HETATM   15  C20 UNL     1      21.953   1.372  53.117  1.00  0.00     0.209 A 
HETATM   16  N3  UNL     1      22.923   1.691  52.075  1.00  0.00    -0.282 N 
ENDROOT
BRANCH  12  17
HETATM   17  C13 UNL     1      18.379  -1.166  52.931  1.00  0.00    -0.007 A 
HETATM   18  C14 UNL     1      17.288  -0.697  52.212  1.00  0.00     0.015 A 
HETATM   19  C15 UNL     1      16.109  -1.403  52.116  1.00  0.00     0.024 A 
HETATM   20  C16 UNL     1      15.956  -2.617  52.734  1.00  0.00     0.034 A 
HETATM   21 CL1  UNL     1      14.430  -3.457  52.569  1.00  0.00    -0.084 Cl
HETATM   22  C17 UNL     1      17.006  -3.114  53.451  1.00  0.00     0.024 A 
HETATM   23  C18 UNL     1      18.173  -2.384  53.528  1.00  0.00     0.015 A 
ENDBRANCH  12  17
BRANCH  14  24
HETATM   24  N2  UNL     1      20.401   3.138  52.401  1.00  0.00    -0.385 N 
HETATM   25  H15 UNL     1      19.435   3.574  52.412  1.00  0.00     0.157 HD
HETATM   26  H16 UNL     1      21.089   3.893  52.107  1.00  0.00     0.157 HD
ENDBRANCH  14  24
BRANCH  16  27
HETATM   27  N4  UNL     1      22.555   2.292  50.883  1.00  0.00    -0.342 N 
HETATM   28  H18 UNL     1      22.290   3.276  50.925  1.00  0.00     0.177 HD
HETATM   29  H19 UNL     1      23.114   2.000  50.065  1.00  0.00     0.177 HD
ENDBRANCH  16  27
TORSDOF 3
ENDMDL
MODEL 3
REMARK VINA RESULT:      -8.3      3.422      6.748
REMARK  3 active torsions:
REMARK  status: ('A' for Active; 'I' for Inactive)
REMARK    1  A    between atoms: C12_12  and  C13_13 
REMARK    2  A    between atoms: C19_21  and  N2_22 
REMARK    3  A    between atoms: N3_24  and  N4_25 
ROOT
HETATM    1  C1  UNL     1      23.736   7.371  47.043  1.00  0.00     0.049 C 
HETATM    2  C2  UNL     1      23.043   6.068  47.186  1.00  0.00    -0.053 A 
HETATM    3  C3  UNL     1      22.068   5.749  46.251  1.00  0.00     0.007 A 
HETATM    4  C4  UNL     1      21.366   4.566  46.293  1.00  0.00     0.003 A 
HETATM    5  C5  UNL     1      21.665   3.686  47.313  1.00  0.00     0.032 A 
HETATM    6  C6  UNL     1      22.645   3.996  48.261  1.00  0.00     0.058 A 
HETATM    7  C7  UNL     1      23.342   5.187  48.208  1.00  0.00    -0.020 A 
HETATM    8  C8  UNL     1      24.411   5.750  49.072  1.00  0.00     0.069 C 
HETATM    9  C9  UNL     1      25.144   4.709  49.807  1.00  0.00    -0.012 C 
HETATM   10  C10 UNL     1      24.771   3.604  50.422  1.00  0.00    -0.027 A 
HETATM   11  C11 UNL     1      25.906   2.902  51.011  1.00  0.00     0.042 A 
HETATM   12  C12 UNL     1      25.740   1.771  51.672  1.00  0.00     0.069 A 
HETATM   13  N1  UNL     1      24.414   1.268  51.785  1.00  0.00    -0.233 NA
HETATM   14  C19 UNL     1      23.386   1.846  51.286  1.00  0.00     0.128 A 
HETATM   15  C20 UNL     1      23.381   3.094  50.530  1.00  0.00     0.209 A 
HETATM   16  N3  UNL     1      22.777   2.942  49.210  1.00  0.00    -0.282 N 
ENDROOT
BRANCH  12  17
HETATM   17  C13 UNL     1      26.814   1.003  52.291  1.00  0.00    -0.007 A 
HETATM   18  C14 UNL     1      26.793  -0.384  52.327  1.00  0.00     0.015 A 
HETATM   19  C15 UNL     1      27.801  -1.122  52.909  1.00  0.00     0.024 A 
HETATM   20  C16 UNL     1      28.884  -0.513  53.487  1.00  0.00     0.034 A 
HETATM   21 CL1  UNL     1      30.125  -1.515  54.207  1.00  0.00    -0.084 Cl
HETATM   22  C17 UNL     1      28.943   0.851  53.473  1.00  0.00     0.024 A 
HETATM   23  C18 UNL     1      27.919   1.561  52.882  1.00  0.00     0.015 A 
ENDBRANCH  12  17
BRANCH  14  24
HETATM   24  N2  UNL     1      22.103   1.221  51.479  1.00  0.00    -0.385 N 
HETATM   25  H15 UNL     1      21.818   0.842  52.427  1.00  0.00     0.157 HD
HETATM   26  H16 UNL     1      21.299   1.040  50.807  1.00  0.00     0.157 HD
ENDBRANCH  14  24
BRANCH  16  27
HETATM   27  N4  UNL     1      22.272   1.732  48.764  1.00  0.00    -0.342 N 
HETATM   28  H18 UNL     1      22.925   1.104  48.295  1.00  0.00     0.177 HD
HETATM   29  H19 UNL     1      21.586   1.294  49.399  1.00  0.00     0.177 HD
ENDBRANCH  16  27
TORSDOF 3
ENDMDL
MODEL 4
REMARK VINA RESULT:      -8.3      3.244      4.590
REMARK  3 active torsions:
REMARK  status: ('A' for Active; 'I' for Inactive)
REMARK    1  A    between atoms: C12_12  and  C13_13 
REMARK    2  A    between atoms: C19_21  and  N2_22 
REMARK    3  A    between atoms: N3_24  and  N4_25 
ROOT
HETATM    1  C1  UNL     1      22.823  -0.912  53.990  1.00  0.00     0.049 C 
HETATM    2  C2  UNL     1      24.023  -0.228  53.450  1.00  0.00    -0.053 A 
HETATM    3  C3  UNL     1      25.268  -0.690  53.859  1.00  0.00     0.007 A 
HETATM    4  C4  UNL     1      26.443  -0.127  53.418  1.00  0.00     0.003 A 
HETATM    5  C5  UNL     1      26.349   0.933  52.539  1.00  0.00     0.032 A 
HETATM    6  C6  UNL     1      25.103   1.407  52.122  1.00  0.00     0.058 A 
HETATM    7  C7  UNL     1      23.930   0.834  52.571  1.00  0.00    -0.020 A 
HETATM    8  C8  UNL     1      22.504   1.138  52.289  1.00  0.00     0.069 C 
HETATM    9  C9  UNL     1      22.323   1.842  51.010  1.00  0.00    -0.012 C 
HETATM   10  C10 UNL     1      22.993   2.804  50.405  1.00  0.00    -0.027 A 
HETATM   11  C11 UNL     1      22.392   3.158  49.125  1.00  0.00     0.042 A 
HETATM   12  C12 UNL     1      22.916   4.103  48.364  1.00  0.00     0.069 A 
HETATM   13  N1  UNL     1      24.084   4.757  48.845  1.00  0.00    -0.233 NA
HETATM   14  C19 UNL     1      24.649   4.482  49.961  1.00  0.00     0.128 A 
HETATM   15  C20 UNL     1      24.212   3.474  50.922  1.00  0.00     0.209 A 
HETATM   16  N3  UNL     1      25.257   2.501  51.221  1.00  0.00    -0.282 N 
ENDROOT
BRANCH  12  17
HETATM   17  C13 UNL     1      22.385   4.522  47.073  1.00  0.00    -0.007 A 
HETATM   18  C14 UNL     1      21.846   3.611  46.174  1.00  0.00     0.015 A 
HETATM   19  C15 UNL     1      21.341   3.994  44.950  1.00  0.00     0.024 A 
HETATM   20  C16 UNL     1      21.348   5.307  44.558  1.00  0.00     0.034 A 
HETATM   21 CL1  UNL     1      20.689   5.718  42.990  1.00  0.00    -0.084 Cl
HETATM   22  C17 UNL     1      21.869   6.234  45.413  1.00  0.00     0.024 A 
HETATM   23  C18 UNL     1      22.366   5.821  46.631  1.00  0.00     0.015 A 
ENDBRANCH  12  17
BRANCH  14  24
HETATM   24  N2  UNL     1      25.828   5.225  50.320  1.00  0.00    -0.385 N 
HETATM   25  H15 UNL     1      25.778   6.031  51.006  1.00  0.00     0.157 HD
HETATM   26  H16 UNL     1      26.842   5.129  50.014  1.00  0.00     0.157 HD
ENDBRANCH  14  24
BRANCH  16  27
HETATM   27  N4  UNL     1      26.512   2.563  50.640  1.00  0.00    -0.342 N 
HETATM   28  H18 UNL     1      26.614   3.167  49.825  1.00  0.00     0.177 HD
HETATM   29  H19 UNL     1      27.296   2.558  51.311  1.00  0.00     0.177 HD
ENDBRANCH  16  27
TORSDOF 3
ENDMDL
MODEL 5
REMARK VINA RESULT:      -8.3      1.373      2.379
REMARK  3 active torsions:
REMARK  status: ('A' for Active; 'I' for Inactive)
REMARK    1  A    between atoms: C12_12  and  C13_13 
REMARK    2  A    between atoms: C19_21  and  N2_22 
REMARK    3  A    between atoms: N3_24  and  N4_25 
ROOT
HETATM    1  C1  UNL     1      26.382  -0.705  53.403  1.00  0.00     0.049 C 
HETATM    2  C2  UNL     1      25.130   0.028  53.094  1.00  0.00    -0.053 A 
HETATM    3  C3  UNL     1      23.999  -0.285  53.835  1.00  0.00     0.007 A 
HETATM    4  C4  UNL     1      22.788   0.336  53.628  1.00  0.00     0.003 A 
HETATM    5  C5  UNL     1      22.729   1.300  52.643  1.00  0.00     0.032 A 
HETATM    6  C6  UNL     1      23.861   1.624  51.890  1.00  0.00     0.058 A 
HETATM    7  C7  UNL     1      25.071   0.994  52.107  1.00  0.00    -0.020 A 
HETATM    8  C8  UNL     1      26.400   1.147  51.462  1.00  0.00     0.069 C 
HETATM    9  C9  UNL     1      26.565   2.462  50.824  1.00  0.00    -0.012 C 
HETATM   10  C10 UNL     1      25.762   3.229  50.114  1.00  0.00    -0.027 A 
HETATM   11  C11 UNL     1      26.417   4.465  49.703  1.00  0.00     0.042 A 
HETATM   12  C12 UNL     1      25.779   5.369  48.981  1.00  0.00     0.069 A 
HETATM   13  N1  UNL     1      24.432   5.087  48.623  1.00  0.00    -0.233 NA
HETATM   14  C19 UNL     1      23.812   4.017  48.959  1.00  0.00     0.128 A 
HETATM   15  C20 UNL     1      24.357   2.918  49.750  1.00  0.00     0.209 A 
HETATM   16  N3  UNL     1      23.558   2.640  50.939  1.00  0.00    -0.282 N 
ENDROOT
BRANCH  12  17
HETATM   17  C13 UNL     1      26.354   6.629  48.528  1.00  0.00    -0.007 A 
HETATM   18  C14 UNL     1      25.582   7.774  48.382  1.00  0.00     0.015 A 
HETATM   19  C15 UNL     1      26.112   8.972  47.954  1.00  0.00     0.024 A 
HETATM   20  C16 UNL     1      27.442   9.090  47.648  1.00  0.00     0.034 A 
HETATM   21 CL1  UNL     1      28.045  10.643  47.111  1.00  0.00    -0.084 Cl
HETATM   22  C17 UNL     1      28.237   7.988  47.777  1.00  0.00     0.024 A 
HETATM   23  C18 UNL     1      27.677   6.803  48.208  1.00  0.00     0.015 A 
ENDBRANCH  12  17
BRANCH  14  24
HETATM   24  N2  UNL     1      22.448   3.866  48.525  1.00  0.00    -0.385 N 
HETATM   25  H15 UNL     1      21.950   4.646  48.008  1.00  0.00     0.157 HD
HETATM   26  H16 UNL     1      21.763   3.058  48.621  1.00  0.00     0.157 HD
ENDBRANCH  14  24
BRANCH  16  27
HETATM   27  N4  UNL     1      22.415   3.359  51.246  1.00  0.00    -0.342 N 
HETATM   28  H18 UNL     1      22.193   4.152  50.644  1.00  0.00     0.177 HD
HETATM   29  H19 UNL     1      21.619   2.783  51.562  1.00  0.00     0.177 HD
ENDBRANCH  16  27
TORSDOF 3
ENDMDL
MODEL 6
REMARK VINA RESULT:      -8.2      3.081      5.057
REMARK  3 active torsions:
REMARK  status: ('A' for Active; 'I' for Inactive)
REMARK    1  A    between atoms: C12_12  and  C13_13 
REMARK    2  A    between atoms: C19_21  and  N2_22 
REMARK    3  A    between atoms: N3_24  and  N4_25 
ROOT
HETATM    1  C1  UNL     1      23.641   1.415  51.335  1.00  0.00     0.049 C 
HETATM    2  C2  UNL     1      23.656   2.889  51.492  1.00  0.00    -0.053 A 
HETATM    3  C3  UNL     1      22.826   3.444  52.458  1.00  0.00     0.007 A 
HETATM    4  C4  UNL     1      22.764   4.800  52.683  1.00  0.00     0.003 A 
HETATM    5  C5  UNL     1      23.567   5.611  51.908  1.00  0.00     0.032 A 
HETATM    6  C6  UNL     1      24.405   5.065  50.933  1.00  0.00     0.058 A 
HETATM    7  C7  UNL     1      24.459   3.702  50.715  1.00  0.00    -0.020 A 
HETATM    8  C8  UNL     1      25.248   2.879  49.763  1.00  0.00     0.069 C 
HETATM    9  C9  UNL     1      26.469   3.562  49.310  1.00  0.00    -0.012 C 
HETATM   10  C10 UNL     1      26.734   4.808  48.968  1.00  0.00    -0.027 A 
HETATM   11  C11 UNL     1      28.130   4.979  48.584  1.00  0.00     0.042 A 
HETATM   12  C12 UNL     1      28.594   6.157  48.208  1.00  0.00     0.069 A 
HETATM   13  N1  UNL     1      27.679   7.246  48.192  1.00  0.00    -0.233 NA
HETATM   14  C19 UNL     1      26.445   7.147  48.519  1.00  0.00     0.128 A 
HETATM   15  C20 UNL     1      25.765   5.933  48.958  1.00  0.00     0.209 A 
HETATM   16  N3  UNL     1      25.133   6.090  50.263  1.00  0.00    -0.282 N 
ENDROOT
BRANCH  12  17
HETATM   17  C13 UNL     1      29.972   6.420  47.809  1.00  0.00    -0.007 A 
HETATM   18  C14 UNL     1      30.378   7.671  47.366  1.00  0.00     0.015 A 
HETATM   19  C15 UNL     1      31.676   7.933  46.986  1.00  0.00     0.024 A 
HETATM   20  C16 UNL     1      32.639   6.959  47.028  1.00  0.00     0.034 A 
HETATM   21 CL1  UNL     1      34.267   7.365  46.531  1.00  0.00    -0.084 Cl
HETATM   22  C17 UNL     1      32.281   5.714  47.459  1.00  0.00     0.024 A 
HETATM   23  C18 UNL     1      30.974   5.483  47.833  1.00  0.00     0.015 A 
ENDBRANCH  12  17
BRANCH  14  24
HETATM   24  N2  UNL     1      25.635   8.335  48.455  1.00  0.00    -0.385 N 
HETATM   25  H15 UNL     1      24.592   8.276  48.277  1.00  0.00     0.157 HD
HETATM   26  H16 UNL     1      25.883   9.364  48.561  1.00  0.00     0.157 HD
ENDBRANCH  14  24
BRANCH  16  27
HETATM   27  N4  UNL     1      25.192   7.277  50.974  1.00  0.00    -0.342 N 
HETATM   28  H18 UNL     1      24.545   8.014  50.696  1.00  0.00     0.177 HD
HETATM   29  H19 UNL     1      25.353   7.162  51.987  1.00  0.00     0.177 HD
ENDBRANCH  16  27
TORSDOF 3
ENDMDL
MODEL 7
REMARK VINA RESULT:      -8.2      4.145      8.327
REMARK  3 active torsions:
REMARK  status: ('A' for Active; 'I' for Inactive)
REMARK    1  A    between atoms: C12_12  and  C13_13 
REMARK    2  A    between atoms: C19_21  and  N2_22 
REMARK    3  A    between atoms: N3_24  and  N4_25 
ROOT
HETATM    1  C1  UNL     1      23.397   6.955  46.871  1.00  0.00     0.049 C 
HETATM    2  C2  UNL     1      23.728   7.003  48.316  1.00  0.00    -0.053 A 
HETATM    3  C3  UNL     1      24.171   8.212  48.837  1.00  0.00     0.007 A 
HETATM    4  C4  UNL     1      24.504   8.364  50.163  1.00  0.00     0.003 A 
HETATM    5  C5  UNL     1      24.383   7.259  50.979  1.00  0.00     0.032 A 
HETATM    6  C6  UNL     1      23.939   6.037  50.467  1.00  0.00     0.058 A 
HETATM    7  C7  UNL     1      23.607   5.896  49.134  1.00  0.00    -0.020 A 
HETATM    8  C8  UNL     1      23.118   4.733  48.349  1.00  0.00     0.069 C 
HETATM    9  C9  UNL     1      22.463   3.723  49.194  1.00  0.00    -0.012 C 
HETATM   10  C10 UNL     1      22.735   3.227  50.386  1.00  0.00    -0.027 A 
HETATM   11  C11 UNL     1      21.756   2.226  50.791  1.00  0.00     0.042 A 
HETATM   12  C12 UNL     1      21.852   1.609  51.955  1.00  0.00     0.069 A 
HETATM   13  N1  UNL     1      22.946   1.963  52.793  1.00  0.00    -0.233 NA
HETATM   14  C19 UNL     1      23.831   2.835  52.483  1.00  0.00     0.128 A 
HETATM   15  C20 UNL     1      23.882   3.609  51.247  1.00  0.00     0.209 A 
HETATM   16  N3  UNL     1      23.896   5.047  51.492  1.00  0.00    -0.282 N 
ENDROOT
BRANCH  12  17
HETATM   17  C13 UNL     1      20.922   0.598  52.441  1.00  0.00    -0.007 A 
HETATM   18  C14 UNL     1      19.642   0.471  51.919  1.00  0.00     0.015 A 
HETATM   19  C15 UNL     1      18.753  -0.480  52.370  1.00  0.00     0.024 A 
HETATM   20  C16 UNL     1      19.094  -1.356  53.367  1.00  0.00     0.034 A 
HETATM   21 CL1  UNL     1      17.913  -2.537  53.888  1.00  0.00    -0.084 Cl
HETATM   22  C17 UNL     1      20.345  -1.265  53.907  1.00  0.00     0.024 A 
HETATM   23  C18 UNL     1      21.212  -0.302  53.435  1.00  0.00     0.015 A 
ENDBRANCH  12  17
BRANCH  14  24
HETATM   24  N2  UNL     1      24.884   3.092  53.431  1.00  0.00    -0.385 N 
HETATM   25  H15 UNL     1      24.662   3.366  54.431  1.00  0.00     0.157 HD
HETATM   26  H16 UNL     1      25.942   3.061  53.335  1.00  0.00     0.157 HD
ENDBRANCH  14  24
BRANCH  16  27
HETATM   27  N4  UNL     1      23.867   5.579  52.770  1.00  0.00    -0.342 N 
HETATM   28  H18 UNL     1      24.741   5.568  53.294  1.00  0.00     0.177 HD
HETATM   29  H19 UNL     1      23.280   6.423  52.869  1.00  0.00     0.177 HD
ENDBRANCH  16  27
TORSDOF 3
ENDMDL
MODEL 8
REMARK VINA RESULT:      -8.2      4.532      6.300
REMARK  3 active torsions:
REMARK  status: ('A' for Active; 'I' for Inactive)
REMARK    1  A    between atoms: C12_12  and  C13_13 
REMARK    2  A    between atoms: C19_21  and  N2_22 
REMARK    3  A    between atoms: N3_24  and  N4_25 
ROOT
HETATM    1  C1  UNL     1      18.893   4.620  50.024  1.00  0.00     0.049 C 
HETATM    2  C2  UNL     1      18.742   3.218  50.484  1.00  0.00    -0.053 A 
HETATM    3  C3  UNL     1      17.610   2.524  50.079  1.00  0.00     0.007 A 
HETATM    4  C4  UNL     1      17.374   1.220  50.450  1.00  0.00     0.003 A 
HETATM    5  C5  UNL     1      18.313   0.608  51.253  1.00  0.00     0.032 A 
HETATM    6  C6  UNL     1      19.456   1.297  51.669  1.00  0.00     0.058 A 
HETATM    7  C7  UNL     1      19.683   2.605  51.290  1.00  0.00    -0.020 A 
HETATM    8  C8  UNL     1      20.793   3.547  51.585  1.00  0.00     0.069 C 
HETATM    9  C9  UNL     1      22.037   2.851  51.947  1.00  0.00    -0.012 C 
HETATM   10  C10 UNL     1      22.297   1.790  52.687  1.00  0.00    -0.027 A 
HETATM   11  C11 UNL     1      23.725   1.500  52.733  1.00  0.00     0.042 A 
HETATM   12  C12 UNL     1      24.191   0.475  53.424  1.00  0.00     0.069 A 
HETATM   13  N1  UNL     1      23.244  -0.330  54.117  1.00  0.00    -0.233 NA
HETATM   14  C19 UNL     1      21.982  -0.117  54.108  1.00  0.00     0.128 A 
HETATM   15  C20 UNL     1      21.295   0.961  53.404  1.00  0.00     0.209 A 
HETATM   16  N3  UNL     1      20.275   0.465  52.487  1.00  0.00    -0.282 N 
ENDROOT
BRANCH  12  17
HETATM   17  C13 UNL     1      25.598   0.110  53.526  1.00  0.00    -0.007 A 
HETATM   18  C14 UNL     1      26.179  -0.809  52.663  1.00  0.00     0.015 A 
HETATM   19  C15 UNL     1      27.508  -1.163  52.748  1.00  0.00     0.024 A 
HETATM   20  C16 UNL     1      28.328  -0.619  53.701  1.00  0.00     0.034 A 
HETATM   21 CL1  UNL     1      30.005  -1.116  53.749  1.00  0.00    -0.084 Cl
HETATM   22  C17 UNL     1      27.796   0.290  54.570  1.00  0.00     0.024 A 
HETATM   23  C18 UNL     1      26.463   0.624  54.459  1.00  0.00     0.015 A 
ENDBRANCH  12  17
BRANCH  14  24
HETATM   24  N2  UNL     1      21.142  -1.015  54.857  1.00  0.00    -0.385 N 
HETATM   25  H15 UNL     1      20.216  -0.690  55.258  1.00  0.00     0.157 HD
HETATM   26  H16 UNL     1      21.262  -2.038  55.119  1.00  0.00     0.157 HD
ENDBRANCH  14  24
BRANCH  16  27
HETATM   27  N4  UNL     1      20.014  -0.886  52.333  1.00  0.00    -0.342 N 
HETATM   28  H18 UNL     1      20.820  -1.510  52.293  1.00  0.00     0.177 HD
HETATM   29  H19 UNL     1      19.193  -1.226  52.858  1.00  0.00     0.177 HD
ENDBRANCH  16  27
TORSDOF 3
ENDMDL
MODEL 9
REMARK VINA RESULT:      -8.1      3.415      8.572
REMARK  3 active torsions:
REMARK  status: ('A' for Active; 'I' for Inactive)
REMARK    1  A    between atoms: C12_12  and  C13_13 
REMARK    2  A    between atoms: C19_21  and  N2_22 
REMARK    3  A    between atoms: N3_24  and  N4_25 
ROOT
HETATM    1  C1  UNL     1      29.392   7.634  45.971  1.00  0.00     0.049 C 
HETATM    2  C2  UNL     1      28.081   8.165  46.415  1.00  0.00    -0.053 A 
HETATM    3  C3  UNL     1      27.571   9.269  45.744  1.00  0.00     0.007 A 
HETATM    4  C4  UNL     1      26.363   9.839  46.077  1.00  0.00     0.003 A 
HETATM    5  C5  UNL     1      25.657   9.270  47.116  1.00  0.00     0.032 A 
HETATM    6  C6  UNL     1      26.160   8.159  47.799  1.00  0.00     0.058 A 
HETATM    7  C7  UNL     1      27.373   7.596  47.456  1.00  0.00    -0.020 A 
HETATM    8  C8  UNL     1      28.120   6.436  48.007  1.00  0.00     0.069 C 
HETATM    9  C9  UNL     1      27.243   5.483  48.703  1.00  0.00    -0.012 C 
HETATM   10  C10 UNL     1      26.213   5.629  49.515  1.00  0.00    -0.027 A 
HETATM   11  C11 UNL     1      25.676   4.343  49.944  1.00  0.00     0.042 A 
HETATM   12  C12 UNL     1      24.641   4.275  50.762  1.00  0.00     0.069 A 
HETATM   13  N1  UNL     1      24.076   5.503  51.204  1.00  0.00    -0.233 NA
HETATM   14  C19 UNL     1      24.510   6.657  50.856  1.00  0.00     0.128 A 
HETATM   15  C20 UNL     1      25.636   6.920  49.966  1.00  0.00     0.209 A 
HETATM   16  N3  UNL     1      25.261   7.751  48.827  1.00  0.00    -0.282 N 
ENDROOT
BRANCH  12  17
HETATM   17  C13 UNL     1      24.039   3.037  51.242  1.00  0.00    -0.007 A 
HETATM   18  C14 UNL     1      24.451   2.434  52.422  1.00  0.00     0.015 A 
HETATM   19  C15 UNL     1      23.890   1.264  52.887  1.00  0.00     0.024 A 
HETATM   20  C16 UNL     1      22.889   0.633  52.196  1.00  0.00     0.034 A 
HETATM   21 CL1  UNL     1      22.225  -0.849  52.847  1.00  0.00    -0.084 Cl
HETATM   22  C17 UNL     1      22.454   1.195  51.030  1.00  0.00     0.024 A 
HETATM   23  C18 UNL     1      23.035   2.366  50.591  1.00  0.00     0.015 A 
ENDBRANCH  12  17
BRANCH  14  24
HETATM   24  N2  UNL     1      23.838   7.816  51.382  1.00  0.00    -0.385 N 
HETATM   25  H15 UNL     1      24.386   8.662  51.711  1.00  0.00     0.157 HD
HETATM   26  H16 UNL     1      22.806   8.028  51.525  1.00  0.00     0.157 HD
ENDBRANCH  14  24
BRANCH  16  27
HETATM   27  N4  UNL     1      23.971   8.220  48.648  1.00  0.00    -0.342 N 
HETATM   28  H18 UNL     1      23.215   7.651  49.028  1.00  0.00     0.177 HD
HETATM   29  H19 UNL     1      23.870   9.244  48.744  1.00  0.00     0.177 HD
ENDBRANCH  16  27
TORSDOF 3
ENDMDL
