MODEL 1
REMARK VINA RESULT:      -8.3      0.000      0.000
REMARK  6 active torsions:
REMARK  status: ('A' for Active; 'I' for Inactive)
REMARK    1  A    between atoms: C2_2  and  C3_3 
REMARK    2  A    between atoms: C3_3  and  C4_4 
REMARK    3  A    between atoms: C5_5  and  C6_6 
REMARK    4  A    between atoms: C6_6  and  C7_7 
REMARK    5  A    between atoms: C10_10  and  N1_11 
REMARK    6  A    between atoms: N1_11  and  C11_12 
ROOT
HETATM    1  C7  UNL     1      22.084   1.980  50.940  1.00  0.00     0.046 A 
HETATM    2  C8  UNL     1      22.962   1.140  51.589  1.00  0.00     0.046 A 
HETATM    3  C9  UNL     1      22.706   0.469  52.763  1.00  0.00     0.042 A 
HETATM    4  C10 UNL     1      23.605  -0.367  53.389  1.00  0.00     0.142 A 
HETATM    5  N2  UNL     1      23.120  -0.902  54.514  1.00  0.00    -0.224 NA
HETATM    6  C17 UNL     1      21.903  -0.689  55.028  1.00  0.00     0.236 A 
HETATM    7  N3  UNL     1      21.036   0.128  54.408  1.00  0.00    -0.240 NA
HETATM    8  C18 UNL     1      21.446   0.706  53.269  1.00  0.00     0.089 A 
HETATM    9  C19 UNL     1      20.536   1.535  52.659  1.00  0.00     0.149 A 
HETATM   10  N4  UNL     1      20.861   2.168  51.497  1.00  0.00    -0.262 NA
ENDROOT
BRANCH   4  11
HETATM   11  N1  UNL     1      24.883  -0.567  52.825  1.00  0.00    -0.340 N 
HETATM   12  H11 UNL     1      25.040  -1.237  52.075  1.00  0.00     0.167 HD
BRANCH  11  13
HETATM   13  C11 UNL     1      26.090   0.085  53.176  1.00  0.00     0.035 A 
HETATM   14  C12 UNL     1      26.176   1.438  53.401  1.00  0.00     0.032 A 
HETATM   15  C13 UNL     1      27.336   2.099  53.738  1.00  0.00     0.046 A 
HETATM   16  C14 UNL     1      28.513   1.394  53.870  1.00  0.00     0.138 A 
HETATM   17  F1  UNL     1      29.698   1.961  54.197  1.00  0.00    -0.204 F 
HETATM   18  C15 UNL     1      28.482   0.052  53.658  1.00  0.00     0.074 A 
HETATM   19 CL1  UNL     1      29.932  -0.893  53.810  1.00  0.00    -0.081 Cl
HETATM   20  C16 UNL     1      27.295  -0.555  53.325  1.00  0.00     0.056 A 
ENDBRANCH  11  13
ENDBRANCH   4  11
BRANCH   1  21
HETATM   21  C6  UNL     1      22.416   2.673  49.683  1.00  0.00     0.153 C 
BRANCH  21  22
HETATM   22  C5  UNL     1      23.842   3.026  49.670  1.00  0.00    -0.101 C 
HETATM   23  C4  UNL     1      25.018   3.302  49.667  1.00  0.00    -0.106 C 
BRANCH  23  24
HETATM   24  C3  UNL     1      26.434   3.644  49.642  1.00  0.00     0.093 C 
BRANCH  24  25
HETATM   25  C2  UNL     1      26.575   5.010  48.982  1.00  0.00     0.007 C 
HETATM   26  C1  UNL     1      28.022   5.128  48.539  1.00  0.00     0.006 C 
ENDBRANCH  24  25
ENDBRANCH  23  24
ENDBRANCH  21  22
ENDBRANCH   1  21
TORSDOF 6
ENDMDL
MODEL 2
REMARK VINA RESULT:      -8.3      1.397      2.024
REMARK  6 active torsions:
REMARK  status: ('A' for Active; 'I' for Inactive)
REMARK    1  A    between atoms: C2_2  and  C3_3 
REMARK    2  A    between atoms: C3_3  and  C4_4 
REMARK    3  A    between atoms: C5_5  and  C6_6 
REMARK    4  A    between atoms: C6_6  and  C7_7 
REMARK    5  A    between atoms: C10_10  and  N1_11 
REMARK    6  A    between atoms: N1_11  and  C11_12 
ROOT
HETATM    1  C7  UNL     1      21.071   0.555  51.471  1.00  0.00     0.046 A 
HETATM    2  C8  UNL     1      22.345   0.394  51.971  1.00  0.00     0.046 A 
HETATM    3  C9  UNL     1      22.664  -0.222  53.160  1.00  0.00     0.042 A 
HETATM    4  C10 UNL     1      23.949  -0.369  53.634  1.00  0.00     0.142 A 
HETATM    5  N2  UNL     1      24.000  -1.003  54.810  1.00  0.00    -0.224 NA
HETATM    6  C17 UNL     1      22.952  -1.468  55.500  1.00  0.00     0.236 A 
HETATM    7  N3  UNL     1      21.704  -1.318  55.027  1.00  0.00    -0.240 NA
HETATM    8  C18 UNL     1      21.567  -0.691  53.849  1.00  0.00     0.089 A 
HETATM    9  C19 UNL     1      20.278  -0.555  53.392  1.00  0.00     0.149 A 
HETATM   10  N4  UNL     1      20.037   0.069  52.204  1.00  0.00    -0.262 NA
ENDROOT
BRANCH   4  11
HETATM   11  N1  UNL     1      25.033   0.138  52.885  1.00  0.00    -0.340 N 
HETATM   12  H11 UNL     1      24.892   0.732  52.071  1.00  0.00     0.167 HD
BRANCH  11  13
HETATM   13  C11 UNL     1      26.413  -0.074  53.118  1.00  0.00     0.035 A 
HETATM   14  C12 UNL     1      27.049  -1.262  52.842  1.00  0.00     0.032 A 
HETATM   15  C13 UNL     1      28.388  -1.497  53.064  1.00  0.00     0.046 A 
HETATM   16  C14 UNL     1      29.180  -0.503  53.595  1.00  0.00     0.138 A 
HETATM   17  F1  UNL     1      30.503  -0.647  53.846  1.00  0.00    -0.204 F 
HETATM   18  C15 UNL     1      28.600   0.691  53.886  1.00  0.00     0.074 A 
HETATM   19 CL1  UNL     1      29.545   1.985  54.556  1.00  0.00    -0.081 Cl
HETATM   20  C16 UNL     1      27.259   0.871  53.643  1.00  0.00     0.056 A 
ENDBRANCH  11  13
ENDBRANCH   4  11
BRANCH   1  21
HETATM   21  C6  UNL     1      20.790   1.225  50.189  1.00  0.00     0.153 C 
BRANCH  21  22
HETATM   22  C5  UNL     1      21.954   2.022  49.778  1.00  0.00    -0.101 C 
HETATM   23  C4  UNL     1      22.903   2.683  49.428  1.00  0.00    -0.106 C 
BRANCH  23  24
HETATM   24  C3  UNL     1      24.051   3.486  49.028  1.00  0.00     0.093 C 
BRANCH  24  25
HETATM   25  C2  UNL     1      25.197   3.171  49.981  1.00  0.00     0.007 C 
HETATM   26  C1  UNL     1      26.419   3.889  49.436  1.00  0.00     0.006 C 
ENDBRANCH  24  25
ENDBRANCH  23  24
ENDBRANCH  21  22
ENDBRANCH   1  21
TORSDOF 6
ENDMDL
MODEL 3
REMARK VINA RESULT:      -8.2      3.096      6.013
REMARK  6 active torsions:
REMARK  status: ('A' for Active; 'I' for Inactive)
REMARK    1  A    between atoms: C2_2  and  C3_3 
REMARK    2  A    between atoms: C3_3  and  C4_4 
REMARK    3  A    between atoms: C5_5  and  C6_6 
REMARK    4  A    between atoms: C6_6  and  C7_7 
REMARK    5  A    between atoms: C10_10  and  N1_11 
REMARK    6  A    between atoms: N1_11  and  C11_12 
ROOT
HETATM    1  C7  UNL     1      24.379  -0.422  54.028  1.00  0.00     0.046 A 
HETATM    2  C8  UNL     1      24.892   0.424  53.070  1.00  0.00     0.046 A 
HETATM    3  C9  UNL     1      26.123   1.036  53.120  1.00  0.00     0.042 A 
HETATM    4  C10 UNL     1      26.610   1.878  52.145  1.00  0.00     0.142 A 
HETATM    5  N2  UNL     1      27.831   2.345  52.423  1.00  0.00    -0.224 NA
HETATM    6  C17 UNL     1      28.554   2.061  53.513  1.00  0.00     0.236 A 
HETATM    7  N3  UNL     1      28.069   1.238  54.457  1.00  0.00    -0.240 NA
HETATM    8  C18 UNL     1      26.846   0.726  54.252  1.00  0.00     0.089 A 
HETATM    9  C19 UNL     1      26.378  -0.112  55.235  1.00  0.00     0.149 A 
HETATM   10  N4  UNL     1      25.146  -0.682  55.118  1.00  0.00    -0.262 NA
ENDROOT
BRANCH   4  11
HETATM   11  N1  UNL     1      25.820   2.163  51.009  1.00  0.00    -0.340 N 
HETATM   12  H11 UNL     1      25.178   1.478  50.617  1.00  0.00     0.167 HD
BRANCH  11  13
HETATM   13  C11 UNL     1      25.783   3.368  50.268  1.00  0.00     0.035 A 
HETATM   14  C12 UNL     1      24.640   4.114  50.103  1.00  0.00     0.032 A 
HETATM   15  C13 UNL     1      24.574   5.287  49.384  1.00  0.00     0.046 A 
HETATM   16  C14 UNL     1      25.706   5.782  48.773  1.00  0.00     0.138 A 
HETATM   17  F1  UNL     1      25.731   6.924  48.046  1.00  0.00    -0.204 F 
HETATM   18  C15 UNL     1      26.863   5.080  48.905  1.00  0.00     0.074 A 
HETATM   19 CL1  UNL     1      28.324   5.652  48.159  1.00  0.00    -0.081 Cl
HETATM   20  C16 UNL     1      26.871   3.917  49.636  1.00  0.00     0.056 A 
ENDBRANCH  11  13
ENDBRANCH   4  11
BRANCH   1  21
HETATM   21  C6  UNL     1      23.049  -1.049  53.919  1.00  0.00     0.153 C 
BRANCH  21  22
HETATM   22  C5  UNL     1      22.317  -0.468  52.786  1.00  0.00    -0.101 C 
HETATM   23  C4  UNL     1      21.701   0.005  51.860  1.00  0.00    -0.106 C 
BRANCH  23  24
HETATM   24  C3  UNL     1      20.972   0.594  50.745  1.00  0.00     0.093 C 
BRANCH  24  25
HETATM   25  C2  UNL     1      21.918   1.538  50.013  1.00  0.00     0.007 C 
HETATM   26  C1  UNL     1      21.678   1.323  48.530  1.00  0.00     0.006 C 
ENDBRANCH  24  25
ENDBRANCH  23  24
ENDBRANCH  21  22
ENDBRANCH   1  21
TORSDOF 6
ENDMDL
MODEL 4
REMARK VINA RESULT:      -8.1      3.331      6.087
REMARK  6 active torsions:
REMARK  status: ('A' for Active; 'I' for Inactive)
REMARK    1  A    between atoms: C2_2  and  C3_3 
REMARK    2  A    between atoms: C3_3  and  C4_4 
REMARK    3  A    between atoms: C5_5  and  C6_6 
REMARK    4  A    between atoms: C6_6  and  C7_7 
REMARK    5  A    between atoms: C10_10  and  N1_11 
REMARK    6  A    between atoms: N1_11  and  C11_12 
ROOT
HETATM    1  C7  UNL     1      24.669  -0.365  53.719  1.00  0.00     0.046 A 
HETATM    2  C8  UNL     1      25.307   0.481  52.838  1.00  0.00     0.046 A 
HETATM    3  C9  UNL     1      26.515   1.103  53.061  1.00  0.00     0.042 A 
HETATM    4  C10 UNL     1      27.130   1.944  52.159  1.00  0.00     0.142 A 
HETATM    5  N2  UNL     1      28.295   2.422  52.606  1.00  0.00    -0.224 NA
HETATM    6  C17 UNL     1      28.857   2.150  53.790  1.00  0.00     0.236 A 
HETATM    7  N3  UNL     1      28.248   1.328  54.660  1.00  0.00    -0.240 NA
HETATM    8  C18 UNL     1      27.070   0.805  54.286  1.00  0.00     0.089 A 
HETATM    9  C19 UNL     1      26.473  -0.032  55.198  1.00  0.00     0.149 A 
HETATM   10  N4  UNL     1      25.274  -0.612  54.909  1.00  0.00    -0.262 NA
ENDROOT
BRANCH   4  11
HETATM   11  N1  UNL     1      26.509   2.216  50.921  1.00  0.00    -0.340 N 
HETATM   12  H11 UNL     1      26.604   1.590  50.124  1.00  0.00     0.167 HD
BRANCH  11  13
HETATM   13  C11 UNL     1      25.698   3.329  50.591  1.00  0.00     0.035 A 
HETATM   14  C12 UNL     1      25.964   4.165  49.533  1.00  0.00     0.032 A 
HETATM   15  C13 UNL     1      25.196   5.257  49.192  1.00  0.00     0.046 A 
HETATM   16  C14 UNL     1      24.077   5.567  49.935  1.00  0.00     0.138 A 
HETATM   17  F1  UNL     1      23.268   6.620  49.673  1.00  0.00    -0.204 F 
HETATM   18  C15 UNL     1      23.771   4.771  50.993  1.00  0.00     0.074 A 
HETATM   19 CL1  UNL     1      22.373   5.108  51.968  1.00  0.00    -0.081 Cl
HETATM   20  C16 UNL     1      24.572   3.693  51.286  1.00  0.00     0.056 A 
ENDBRANCH  11  13
ENDBRANCH   4  11
BRANCH   1  21
HETATM   21  C6  UNL     1      23.374  -1.002  53.424  1.00  0.00     0.153 C 
BRANCH  21  22
HETATM   22  C5  UNL     1      22.562  -0.114  52.582  1.00  0.00    -0.101 C 
HETATM   23  C4  UNL     1      21.884   0.618  51.901  1.00  0.00    -0.106 C 
BRANCH  23  24
HETATM   24  C3  UNL     1      21.086   1.512  51.072  1.00  0.00     0.093 C 
BRANCH  24  25
HETATM   25  C2  UNL     1      21.235   1.064  49.623  1.00  0.00     0.007 C 
HETATM   26  C1  UNL     1      22.309   1.944  49.009  1.00  0.00     0.006 C 
ENDBRANCH  24  25
ENDBRANCH  23  24
ENDBRANCH  21  22
ENDBRANCH   1  21
TORSDOF 6
ENDMDL
MODEL 5
REMARK VINA RESULT:      -8.1      2.088      4.985
REMARK  6 active torsions:
REMARK  status: ('A' for Active; 'I' for Inactive)
REMARK    1  A    between atoms: C2_2  and  C3_3 
REMARK    2  A    between atoms: C3_3  and  C4_4 
REMARK    3  A    between atoms: C5_5  and  C6_6 
REMARK    4  A    between atoms: C6_6  and  C7_7 
REMARK    5  A    between atoms: C10_10  and  N1_11 
REMARK    6  A    between atoms: N1_11  and  C11_12 
ROOT
HETATM    1  C7  UNL     1      22.228   3.016  51.650  1.00  0.00     0.046 A 
HETATM    2  C8  UNL     1      23.540   2.768  51.992  1.00  0.00     0.046 A 
HETATM    3  C9  UNL     1      24.637   3.070  51.219  1.00  0.00     0.042 A 
HETATM    4  C10 UNL     1      25.939   2.810  51.588  1.00  0.00     0.142 A 
HETATM    5  N2  UNL     1      26.827   3.198  50.668  1.00  0.00    -0.224 NA
HETATM    6  C17 UNL     1      26.546   3.781  49.496  1.00  0.00     0.236 A 
HETATM    7  N3  UNL     1      25.273   4.028  49.147  1.00  0.00    -0.240 NA
HETATM    8  C18 UNL     1      24.318   3.669  50.019  1.00  0.00     0.089 A 
HETATM    9  C19 UNL     1      23.027   3.936  49.634  1.00  0.00     0.149 A 
HETATM   10  N4  UNL     1      21.988   3.607  50.452  1.00  0.00    -0.262 NA
ENDROOT
BRANCH   4  11
HETATM   11  N1  UNL     1      26.203   2.190  52.828  1.00  0.00    -0.340 N 
HETATM   12  H11 UNL     1      25.613   2.345  53.643  1.00  0.00     0.167 HD
BRANCH  11  13
HETATM   13  C11 UNL     1      27.261   1.301  53.137  1.00  0.00     0.035 A 
HETATM   14  C12 UNL     1      28.443   1.708  53.709  1.00  0.00     0.032 A 
HETATM   15  C13 UNL     1      29.490   0.866  54.014  1.00  0.00     0.046 A 
HETATM   16  C14 UNL     1      29.387  -0.482  53.747  1.00  0.00     0.138 A 
HETATM   17  F1  UNL     1      30.365  -1.379  54.013  1.00  0.00    -0.204 F 
HETATM   18  C15 UNL     1      28.237  -0.936  53.181  1.00  0.00     0.074 A 
HETATM   19 CL1  UNL     1      28.046  -2.624  52.820  1.00  0.00    -0.081 Cl
HETATM   20  C16 UNL     1      27.225  -0.051  52.898  1.00  0.00     0.056 A 
ENDBRANCH  11  13
ENDBRANCH   4  11
BRANCH   1  21
HETATM   21  C6  UNL     1      21.091   2.669  52.522  1.00  0.00     0.153 C 
BRANCH  21  22
HETATM   22  C5  UNL     1      21.244   1.294  53.015  1.00  0.00    -0.101 C 
HETATM   23  C4  UNL     1      21.384   0.167  53.427  1.00  0.00    -0.106 C 
BRANCH  23  24
HETATM   24  C3  UNL     1      21.531  -1.192  53.931  1.00  0.00     0.093 C 
BRANCH  24  25
HETATM   25  C2  UNL     1      22.701  -1.207  54.907  1.00  0.00     0.007 C 
HETATM   26  C1  UNL     1      23.900  -0.667  54.148  1.00  0.00     0.006 C 
ENDBRANCH  24  25
ENDBRANCH  23  24
ENDBRANCH  21  22
ENDBRANCH   1  21
TORSDOF 6
ENDMDL
MODEL 6
REMARK VINA RESULT:      -8.0      3.268      5.716
REMARK  6 active torsions:
REMARK  status: ('A' for Active; 'I' for Inactive)
REMARK    1  A    between atoms: C2_2  and  C3_3 
REMARK    2  A    between atoms: C3_3  and  C4_4 
REMARK    3  A    between atoms: C5_5  and  C6_6 
REMARK    4  A    between atoms: C6_6  and  C7_7 
REMARK    5  A    between atoms: C10_10  and  N1_11 
REMARK    6  A    between atoms: N1_11  and  C11_12 
ROOT
HETATM    1  C7  UNL     1      22.323  -1.083  54.468  1.00  0.00     0.046 A 
HETATM    2  C8  UNL     1      23.147  -0.356  53.637  1.00  0.00     0.046 A 
HETATM    3  C9  UNL     1      24.491  -0.139  53.835  1.00  0.00     0.042 A 
HETATM    4  C10 UNL     1      25.291   0.592  52.985  1.00  0.00     0.142 A 
HETATM    5  N2  UNL     1      26.562   0.658  53.394  1.00  0.00    -0.224 NA
HETATM    6  C17 UNL     1      27.064   0.094  54.499  1.00  0.00     0.236 A 
HETATM    7  N3  UNL     1      26.275  -0.617  55.320  1.00  0.00    -0.240 NA
HETATM    8  C18 UNL     1      24.981  -0.730  54.980  1.00  0.00     0.089 A 
HETATM    9  C19 UNL     1      24.201  -1.464  55.839  1.00  0.00     0.149 A 
HETATM   10  N4  UNL     1      22.874  -1.636  55.579  1.00  0.00    -0.262 NA
ENDROOT
BRANCH   4  11
HETATM   11  N1  UNL     1      24.730   1.179  51.829  1.00  0.00    -0.340 N 
HETATM   12  H11 UNL     1      24.561   0.641  50.982  1.00  0.00     0.167 HD
BRANCH  11  13
HETATM   13  C11 UNL     1      24.328   2.525  51.657  1.00  0.00     0.035 A 
HETATM   14  C12 UNL     1      23.833   3.299  52.679  1.00  0.00     0.032 A 
HETATM   15  C13 UNL     1      23.430   4.609  52.538  1.00  0.00     0.046 A 
HETATM   16  C14 UNL     1      23.514   5.224  51.308  1.00  0.00     0.138 A 
HETATM   17  F1  UNL     1      23.140   6.505  51.079  1.00  0.00    -0.204 F 
HETATM   18  C15 UNL     1      23.997   4.501  50.263  1.00  0.00     0.074 A 
HETATM   19 CL1  UNL     1      24.128   5.219  48.687  1.00  0.00    -0.081 Cl
HETATM   20  C16 UNL     1      24.385   3.198  50.461  1.00  0.00     0.056 A 
ENDBRANCH  11  13
ENDBRANCH   4  11
BRANCH   1  21
HETATM   21  C6  UNL     1      20.887  -1.281  54.203  1.00  0.00     0.153 C 
BRANCH  21  22
HETATM   22  C5  UNL     1      20.433  -0.327  53.182  1.00  0.00    -0.101 C 
HETATM   23  C4  UNL     1      20.075   0.460  52.339  1.00  0.00    -0.106 C 
BRANCH  23  24
HETATM   24  C3  UNL     1      19.626   1.395  51.316  1.00  0.00     0.093 C 
BRANCH  24  25
HETATM   25  C2  UNL     1      20.858   1.932  50.599  1.00  0.00     0.007 C 
HETATM   26  C1  UNL     1      21.510   0.744  49.915  1.00  0.00     0.006 C 
ENDBRANCH  24  25
ENDBRANCH  23  24
ENDBRANCH  21  22
ENDBRANCH   1  21
TORSDOF 6
ENDMDL
MODEL 7
REMARK VINA RESULT:      -7.8      1.581      2.141
REMARK  6 active torsions:
REMARK  status: ('A' for Active; 'I' for Inactive)
REMARK    1  A    between atoms: C2_2  and  C3_3 
REMARK    2  A    between atoms: C3_3  and  C4_4 
REMARK    3  A    between atoms: C5_5  and  C6_6 
REMARK    4  A    between atoms: C6_6  and  C7_7 
REMARK    5  A    between atoms: C10_10  and  N1_11 
REMARK    6  A    between atoms: N1_11  and  C11_12 
ROOT
HETATM    1  C7  UNL     1      23.438   3.824  50.730  1.00  0.00     0.046 A 
HETATM    2  C8  UNL     1      24.130   3.080  51.660  1.00  0.00     0.046 A 
HETATM    3  C9  UNL     1      23.726   1.871  52.177  1.00  0.00     0.042 A 
HETATM    4  C10 UNL     1      24.441   1.149  53.107  1.00  0.00     0.142 A 
HETATM    5  N2  UNL     1      23.840   0.005  53.450  1.00  0.00    -0.224 NA
HETATM    6  C17 UNL     1      22.671  -0.445  52.977  1.00  0.00     0.236 A 
HETATM    7  N3  UNL     1      21.984   0.269  52.071  1.00  0.00    -0.240 NA
HETATM    8  C18 UNL     1      22.521   1.432  51.672  1.00  0.00     0.089 A 
HETATM    9  C19 UNL     1      21.794   2.137  50.744  1.00  0.00     0.149 A 
HETATM   10  N4  UNL     1      22.257   3.332  50.278  1.00  0.00    -0.262 NA
ENDROOT
BRANCH   4  11
HETATM   11  N1  UNL     1      25.668   1.652  53.590  1.00  0.00    -0.340 N 
HETATM   12  H11 UNL     1      25.746   2.587  53.986  1.00  0.00     0.167 HD
BRANCH  11  13
HETATM   13  C11 UNL     1      26.920   0.992  53.611  1.00  0.00     0.035 A 
HETATM   14  C12 UNL     1      28.095   1.619  53.953  1.00  0.00     0.032 A 
HETATM   15  C13 UNL     1      29.327   1.003  53.976  1.00  0.00     0.046 A 
HETATM   16  C14 UNL     1      29.434  -0.330  53.643  1.00  0.00     0.138 A 
HETATM   17  F1  UNL     1      30.603  -1.013  53.639  1.00  0.00    -0.204 F 
HETATM   18  C15 UNL     1      28.301  -0.996  53.297  1.00  0.00     0.074 A 
HETATM   19 CL1  UNL     1      28.369  -2.677  52.868  1.00  0.00    -0.081 Cl
HETATM   20  C16 UNL     1      27.098  -0.331  53.292  1.00  0.00     0.056 A 
ENDBRANCH  11  13
ENDBRANCH   4  11
BRANCH   1  21
HETATM   21  C6  UNL     1      23.923   5.117  50.213  1.00  0.00     0.153 C 
BRANCH  21  22
HETATM   22  C5  UNL     1      25.275   4.957  49.661  1.00  0.00    -0.101 C 
HETATM   23  C4  UNL     1      26.382   4.831  49.194  1.00  0.00    -0.106 C 
BRANCH  23  24
HETATM   24  C3  UNL     1      27.726   4.688  48.650  1.00  0.00     0.093 C 
BRANCH  24  25
HETATM   25  C2  UNL     1      28.227   6.076  48.270  1.00  0.00     0.007 C 
HETATM   26  C1  UNL     1      29.715   5.937  48.002  1.00  0.00     0.006 C 
ENDBRANCH  24  25
ENDBRANCH  23  24
ENDBRANCH  21  22
ENDBRANCH   1  21
TORSDOF 6
ENDMDL
MODEL 8
REMARK VINA RESULT:      -7.8      3.298      5.407
REMARK  6 active torsions:
REMARK  status: ('A' for Active; 'I' for Inactive)
REMARK    1  A    between atoms: C2_2  and  C3_3 
REMARK    2  A    between atoms: C3_3  and  C4_4 
REMARK    3  A    between atoms: C5_5  and  C6_6 
REMARK    4  A    between atoms: C6_6  and  C7_7 
REMARK    5  A    between atoms: C10_10  and  N1_11 
REMARK    6  A    between atoms: N1_11  and  C11_12 
ROOT
HETATM    1  C7  UNL     1      25.886   0.720  52.905  1.00  0.00     0.046 A 
HETATM    2  C8  UNL     1      24.628   1.231  52.670  1.00  0.00     0.046 A 
HETATM    3  C9  UNL     1      23.450   0.710  53.154  1.00  0.00     0.042 A 
HETATM    4  C10 UNL     1      22.206   1.245  52.902  1.00  0.00     0.142 A 
HETATM    5  N2  UNL     1      21.218   0.558  53.484  1.00  0.00    -0.224 NA
HETATM    6  C17 UNL     1      21.358  -0.536  54.242  1.00  0.00     0.236 A 
HETATM    7  N3  UNL     1      22.576  -1.048  54.480  1.00  0.00    -0.240 NA
HETATM    8  C18 UNL     1      23.624  -0.416  53.930  1.00  0.00     0.089 A 
HETATM    9  C19 UNL     1      24.856  -0.964  54.193  1.00  0.00     0.149 A 
HETATM   10  N4  UNL     1      25.982  -0.392  53.678  1.00  0.00    -0.262 NA
ENDROOT
BRANCH   4  11
HETATM   11  N1  UNL     1      22.091   2.397  52.094  1.00  0.00    -0.340 N 
HETATM   12  H11 UNL     1      21.959   3.323  52.496  1.00  0.00     0.167 HD
BRANCH  11  13
HETATM   13  C11 UNL     1      22.137   2.465  50.681  1.00  0.00     0.035 A 
HETATM   14  C12 UNL     1      21.821   1.404  49.866  1.00  0.00     0.032 A 
HETATM   15  C13 UNL     1      21.863   1.440  48.490  1.00  0.00     0.046 A 
HETATM   16  C14 UNL     1      22.240   2.599  47.846  1.00  0.00     0.138 A 
HETATM   17  F1  UNL     1      22.309   2.723  46.499  1.00  0.00    -0.204 F 
HETATM   18  C15 UNL     1      22.563   3.678  48.606  1.00  0.00     0.074 A 
HETATM   19 CL1  UNL     1      23.045   5.168  47.855  1.00  0.00    -0.081 Cl
HETATM   20  C16 UNL     1      22.502   3.585  49.976  1.00  0.00     0.056 A 
ENDBRANCH  11  13
ENDBRANCH   4  11
BRANCH   1  21
HETATM   21  C6  UNL     1      27.114   1.323  52.359  1.00  0.00     0.153 C 
BRANCH  21  22
HETATM   22  C5  UNL     1      26.771   2.260  51.281  1.00  0.00    -0.101 C 
HETATM   23  C4  UNL     1      26.475   3.035  50.402  1.00  0.00    -0.106 C 
BRANCH  23  24
HETATM   24  C3  UNL     1      26.141   3.976  49.342  1.00  0.00     0.093 C 
BRANCH  24  25
HETATM   25  C2  UNL     1      27.438   4.602  48.844  1.00  0.00     0.007 C 
HETATM   26  C1  UNL     1      27.110   6.038  48.477  1.00  0.00     0.006 C 
ENDBRANCH  24  25
ENDBRANCH  23  24
ENDBRANCH  21  22
ENDBRANCH   1  21
TORSDOF 6
ENDMDL
MODEL 9
REMARK VINA RESULT:      -7.8      3.560      5.527
REMARK  6 active torsions:
REMARK  status: ('A' for Active; 'I' for Inactive)
REMARK    1  A    between atoms: C2_2  and  C3_3 
REMARK    2  A    between atoms: C3_3  and  C4_4 
REMARK    3  A    between atoms: C5_5  and  C6_6 
REMARK    4  A    between atoms: C6_6  and  C7_7 
REMARK    5  A    between atoms: C10_10  and  N1_11 
REMARK    6  A    between atoms: N1_11  and  C11_12 
ROOT
HETATM    1  C7  UNL     1      25.739  -0.068  53.642  1.00  0.00     0.046 A 
HETATM    2  C8  UNL     1      24.552   0.231  53.009  1.00  0.00     0.046 A 
HETATM    3  C9  UNL     1      23.304  -0.180  53.416  1.00  0.00     0.042 A 
HETATM    4  C10 UNL     1      22.133   0.136  52.762  1.00  0.00     0.142 A 
HETATM    5  N2  UNL     1      21.052  -0.380  53.354  1.00  0.00    -0.224 NA
HETATM    6  C17 UNL     1      21.041  -1.129  54.463  1.00  0.00     0.236 A 
HETATM    7  N3  UNL     1      22.189  -1.431  55.091  1.00  0.00    -0.240 NA
HETATM    8  C18 UNL     1      23.324  -0.950  54.559  1.00  0.00     0.089 A 
HETATM    9  C19 UNL     1      24.480  -1.275  55.226  1.00  0.00     0.149 A 
HETATM   10  N4  UNL     1      25.683  -0.832  54.762  1.00  0.00    -0.262 NA
ENDROOT
BRANCH   4  11
HETATM   11  N1  UNL     1      22.177   0.925  51.592  1.00  0.00    -0.340 N 
HETATM   12  H11 UNL     1      22.378   0.521  50.679  1.00  0.00     0.167 HD
BRANCH  11  13
HETATM   13  C11 UNL     1      21.963   2.320  51.486  1.00  0.00     0.035 A 
HETATM   14  C12 UNL     1      22.564   3.238  52.315  1.00  0.00     0.032 A 
HETATM   15  C13 UNL     1      22.370   4.599  52.238  1.00  0.00     0.046 A 
HETATM   16  C14 UNL     1      21.526   5.119  51.281  1.00  0.00     0.138 A 
HETATM   17  F1  UNL     1      21.277   6.442  51.134  1.00  0.00    -0.204 F 
HETATM   18  C15 UNL     1      20.906   4.253  50.436  1.00  0.00     0.074 A 
HETATM   19 CL1  UNL     1      19.831   4.845  49.207  1.00  0.00    -0.081 Cl
HETATM   20  C16 UNL     1      21.138   2.904  50.558  1.00  0.00     0.056 A 
ENDBRANCH  11  13
ENDBRANCH   4  11
BRANCH   1  21
HETATM   21  C6  UNL     1      27.049   0.401  53.157  1.00  0.00     0.153 C 
BRANCH  21  22
HETATM   22  C5  UNL     1      26.858   1.405  52.101  1.00  0.00    -0.101 C 
HETATM   23  C4  UNL     1      26.686   2.230  51.236  1.00  0.00    -0.106 C 
BRANCH  23  24
HETATM   24  C3  UNL     1      26.497   3.237  50.200  1.00  0.00     0.093 C 
BRANCH  24  25
HETATM   25  C2  UNL     1      25.056   3.143  49.713  1.00  0.00     0.007 C 
HETATM   26  C1  UNL     1      24.656   4.542  49.280  1.00  0.00     0.006 C 
ENDBRANCH  24  25
ENDBRANCH  23  24
ENDBRANCH  21  22
ENDBRANCH   1  21
TORSDOF 6
ENDMDL
