MODEL 1
REMARK VINA RESULT:      -8.2      0.000      0.000
REMARK  4 active torsions:
REMARK  status: ('A' for Active; 'I' for Inactive)
REMARK    1  A    between atoms: C4_4  and  C5_5 
REMARK    2  A    between atoms: C5_5  and  N1_6 
REMARK    3  A    between atoms: N1_6  and  C6_7 
REMARK    4  A    between atoms: C7_9  and  C8_10 
ROOT
HETATM    1  C6  UNL     1      23.943   3.506  51.615  1.00  0.00     0.167 A 
HETATM    2  N2  UNL     1      24.897   2.864  51.884  1.00  0.00    -0.223 NA
HETATM    3  C7  UNL     1      24.975   1.691  52.449  1.00  0.00     0.083 A 
HETATM    4  C14 UNL     1      23.733   1.150  52.771  1.00  0.00     0.086 A 
HETATM    5  S2  UNL     1      22.554   2.498  52.170  1.00  0.00    -0.062 SA
ENDROOT
BRANCH   3   6
HETATM    6  C8  UNL     1      26.206   0.926  52.763  1.00  0.00     0.036 A 
HETATM    7  C9  UNL     1      26.304  -0.421  52.711  1.00  0.00     0.055 A 
HETATM    8  C10 UNL     1      27.459  -1.115  53.002  1.00  0.00     0.092 A 
HETATM    9  N3  UNL     1      27.716  -2.436  52.994  1.00  0.00    -0.150 NA
HETATM   10  C12 UNL     1      28.737  -0.559  53.401  1.00  0.00     0.020 A 
HETATM   11  N4  UNL     1      28.943  -2.704  53.330  1.00  0.00    -0.161 NA
HETATM   12  C11 UNL     1      29.656  -1.595  53.602  1.00  0.00     0.155 A 
HETATM   13  C13 UNL     1      28.967   0.796  53.547  1.00  0.00     0.065 A 
HETATM   14  S1  UNL     1      27.628   1.792  53.223  1.00  0.00    -0.099 SA
ENDBRANCH   3   6
BRANCH   1  15
HETATM   15  N1  UNL     1      24.136   4.814  50.958  1.00  0.00    -0.365 N 
HETATM   16  H6  UNL     1      24.104   5.656  51.572  1.00  0.00     0.162 HD
BRANCH  15  17
HETATM   17  C5  UNL     1      24.347   4.752  49.510  1.00  0.00     0.149 C 
BRANCH  17  18
HETATM   18  C4  UNL     1      25.160   5.915  49.057  1.00  0.00    -0.000 C 
HETATM   19  C3  UNL     1      26.456   5.745  48.784  1.00  0.00    -0.057 A 
HETATM   20  C2  UNL     1      27.125   4.434  48.913  1.00  0.00     0.003 A 
HETATM   21  C15 UNL     1      27.683   6.455  48.343  1.00  0.00     0.065 A 
HETATM   22  C1  UNL     1      28.242   5.065  48.512  1.00  0.00    -0.022 A 
ENDBRANCH  17  18
ENDBRANCH  15  17
ENDBRANCH   1  15
TORSDOF 4
ENDMDL
MODEL 2
REMARK VINA RESULT:      -8.1      3.025      4.966
REMARK  4 active torsions:
REMARK  status: ('A' for Active; 'I' for Inactive)
REMARK    1  A    between atoms: C4_4  and  C5_5 
REMARK    2  A    between atoms: C5_5  and  N1_6 
REMARK    3  A    between atoms: N1_6  and  C6_7 
REMARK    4  A    between atoms: C7_9  and  C8_10 
ROOT
HETATM    1  C6  UNL     1      23.063   1.974  51.363  1.00  0.00     0.167 A 
HETATM    2  N2  UNL     1      24.046   1.382  51.637  1.00  0.00    -0.223 NA
HETATM    3  C7  UNL     1      25.015   1.710  52.446  1.00  0.00     0.083 A 
HETATM    4  C14 UNL     1      24.828   2.948  53.056  1.00  0.00     0.086 A 
HETATM    5  S2  UNL     1      23.172   3.494  52.329  1.00  0.00    -0.062 SA
ENDROOT
BRANCH   3   6
HETATM    6  C8  UNL     1      26.233   0.923  52.755  1.00  0.00     0.036 A 
HETATM    7  C9  UNL     1      26.309  -0.426  52.693  1.00  0.00     0.055 A 
HETATM    8  C10 UNL     1      27.453  -1.141  52.979  1.00  0.00     0.092 A 
HETATM    9  N3  UNL     1      27.687  -2.465  52.961  1.00  0.00    -0.150 NA
HETATM   10  C12 UNL     1      28.739  -0.609  53.383  1.00  0.00     0.020 A 
HETATM   11  N4  UNL     1      28.910  -2.756  53.296  1.00  0.00    -0.161 NA
HETATM   12  C11 UNL     1      29.640  -1.661  53.576  1.00  0.00     0.155 A 
HETATM   13  C13 UNL     1      28.991   0.741  53.539  1.00  0.00     0.065 A 
HETATM   14  S1  UNL     1      27.669   1.762  53.221  1.00  0.00    -0.099 SA
ENDBRANCH   3   6
BRANCH   1  15
HETATM   15  N1  UNL     1      22.111   1.362  50.415  1.00  0.00    -0.365 N 
HETATM   16  H6  UNL     1      22.100   1.750  49.447  1.00  0.00     0.162 HD
BRANCH  15  17
HETATM   17  C5  UNL     1      21.299   0.277  50.968  1.00  0.00     0.149 C 
BRANCH  17  18
HETATM   18  C4  UNL     1      20.804   0.643  52.324  1.00  0.00    -0.000 C 
HETATM   19  C3  UNL     1      21.236  -0.039  53.389  1.00  0.00    -0.057 A 
HETATM   20  C2  UNL     1      22.200  -1.154  53.275  1.00  0.00     0.003 A 
HETATM   21  C15 UNL     1      21.114  -0.147  54.864  1.00  0.00     0.065 A 
HETATM   22  C1  UNL     1      22.098  -1.260  54.611  1.00  0.00    -0.022 A 
ENDBRANCH  17  18
ENDBRANCH  15  17
ENDBRANCH   1  15
TORSDOF 4
ENDMDL
MODEL 3
REMARK VINA RESULT:      -7.6      2.373      6.895
REMARK  4 active torsions:
REMARK  status: ('A' for Active; 'I' for Inactive)
REMARK    1  A    between atoms: C4_4  and  C5_5 
REMARK    2  A    between atoms: C5_5  and  N1_6 
REMARK    3  A    between atoms: N1_6  and  C6_7 
REMARK    4  A    between atoms: C7_9  and  C8_10 
ROOT
HETATM    1  C6  UNL     1      24.186   1.586  51.491  1.00  0.00     0.167 A 
HETATM    2  N2  UNL     1      24.874   2.397  50.979  1.00  0.00    -0.223 NA
HETATM    3  C7  UNL     1      24.562   3.328  50.121  1.00  0.00     0.083 A 
HETATM    4  C14 UNL     1      23.211   3.334  49.781  1.00  0.00     0.086 A 
HETATM    5  S2  UNL     1      22.543   1.904  50.818  1.00  0.00    -0.062 SA
ENDROOT
BRANCH   3   6
HETATM    6  C8  UNL     1      25.472   4.326  49.508  1.00  0.00     0.036 A 
HETATM    7  C9  UNL     1      26.789   4.123  49.278  1.00  0.00     0.055 A 
HETATM    8  C10 UNL     1      27.619   5.061  48.702  1.00  0.00     0.092 A 
HETATM    9  N3  UNL     1      28.930   5.010  48.409  1.00  0.00    -0.150 NA
HETATM   10  C12 UNL     1      27.256   6.389  48.249  1.00  0.00     0.020 A 
HETATM   11  N4  UNL     1      29.358   6.110  47.862  1.00  0.00    -0.161 NA
HETATM   12  C11 UNL     1      28.383   7.028  47.722  1.00  0.00     0.155 A 
HETATM   13  C13 UNL     1      25.976   6.904  48.344  1.00  0.00     0.065 A 
HETATM   14  S1  UNL     1      24.829   5.859  49.039  1.00  0.00    -0.099 SA
ENDBRANCH   3   6
BRANCH   1  15
HETATM   15  N1  UNL     1      24.798   0.645  52.449  1.00  0.00    -0.365 N 
HETATM   16  H6  UNL     1      24.149   0.010  52.961  1.00  0.00     0.162 HD
BRANCH  15  17
HETATM   17  C5  UNL     1      26.256   0.732  52.555  1.00  0.00     0.149 C 
BRANCH  17  18
HETATM   18  C4  UNL     1      26.855  -0.632  52.559  1.00  0.00    -0.000 C 
HETATM   19  C3  UNL     1      28.100  -0.802  53.014  1.00  0.00    -0.057 A 
HETATM   20  C2  UNL     1      28.917   0.321  53.520  1.00  0.00     0.003 A 
HETATM   21  C15 UNL     1      29.156  -1.820  53.243  1.00  0.00     0.065 A 
HETATM   22  C1  UNL     1      29.879  -0.592  53.734  1.00  0.00    -0.022 A 
ENDBRANCH  17  18
ENDBRANCH  15  17
ENDBRANCH   1  15
TORSDOF 4
ENDMDL
MODEL 4
REMARK VINA RESULT:      -7.4      3.256      4.267
REMARK  4 active torsions:
REMARK  status: ('A' for Active; 'I' for Inactive)
REMARK    1  A    between atoms: C4_4  and  C5_5 
REMARK    2  A    between atoms: C5_5  and  N1_6 
REMARK    3  A    between atoms: N1_6  and  C6_7 
REMARK    4  A    between atoms: C7_9  and  C8_10 
ROOT
HETATM    1  C6  UNL     1      21.071  -0.362  52.780  1.00  0.00     0.167 A 
HETATM    2  N2  UNL     1      22.210  -0.057  52.746  1.00  0.00    -0.223 NA
HETATM    3  C7  UNL     1      23.171  -0.339  53.582  1.00  0.00     0.083 A 
HETATM    4  C14 UNL     1      22.751  -1.114  54.662  1.00  0.00     0.086 A 
HETATM    5  S2  UNL     1      20.913  -1.339  54.288  1.00  0.00    -0.062 SA
ENDROOT
BRANCH   3   6
HETATM    6  C8  UNL     1      24.592   0.072  53.490  1.00  0.00     0.036 A 
HETATM    7  C9  UNL     1      25.562  -0.326  54.345  1.00  0.00     0.055 A 
HETATM    8  C10 UNL     1      26.880   0.063  54.240  1.00  0.00     0.092 A 
HETATM    9  N3  UNL     1      27.949  -0.243  54.998  1.00  0.00    -0.150 NA
HETATM   10  C12 UNL     1      27.458   0.934  53.236  1.00  0.00     0.020 A 
HETATM   11  N4  UNL     1      29.037   0.326  54.571  1.00  0.00    -0.161 NA
HETATM   12  C11 UNL     1      28.829   1.080  53.476  1.00  0.00     0.155 A 
HETATM   13  C13 UNL     1      26.727   1.509  52.213  1.00  0.00     0.065 A 
HETATM   14  S1  UNL     1      25.072   1.124  52.207  1.00  0.00    -0.099 SA
ENDBRANCH   3   6
BRANCH   1  15
HETATM   15  N1  UNL     1      20.188   0.085  51.684  1.00  0.00    -0.365 N 
HETATM   16  H6  UNL     1      19.381  -0.532  51.452  1.00  0.00     0.162 HD
BRANCH  15  17
HETATM   17  C5  UNL     1      20.571   1.353  51.060  1.00  0.00     0.149 C 
BRANCH  17  18
HETATM   18  C4  UNL     1      20.828   1.157  49.607  1.00  0.00    -0.000 C 
HETATM   19  C3  UNL     1      21.812   1.839  49.014  1.00  0.00    -0.057 A 
HETATM   20  C2  UNL     1      22.669   2.791  49.751  1.00  0.00     0.003 A 
HETATM   21  C15 UNL     1      22.489   2.063  47.712  1.00  0.00     0.065 A 
HETATM   22  C1  UNL     1      23.291   3.001  48.578  1.00  0.00    -0.022 A 
ENDBRANCH  17  18
ENDBRANCH  15  17
ENDBRANCH   1  15
TORSDOF 4
ENDMDL
MODEL 5
REMARK VINA RESULT:      -7.4      3.123      6.465
REMARK  4 active torsions:
REMARK  status: ('A' for Active; 'I' for Inactive)
REMARK    1  A    between atoms: C4_4  and  C5_5 
REMARK    2  A    between atoms: C5_5  and  N1_6 
REMARK    3  A    between atoms: N1_6  and  C6_7 
REMARK    4  A    between atoms: C7_9  and  C8_10 
ROOT
HETATM    1  C6  UNL     1      26.595   2.609  51.778  1.00  0.00     0.167 A 
HETATM    2  N2  UNL     1      25.721   1.955  52.229  1.00  0.00    -0.223 NA
HETATM    3  C7  UNL     1      24.507   1.773  51.786  1.00  0.00     0.083 A 
HETATM    4  C14 UNL     1      24.240   2.469  50.610  1.00  0.00     0.086 A 
HETATM    5  S2  UNL     1      25.885   3.340  50.290  1.00  0.00    -0.062 SA
ENDROOT
BRANCH   3   6
HETATM    6  C8  UNL     1      23.446   0.936  52.395  1.00  0.00     0.036 A 
HETATM    7  C9  UNL     1      22.129   1.038  52.104  1.00  0.00     0.055 A 
HETATM    8  C10 UNL     1      21.156   0.247  52.677  1.00  0.00     0.092 A 
HETATM    9  N3  UNL     1      19.824   0.224  52.494  1.00  0.00    -0.150 NA
HETATM   10  C12 UNL     1      21.347  -0.801  53.659  1.00  0.00     0.020 A 
HETATM   11  N4  UNL     1      19.239  -0.678  53.226  1.00  0.00    -0.161 NA
HETATM   12  C11 UNL     1      20.110  -1.368  53.986  1.00  0.00     0.155 A 
HETATM   13  C13 UNL     1      22.584  -1.155  54.167  1.00  0.00     0.065 A 
HETATM   14  S1  UNL     1      23.895  -0.263  53.554  1.00  0.00    -0.099 SA
ENDBRANCH   3   6
BRANCH   1  15
HETATM   15  N1  UNL     1      27.893   2.631  52.481  1.00  0.00    -0.365 N 
HETATM   16  H6  UNL     1      28.684   3.095  51.986  1.00  0.00     0.162 HD
BRANCH  15  17
HETATM   17  C5  UNL     1      27.895   1.987  53.796  1.00  0.00     0.149 C 
BRANCH  17  18
HETATM   18  C4  UNL     1      29.157   1.222  53.993  1.00  0.00    -0.000 C 
HETATM   19  C3  UNL     1      29.189  -0.082  53.704  1.00  0.00    -0.057 A 
HETATM   20  C2  UNL     1      28.008  -0.805  53.186  1.00  0.00     0.003 A 
HETATM   21  C15 UNL     1      30.065  -1.280  53.698  1.00  0.00     0.065 A 
HETATM   22  C1  UNL     1      28.793  -1.896  53.175  1.00  0.00    -0.022 A 
ENDBRANCH  17  18
ENDBRANCH  15  17
ENDBRANCH   1  15
TORSDOF 4
ENDMDL
MODEL 6
REMARK VINA RESULT:      -7.3      3.067      5.525
REMARK  4 active torsions:
REMARK  status: ('A' for Active; 'I' for Inactive)
REMARK    1  A    between atoms: C4_4  and  C5_5 
REMARK    2  A    between atoms: C5_5  and  N1_6 
REMARK    3  A    between atoms: N1_6  and  C6_7 
REMARK    4  A    between atoms: C7_9  and  C8_10 
ROOT
HETATM    1  C6  UNL     1      26.205   1.929  52.036  1.00  0.00     0.167 A 
HETATM    2  N2  UNL     1      25.048   1.733  51.911  1.00  0.00    -0.223 NA
HETATM    3  C7  UNL     1      24.298   0.813  52.454  1.00  0.00     0.083 A 
HETATM    4  C14 UNL     1      25.001  -0.046  53.294  1.00  0.00     0.086 A 
HETATM    5  S2  UNL     1      26.756   0.643  53.175  1.00  0.00    -0.062 SA
ENDROOT
BRANCH   3   6
HETATM    6  C8  UNL     1      22.841   0.614  52.262  1.00  0.00     0.036 A 
HETATM    7  C9  UNL     1      22.045  -0.081  53.106  1.00  0.00     0.055 A 
HETATM    8  C10 UNL     1      20.691  -0.252  52.914  1.00  0.00     0.092 A 
HETATM    9  N3  UNL     1      19.775  -0.903  53.653  1.00  0.00    -0.150 NA
HETATM   10  C12 UNL     1      19.892   0.258  51.817  1.00  0.00     0.020 A 
HETATM   11  N4  UNL     1      18.584  -0.837  53.135  1.00  0.00    -0.161 NA
HETATM   12  C11 UNL     1      18.560  -0.132  51.989  1.00  0.00     0.155 A 
HETATM   13  C13 UNL     1      20.411   1.012  50.781  1.00  0.00     0.065 A 
HETATM   14  S1  UNL     1      22.082   1.310  50.876  1.00  0.00    -0.099 SA
ENDBRANCH   3   6
BRANCH   1  15
HETATM   15  N1  UNL     1      26.811   3.061  51.309  1.00  0.00    -0.365 N 
HETATM   16  H6  UNL     1      27.387   3.723  51.871  1.00  0.00     0.162 HD
BRANCH  15  17
HETATM   17  C5  UNL     1      26.515   3.105  49.876  1.00  0.00     0.149 C 
BRANCH  17  18
HETATM   18  C4  UNL     1      25.958   4.435  49.504  1.00  0.00    -0.000 C 
HETATM   19  C3  UNL     1      26.738   5.326  48.886  1.00  0.00    -0.057 A 
HETATM   20  C2  UNL     1      28.149   5.042  48.550  1.00  0.00     0.003 A 
HETATM   21  C15 UNL     1      26.763   6.699  48.321  1.00  0.00     0.065 A 
HETATM   22  C1  UNL     1      28.183   6.282  48.034  1.00  0.00    -0.022 A 
ENDBRANCH  17  18
ENDBRANCH  15  17
ENDBRANCH   1  15
TORSDOF 4
ENDMDL
MODEL 7
REMARK VINA RESULT:      -6.9      2.857      5.612
REMARK  4 active torsions:
REMARK  status: ('A' for Active; 'I' for Inactive)
REMARK    1  A    between atoms: C4_4  and  C5_5 
REMARK    2  A    between atoms: C5_5  and  N1_6 
REMARK    3  A    between atoms: N1_6  and  C6_7 
REMARK    4  A    between atoms: C7_9  and  C8_10 
ROOT
HETATM    1  C6  UNL     1      26.536   2.034  52.178  1.00  0.00     0.167 A 
HETATM    2  N2  UNL     1      25.409   1.698  52.276  1.00  0.00    -0.223 NA
HETATM    3  C7  UNL     1      24.888   0.733  52.982  1.00  0.00     0.083 A 
HETATM    4  C14 UNL     1      25.831   0.014  53.713  1.00  0.00     0.086 A 
HETATM    5  S2  UNL     1      27.437   0.893  53.246  1.00  0.00    -0.062 SA
ENDROOT
BRANCH   3   6
HETATM    6  C8  UNL     1      23.457   0.355  53.068  1.00  0.00     0.036 A 
HETATM    7  C9  UNL     1      22.484   0.850  52.269  1.00  0.00     0.055 A 
HETATM    8  C10 UNL     1      21.159   0.483  52.361  1.00  0.00     0.092 A 
HETATM    9  N3  UNL     1      20.088   0.875  51.649  1.00  0.00    -0.150 NA
HETATM   10  C12 UNL     1      20.576  -0.464  53.291  1.00  0.00     0.020 A 
HETATM   11  N4  UNL     1      18.993   0.293  52.040  1.00  0.00    -0.161 NA
HETATM   12  C11 UNL     1      19.200  -0.560  53.060  1.00  0.00     0.155 A 
HETATM   13  C13 UNL     1      21.309  -1.147  54.245  1.00  0.00     0.065 A 
HETATM   14  S1  UNL     1      22.972  -0.799  54.259  1.00  0.00    -0.099 SA
ENDBRANCH   3   6
BRANCH   1  15
HETATM   15  N1  UNL     1      26.858   3.182  51.308  1.00  0.00    -0.365 N 
HETATM   16  H6  UNL     1      27.348   3.985  51.756  1.00  0.00     0.162 HD
BRANCH  15  17
HETATM   17  C5  UNL     1      26.437   3.038  49.913  1.00  0.00     0.149 C 
BRANCH  17  18
HETATM   18  C4  UNL     1      25.722   4.263  49.460  1.00  0.00    -0.000 C 
HETATM   19  C3  UNL     1      24.422   4.193  49.161  1.00  0.00    -0.057 A 
HETATM   20  C2  UNL     1      23.653   2.935  49.265  1.00  0.00     0.003 A 
HETATM   21  C15 UNL     1      23.264   4.993  48.689  1.00  0.00     0.065 A 
HETATM   22  C1  UNL     1      22.598   3.650  48.839  1.00  0.00    -0.022 A 
ENDBRANCH  17  18
ENDBRANCH  15  17
ENDBRANCH   1  15
TORSDOF 4
ENDMDL
MODEL 8
REMARK VINA RESULT:      -6.9      1.991      2.414
REMARK  4 active torsions:
REMARK  status: ('A' for Active; 'I' for Inactive)
REMARK    1  A    between atoms: C4_4  and  C5_5 
REMARK    2  A    between atoms: C5_5  and  N1_6 
REMARK    3  A    between atoms: N1_6  and  C6_7 
REMARK    4  A    between atoms: C7_9  and  C8_10 
ROOT
HETATM    1  C6  UNL     1      22.931   4.215  51.099  1.00  0.00     0.167 A 
HETATM    2  N2  UNL     1      23.814   3.650  51.641  1.00  0.00    -0.223 NA
HETATM    3  C7  UNL     1      23.802   2.520  52.292  1.00  0.00     0.083 A 
HETATM    4  C14 UNL     1      22.544   1.922  52.334  1.00  0.00     0.086 A 
HETATM    5  S2  UNL     1      21.494   3.157  51.364  1.00  0.00    -0.062 SA
ENDROOT
BRANCH   3   6
HETATM    6  C8  UNL     1      24.947   1.853  52.955  1.00  0.00     0.036 A 
HETATM    7  C9  UNL     1      26.106   2.468  53.284  1.00  0.00     0.055 A 
HETATM    8  C10 UNL     1      27.159   1.832  53.906  1.00  0.00     0.092 A 
HETATM    9  N3  UNL     1      28.359   2.298  54.296  1.00  0.00    -0.150 NA
HETATM   10  C12 UNL     1      27.226   0.442  54.310  1.00  0.00     0.020 A 
HETATM   11  N4  UNL     1      29.089   1.379  54.856  1.00  0.00    -0.161 NA
HETATM   12  C11 UNL     1      28.465   0.188  54.910  1.00  0.00     0.155 A 
HETATM   13  C13 UNL     1      26.197  -0.460  54.114  1.00  0.00     0.065 A 
HETATM   14  S1  UNL     1      24.818   0.177  53.352  1.00  0.00    -0.099 SA
ENDBRANCH   3   6
BRANCH   1  15
HETATM   15  N1  UNL     1      23.223   5.491  50.416  1.00  0.00    -0.365 N 
HETATM   16  H6  UNL     1      23.011   6.364  50.945  1.00  0.00     0.162 HD
BRANCH  15  17
HETATM   17  C5  UNL     1      23.778   5.357  49.068  1.00  0.00     0.149 C 
BRANCH  17  18
HETATM   18  C4  UNL     1      25.164   4.817  49.132  1.00  0.00    -0.000 C 
HETATM   19  C3  UNL     1      26.187   5.578  48.731  1.00  0.00    -0.057 A 
HETATM   20  C2  UNL     1      25.996   6.952  48.222  1.00  0.00     0.003 A 
HETATM   21  C15 UNL     1      27.661   5.598  48.559  1.00  0.00     0.065 A 
HETATM   22  C1  UNL     1      27.330   6.983  48.063  1.00  0.00    -0.022 A 
ENDBRANCH  17  18
ENDBRANCH  15  17
ENDBRANCH   1  15
TORSDOF 4
ENDMDL
MODEL 9
REMARK VINA RESULT:      -6.8      3.827      6.987
REMARK  4 active torsions:
REMARK  status: ('A' for Active; 'I' for Inactive)
REMARK    1  A    between atoms: C4_4  and  C5_5 
REMARK    2  A    between atoms: C5_5  and  N1_6 
REMARK    3  A    between atoms: N1_6  and  C6_7 
REMARK    4  A    between atoms: C7_9  and  C8_10 
ROOT
HETATM    1  C6  UNL     1      24.027   3.149  52.483  1.00  0.00     0.167 A 
HETATM    2  N2  UNL     1      23.284   2.273  52.753  1.00  0.00    -0.223 NA
HETATM    3  C7  UNL     1      22.035   2.109  52.414  1.00  0.00     0.083 A 
HETATM    4  C14 UNL     1      21.541   3.140  51.618  1.00  0.00     0.086 A 
HETATM    5  S2  UNL     1      23.047   4.269  51.463  1.00  0.00    -0.062 SA
ENDROOT
BRANCH   3   6
HETATM    6  C8  UNL     1      21.145   0.982  52.782  1.00  0.00     0.036 A 
HETATM    7  C9  UNL     1      19.871   0.839  52.349  1.00  0.00     0.055 A 
HETATM    8  C10 UNL     1      19.060  -0.219  52.698  1.00  0.00     0.092 A 
HETATM    9  N3  UNL     1      17.791  -0.503  52.353  1.00  0.00    -0.150 NA
HETATM   10  C12 UNL     1      19.398  -1.334  53.560  1.00  0.00     0.020 A 
HETATM   11  N4  UNL     1      17.366  -1.607  52.893  1.00  0.00    -0.161 NA
HETATM   12  C11 UNL     1      18.301  -2.196  53.663  1.00  0.00     0.155 A 
HETATM   13  C13 UNL     1      20.632  -1.482  54.166  1.00  0.00     0.065 A 
HETATM   14  S1  UNL     1      21.751  -0.249  53.831  1.00  0.00    -0.099 SA
ENDBRANCH   3   6
BRANCH   1  15
HETATM   15  N1  UNL     1      25.411   3.082  52.993  1.00  0.00    -0.365 N 
HETATM   16  H6  UNL     1      25.744   3.898  53.550  1.00  0.00     0.162 HD
BRANCH  15  17
HETATM   17  C5  UNL     1      26.141   1.863  52.642  1.00  0.00     0.149 C 
BRANCH  17  18
HETATM   18  C4  UNL     1      27.550   1.951  53.115  1.00  0.00    -0.000 C 
HETATM   19  C3  UNL     1      28.258   0.831  53.285  1.00  0.00    -0.057 A 
HETATM   20  C2  UNL     1      27.694  -0.509  53.018  1.00  0.00     0.003 A 
HETATM   21  C15 UNL     1      29.584   0.312  53.705  1.00  0.00     0.065 A 
HETATM   22  C1  UNL     1      28.892  -0.990  53.395  1.00  0.00    -0.022 A 
ENDBRANCH  17  18
ENDBRANCH  15  17
ENDBRANCH   1  15
TORSDOF 4
ENDMDL
