MODEL 1
REMARK VINA RESULT:      -8.4      0.000      0.000
REMARK  7 active torsions:
REMARK  status: ('A' for Active; 'I' for Inactive)
REMARK    1  A    between atoms: O1_2  and  C2_3 
REMARK    2  A    between atoms: C7_8  and  C8_9 
REMARK    3  A    between atoms: C8_9  and  C9_10 
REMARK    4  A    between atoms: C9_10  and  C10_11 
REMARK    5  A    between atoms: C10_11  and  N1_12 
REMARK    6  A    between atoms: C15_18  and  N2_19 
REMARK    7  A    between atoms: C18_23  and  N3_24 
ROOT
HETATM    1  C2  UNL     1      21.450   0.574  53.462  1.00  0.00     0.076 A 
HETATM    2  C3  UNL     1      20.546   1.574  53.096  1.00  0.00     0.069 A 
HETATM    3  C4  UNL     1      21.003   2.645  52.374  1.00  0.00     0.066 A 
HETATM    4  C5  UNL     1      22.339   2.699  52.031  1.00  0.00     0.017 A 
HETATM    5  C6  UNL     1      23.237   1.717  52.388  1.00  0.00     0.025 A 
HETATM    6  C7  UNL     1      22.805   0.631  53.114  1.00  0.00    -0.024 A 
HETATM    7  C15 UNL     1      22.600   3.788  51.343  1.00  0.00     0.044 A 
HETATM    8  C21 UNL     1      21.335   4.550  51.198  1.00  0.00     0.207 A 
HETATM    9  N4  UNL     1      20.384   3.699  51.909  1.00  0.00    -0.283 NA
ENDROOT
BRANCH   7  10
HETATM   10  N2  UNL     1      23.768   4.341  50.754  1.00  0.00    -0.351 N 
HETATM   11  C16 UNL     1      24.813   3.675  50.058  1.00  0.00     0.136 A 
HETATM   12  C17 UNL     1      25.835   4.397  49.631  1.00  0.00     0.157 A 
HETATM   13  F1  UNL     1      26.823   3.732  48.969  1.00  0.00    -0.202 F 
HETATM   14  C18 UNL     1      25.924   5.819  49.825  1.00  0.00     0.064 A 
HETATM   15  C19 UNL     1      24.949   6.450  50.455  1.00  0.00     0.025 A 
HETATM   16  C20 UNL     1      23.745   5.787  50.988  1.00  0.00     0.158 A 
BRANCH  14  17
HETATM   17  N3  UNL     1      27.021   6.600  49.369  1.00  0.00    -0.397 N 
HETATM   18  H21 UNL     1      28.028   6.358  49.429  1.00  0.00     0.156 HD
HETATM   19  H22 UNL     1      26.854   7.541  48.910  1.00  0.00     0.156 HD
ENDBRANCH  14  17
ENDBRANCH   7  10
BRANCH   6  20
HETATM   20  C8  UNL     1      23.586  -0.532  53.602  1.00  0.00     0.043 C 
BRANCH  20  21
HETATM   21  C9  UNL     1      25.020  -0.488  53.137  1.00  0.00     0.024 C 
BRANCH  21  22
HETATM   22  C10 UNL     1      25.982  -0.220  54.247  1.00  0.00     0.117 C 
BRANCH  22  23
HETATM   23  N1  UNL     1      27.273   0.214  53.895  1.00  0.00    -0.408 N 
HETATM   24  C11 UNL     1      28.279   0.232  54.892  1.00  0.00     0.143 C 
HETATM   25  C12 UNL     1      29.373   1.202  54.452  1.00  0.00     0.187 C 
HETATM   26  O2  UNL     1      28.744   2.434  54.325  1.00  0.00    -0.388 OA
HETATM   27  C13 UNL     1      27.942   2.428  53.217  1.00  0.00     0.187 C 
HETATM   28  C14 UNL     1      27.438   1.072  52.784  1.00  0.00     0.143 C 
ENDBRANCH  22  23
ENDBRANCH  21  22
ENDBRANCH  20  21
ENDBRANCH   6  20
BRANCH   1  29
HETATM   29  O1  UNL     1      20.906  -0.474  54.192  1.00  0.00    -0.355 OA
HETATM   30  C1  UNL     1      19.799  -1.231  53.801  1.00  0.00     0.210 C 
ENDBRANCH   1  29
TORSDOF 7
ENDMDL
MODEL 2
REMARK VINA RESULT:      -8.4      2.393      5.503
REMARK  7 active torsions:
REMARK  status: ('A' for Active; 'I' for Inactive)
REMARK    1  A    between atoms: O1_2  and  C2_3 
REMARK    2  A    between atoms: C7_8  and  C8_9 
REMARK    3  A    between atoms: C8_9  and  C9_10 
REMARK    4  A    between atoms: C9_10  and  C10_11 
REMARK    5  A    between atoms: C10_11  and  N1_12 
REMARK    6  A    between atoms: C15_18  and  N2_19 
REMARK    7  A    between atoms: C18_23  and  N3_24 
ROOT
HETATM    1  C2  UNL     1      20.074  -0.495  52.824  1.00  0.00     0.076 A 
HETATM    2  C3  UNL     1      20.440  -1.144  54.006  1.00  0.00     0.069 A 
HETATM    3  C4  UNL     1      21.751  -1.101  54.404  1.00  0.00     0.066 A 
HETATM    4  C5  UNL     1      22.664  -0.419  53.625  1.00  0.00     0.017 A 
HETATM    5  C6  UNL     1      22.311   0.224  52.458  1.00  0.00     0.025 A 
HETATM    6  C7  UNL     1      21.002   0.196  52.035  1.00  0.00    -0.024 A 
HETATM    7  C15 UNL     1      23.866  -0.480  54.154  1.00  0.00     0.044 A 
HETATM    8  C21 UNL     1      23.773  -1.272  55.405  1.00  0.00     0.207 A 
HETATM    9  N4  UNL     1      22.353  -1.610  55.447  1.00  0.00    -0.283 NA
ENDROOT
BRANCH   7  10
HETATM   10  N2  UNL     1      25.144   0.024  53.791  1.00  0.00    -0.351 N 
HETATM   11  C16 UNL     1      25.547   0.625  52.569  1.00  0.00     0.136 A 
HETATM   12  C17 UNL     1      26.814   0.981  52.439  1.00  0.00     0.157 A 
HETATM   13  F1  UNL     1      27.174   1.553  51.256  1.00  0.00    -0.202 F 
HETATM   14  C18 UNL     1      27.788   0.803  53.482  1.00  0.00     0.064 A 
HETATM   15  C19 UNL     1      27.418   0.261  54.629  1.00  0.00     0.025 A 
HETATM   16  C20 UNL     1      26.045  -0.186  54.926  1.00  0.00     0.158 A 
BRANCH  14  17
HETATM   17  N3  UNL     1      29.152   1.183  53.348  1.00  0.00    -0.397 N 
HETATM   18  H21 UNL     1      29.723   1.710  54.034  1.00  0.00     0.156 HD
HETATM   19  H22 UNL     1      29.694   0.928  52.473  1.00  0.00     0.156 HD
ENDBRANCH  14  17
ENDBRANCH   7  10
BRANCH   6  20
HETATM   20  C8  UNL     1      20.402   0.811  50.826  1.00  0.00     0.043 C 
BRANCH  20  21
HETATM   21  C9  UNL     1      21.407   0.973  49.713  1.00  0.00     0.024 C 
BRANCH  21  22
HETATM   22  C10 UNL     1      21.448   2.361  49.166  1.00  0.00     0.117 C 
BRANCH  22  23
HETATM   23  N1  UNL     1      22.294   3.285  49.807  1.00  0.00    -0.408 N 
HETATM   24  C11 UNL     1      23.620   2.891  50.117  1.00  0.00     0.143 C 
HETATM   25  C12 UNL     1      24.139   3.792  51.234  1.00  0.00     0.187 C 
HETATM   26  O2  UNL     1      23.274   3.592  52.302  1.00  0.00    -0.388 OA
HETATM   27  C13 UNL     1      22.069   4.180  52.034  1.00  0.00     0.187 C 
HETATM   28  C14 UNL     1      21.728   4.331  50.571  1.00  0.00     0.143 C 
ENDBRANCH  22  23
ENDBRANCH  21  22
ENDBRANCH  20  21
ENDBRANCH   6  20
BRANCH   1  29
HETATM   29  O1  UNL     1      18.729  -0.588  52.494  1.00  0.00    -0.355 OA
HETATM   30  C1  UNL     1      17.778  -1.317  53.212  1.00  0.00     0.210 C 
ENDBRANCH   1  29
TORSDOF 7
ENDMDL
MODEL 3
REMARK VINA RESULT:      -8.3      2.475      5.424
REMARK  7 active torsions:
REMARK  status: ('A' for Active; 'I' for Inactive)
REMARK    1  A    between atoms: O1_2  and  C2_3 
REMARK    2  A    between atoms: C7_8  and  C8_9 
REMARK    3  A    between atoms: C8_9  and  C9_10 
REMARK    4  A    between atoms: C9_10  and  C10_11 
REMARK    5  A    between atoms: C10_11  and  N1_12 
REMARK    6  A    between atoms: C15_18  and  N2_19 
REMARK    7  A    between atoms: C18_23  and  N3_24 
ROOT
HETATM    1  C2  UNL     1      20.826  -0.024  52.590  1.00  0.00     0.076 A 
HETATM    2  C3  UNL     1      20.995  -0.663  53.820  1.00  0.00     0.069 A 
HETATM    3  C4  UNL     1      22.264  -0.817  54.315  1.00  0.00     0.066 A 
HETATM    4  C5  UNL     1      23.330  -0.335  53.582  1.00  0.00     0.017 A 
HETATM    5  C6  UNL     1      23.171   0.297  52.368  1.00  0.00     0.025 A 
HETATM    6  C7  UNL     1      21.909   0.464  51.848  1.00  0.00    -0.024 A 
HETATM    7  C15 UNL     1      24.465  -0.567  54.203  1.00  0.00     0.044 A 
HETATM    8  C21 UNL     1      24.155  -1.268  55.473  1.00  0.00     0.207 A 
HETATM    9  N4  UNL     1      22.699  -1.366  55.419  1.00  0.00    -0.283 NA
ENDROOT
BRANCH   7  10
HETATM   10  N2  UNL     1      25.831  -0.300  53.920  1.00  0.00    -0.351 N 
HETATM   11  C16 UNL     1      26.841  -1.199  53.484  1.00  0.00     0.136 A 
HETATM   12  C17 UNL     1      28.067  -0.729  53.327  1.00  0.00     0.157 A 
HETATM   13  F1  UNL     1      29.015  -1.615  52.909  1.00  0.00    -0.202 F 
HETATM   14  C18 UNL     1      28.415   0.646  53.560  1.00  0.00     0.064 A 
HETATM   15  C19 UNL     1      27.479   1.494  53.949  1.00  0.00     0.025 A 
HETATM   16  C20 UNL     1      26.068   1.124  54.167  1.00  0.00     0.158 A 
BRANCH  14  17
HETATM   17  N3  UNL     1      29.731   1.156  53.394  1.00  0.00    -0.397 N 
HETATM   18  H21 UNL     1      30.371   1.490  54.139  1.00  0.00     0.156 HD
HETATM   19  H22 UNL     1      30.159   1.227  52.426  1.00  0.00     0.156 HD
ENDBRANCH  14  17
ENDBRANCH   7  10
BRANCH   6  20
HETATM   20  C8  UNL     1      21.504   1.107  50.574  1.00  0.00     0.043 C 
BRANCH  20  21
HETATM   21  C9  UNL     1      21.961   2.543  50.494  1.00  0.00     0.024 C 
BRANCH  21  22
HETATM   22  C10 UNL     1      23.105   2.736  49.555  1.00  0.00     0.117 C 
BRANCH  22  23
HETATM   23  N1  UNL     1      24.153   3.575  49.976  1.00  0.00    -0.408 N 
HETATM   24  C11 UNL     1      24.581   4.614  49.112  1.00  0.00     0.143 C 
HETATM   25  C12 UNL     1      26.001   5.011  49.506  1.00  0.00     0.187 C 
HETATM   26  O2  UNL     1      26.763   3.860  49.351  1.00  0.00    -0.388 OA
HETATM   27  C13 UNL     1      26.457   2.970  50.344  1.00  0.00     0.187 C 
HETATM   28  C14 UNL     1      25.075   3.104  50.938  1.00  0.00     0.143 C 
ENDBRANCH  22  23
ENDBRANCH  21  22
ENDBRANCH  20  21
ENDBRANCH   6  20
BRANCH   1  29
HETATM   29  O1  UNL     1      19.510   0.090  52.162  1.00  0.00    -0.355 OA
HETATM   30  C1  UNL     1      18.433  -0.626  52.689  1.00  0.00     0.210 C 
ENDBRANCH   1  29
TORSDOF 7
ENDMDL
MODEL 4
REMARK VINA RESULT:      -8.0      2.815      6.297
REMARK  7 active torsions:
REMARK  status: ('A' for Active; 'I' for Inactive)
REMARK    1  A    between atoms: O1_2  and  C2_3 
REMARK    2  A    between atoms: C7_8  and  C8_9 
REMARK    3  A    between atoms: C8_9  and  C9_10 
REMARK    4  A    between atoms: C9_10  and  C10_11 
REMARK    5  A    between atoms: C10_11  and  N1_12 
REMARK    6  A    between atoms: C15_18  and  N2_19 
REMARK    7  A    between atoms: C18_23  and  N3_24 
ROOT
HETATM    1  C2  UNL     1      21.020   0.744  52.612  1.00  0.00     0.076 A 
HETATM    2  C3  UNL     1      20.977  -0.110  53.717  1.00  0.00     0.069 A 
HETATM    3  C4  UNL     1      22.157  -0.545  54.261  1.00  0.00     0.066 A 
HETATM    4  C5  UNL     1      23.347  -0.124  53.701  1.00  0.00     0.017 A 
HETATM    5  C6  UNL     1      23.398   0.719  52.612  1.00  0.00     0.025 A 
HETATM    6  C7  UNL     1      22.228   1.169  52.046  1.00  0.00    -0.024 A 
HETATM    7  C15 UNL     1      24.372  -0.634  54.347  1.00  0.00     0.044 A 
HETATM    8  C21 UNL     1      23.844  -1.478  55.446  1.00  0.00     0.207 A 
HETATM    9  N4  UNL     1      22.400  -1.332  55.277  1.00  0.00    -0.283 NA
ENDROOT
BRANCH   7  10
HETATM   10  N2  UNL     1      25.783  -0.545  54.211  1.00  0.00    -0.351 N 
HETATM   11  C16 UNL     1      26.702   0.227  54.973  1.00  0.00     0.136 A 
HETATM   12  C17 UNL     1      27.979   0.187  54.633  1.00  0.00     0.157 A 
HETATM   13  F1  UNL     1      28.837   0.938  55.379  1.00  0.00    -0.202 F 
HETATM   14  C18 UNL     1      28.475  -0.610  53.543  1.00  0.00     0.064 A 
HETATM   15  C19 UNL     1      27.631  -1.344  52.840  1.00  0.00     0.025 A 
HETATM   16  C20 UNL     1      26.180  -1.408  53.097  1.00  0.00     0.158 A 
BRANCH  14  17
HETATM   17  N3  UNL     1      29.847  -0.655  53.173  1.00  0.00    -0.397 N 
HETATM   18  H21 UNL     1      30.275  -1.241  52.432  1.00  0.00     0.156 HD
HETATM   19  H22 UNL     1      30.556  -0.045  53.673  1.00  0.00     0.156 HD
ENDBRANCH  14  17
ENDBRANCH   7  10
BRANCH   6  20
HETATM   20  C8  UNL     1      22.045   2.072  50.883  1.00  0.00     0.043 C 
BRANCH  20  21
HETATM   21  C9  UNL     1      23.352   2.387  50.198  1.00  0.00     0.024 C 
BRANCH  21  22
HETATM   22  C10 UNL     1      23.411   3.784  49.675  1.00  0.00     0.117 C 
BRANCH  22  23
HETATM   23  N1  UNL     1      22.887   4.803  50.491  1.00  0.00    -0.408 N 
HETATM   24  C11 UNL     1      21.817   5.588  49.996  1.00  0.00     0.143 C 
HETATM   25  C12 UNL     1      21.788   6.903  50.770  1.00  0.00     0.187 C 
HETATM   26  O2  UNL     1      23.021   7.497  50.534  1.00  0.00    -0.388 OA
HETATM   27  C13 UNL     1      23.995   6.819  51.212  1.00  0.00     0.187 C 
HETATM   28  C14 UNL     1      23.698   5.367  51.503  1.00  0.00     0.143 C 
ENDBRANCH  22  23
ENDBRANCH  21  22
ENDBRANCH  20  21
ENDBRANCH   6  20
BRANCH   1  29
HETATM   29  O1  UNL     1      19.781   1.136  52.122  1.00  0.00    -0.355 OA
HETATM   30  C1  UNL     1      18.722   0.270  51.842  1.00  0.00     0.210 C 
ENDBRANCH   1  29
TORSDOF 7
ENDMDL
MODEL 5
REMARK VINA RESULT:      -8.0      4.416      7.131
REMARK  7 active torsions:
REMARK  status: ('A' for Active; 'I' for Inactive)
REMARK    1  A    between atoms: O1_2  and  C2_3 
REMARK    2  A    between atoms: C7_8  and  C8_9 
REMARK    3  A    between atoms: C8_9  and  C9_10 
REMARK    4  A    between atoms: C9_10  and  C10_11 
REMARK    5  A    between atoms: C10_11  and  N1_12 
REMARK    6  A    between atoms: C15_18  and  N2_19 
REMARK    7  A    between atoms: C18_23  and  N3_24 
ROOT
HETATM    1  C2  UNL     1      25.982   5.522  48.804  1.00  0.00     0.076 A 
HETATM    2  C3  UNL     1      26.388   6.758  48.294  1.00  0.00     0.069 A 
HETATM    3  C4  UNL     1      27.714   6.950  48.006  1.00  0.00     0.066 A 
HETATM    4  C5  UNL     1      28.603   5.917  48.229  1.00  0.00     0.017 A 
HETATM    5  C6  UNL     1      28.211   4.695  48.731  1.00  0.00     0.025 A 
HETATM    6  C7  UNL     1      26.886   4.476  49.029  1.00  0.00    -0.024 A 
HETATM    7  C15 UNL     1      29.824   6.274  47.898  1.00  0.00     0.044 A 
HETATM    8  C21 UNL     1      29.773   7.672  47.405  1.00  0.00     0.207 A 
HETATM    9  N4  UNL     1      28.352   7.987  47.528  1.00  0.00    -0.283 NA
ENDROOT
BRANCH   7  10
HETATM   10  N2  UNL     1      31.092   5.633  47.918  1.00  0.00    -0.351 N 
HETATM   11  C16 UNL     1      31.484   4.420  47.291  1.00  0.00     0.136 A 
HETATM   12  C17 UNL     1      32.718   3.989  47.488  1.00  0.00     0.157 A 
HETATM   13  F1  UNL     1      33.067   2.822  46.875  1.00  0.00    -0.202 F 
HETATM   14  C18 UNL     1      33.677   4.699  48.291  1.00  0.00     0.064 A 
HETATM   15  C19 UNL     1      33.327   5.836  48.864  1.00  0.00     0.025 A 
HETATM   16  C20 UNL     1      31.991   6.447  48.738  1.00  0.00     0.158 A 
BRANCH  14  17
HETATM   17  N3  UNL     1      35.005   4.239  48.507  1.00  0.00    -0.397 N 
HETATM   18  H21 UNL     1      35.352   3.689  49.315  1.00  0.00     0.156 HD
HETATM   19  H22 UNL     1      35.766   4.450  47.799  1.00  0.00     0.156 HD
ENDBRANCH  14  17
ENDBRANCH   7  10
BRANCH   6  20
HETATM   20  C8  UNL     1      26.244   3.254  49.572  1.00  0.00     0.043 C 
BRANCH  20  21
HETATM   21  C9  UNL     1      26.397   3.151  51.070  1.00  0.00     0.024 C 
BRANCH  21  22
HETATM   22  C10 UNL     1      26.685   1.760  51.529  1.00  0.00     0.117 C 
BRANCH  22  23
HETATM   23  N1  UNL     1      27.042   1.584  52.878  1.00  0.00    -0.408 N 
HETATM   24  C11 UNL     1      28.362   1.168  53.183  1.00  0.00     0.143 C 
HETATM   25  C12 UNL     1      28.358   0.543  54.575  1.00  0.00     0.187 C 
HETATM   26  O2  UNL     1      27.480  -0.530  54.496  1.00  0.00    -0.388 OA
HETATM   27  C13 UNL     1      26.195  -0.067  54.416  1.00  0.00     0.187 C 
HETATM   28  C14 UNL     1      26.035   1.317  53.833  1.00  0.00     0.143 C 
ENDBRANCH  22  23
ENDBRANCH  21  22
ENDBRANCH  20  21
ENDBRANCH   6  20
BRANCH   1  29
HETATM   29  O1  UNL     1      24.624   5.412  49.069  1.00  0.00    -0.355 OA
HETATM   30  C1  UNL     1      23.605   5.842  48.215  1.00  0.00     0.210 C 
ENDBRANCH   1  29
TORSDOF 7
ENDMDL
MODEL 6
REMARK VINA RESULT:      -7.9      2.675      6.162
REMARK  7 active torsions:
REMARK  status: ('A' for Active; 'I' for Inactive)
REMARK    1  A    between atoms: O1_2  and  C2_3 
REMARK    2  A    between atoms: C7_8  and  C8_9 
REMARK    3  A    between atoms: C8_9  and  C9_10 
REMARK    4  A    between atoms: C9_10  and  C10_11 
REMARK    5  A    between atoms: C10_11  and  N1_12 
REMARK    6  A    between atoms: C15_18  and  N2_19 
REMARK    7  A    between atoms: C18_23  and  N3_24 
ROOT
HETATM    1  C2  UNL     1      25.899  -0.404  53.735  1.00  0.00     0.076 A 
HETATM    2  C3  UNL     1      25.057  -1.000  54.677  1.00  0.00     0.069 A 
HETATM    3  C4  UNL     1      23.709  -0.765  54.599  1.00  0.00     0.066 A 
HETATM    4  C5  UNL     1      23.229   0.050  53.593  1.00  0.00     0.017 A 
HETATM    5  C6  UNL     1      24.053   0.641  52.661  1.00  0.00     0.025 A 
HETATM    6  C7  UNL     1      25.411   0.423  52.716  1.00  0.00    -0.024 A 
HETATM    7  C15 UNL     1      21.922   0.164  53.669  1.00  0.00     0.044 A 
HETATM    8  C21 UNL     1      21.461  -0.642  54.825  1.00  0.00     0.207 A 
HETATM    9  N4  UNL     1      22.715  -1.189  55.336  1.00  0.00    -0.283 NA
ENDROOT
BRANCH   7  10
HETATM   10  N2  UNL     1      20.935   0.856  52.919  1.00  0.00    -0.351 N 
HETATM   11  C16 UNL     1      20.827   2.250  52.664  1.00  0.00     0.136 A 
HETATM   12  C17 UNL     1      19.786   2.677  51.969  1.00  0.00     0.157 A 
HETATM   13  F1  UNL     1      19.708   4.018  51.741  1.00  0.00    -0.202 F 
HETATM   14  C18 UNL     1      18.776   1.795  51.450  1.00  0.00     0.064 A 
HETATM   15  C19 UNL     1      18.877   0.495  51.667  1.00  0.00     0.025 A 
HETATM   16  C20 UNL     1      19.977  -0.133  52.421  1.00  0.00     0.158 A 
BRANCH  14  17
HETATM   17  N3  UNL     1      17.655   2.248  50.703  1.00  0.00    -0.397 N 
HETATM   18  H21 UNL     1      16.815   1.699  50.441  1.00  0.00     0.156 HD
HETATM   19  H22 UNL     1      17.617   3.247  50.349  1.00  0.00     0.156 HD
ENDBRANCH  14  17
ENDBRANCH   7  10
BRANCH   6  20
HETATM   20  C8  UNL     1      26.475   0.949  51.827  1.00  0.00     0.043 C 
BRANCH  20  21
HETATM   21  C9  UNL     1      26.449   2.455  51.741  1.00  0.00     0.024 C 
BRANCH  21  22
HETATM   22  C10 UNL     1      26.361   2.954  50.336  1.00  0.00     0.117 C 
BRANCH  22  23
HETATM   23  N1  UNL     1      25.343   3.878  50.040  1.00  0.00    -0.408 N 
HETATM   24  C11 UNL     1      25.697   5.231  49.816  1.00  0.00     0.143 C 
HETATM   25  C12 UNL     1      24.461   6.096  50.051  1.00  0.00     0.187 C 
HETATM   26  O2  UNL     1      24.095   5.864  51.371  1.00  0.00    -0.388 OA
HETATM   27  C13 UNL     1      23.561   4.611  51.487  1.00  0.00     0.187 C 
HETATM   28  C14 UNL     1      24.019   3.608  50.455  1.00  0.00     0.143 C 
ENDBRANCH  22  23
ENDBRANCH  21  22
ENDBRANCH  20  21
ENDBRANCH   6  20
BRANCH   1  29
HETATM   29  O1  UNL     1      27.249  -0.694  53.886  1.00  0.00    -0.355 OA
HETATM   30  C1  UNL     1      28.120  -0.019  54.744  1.00  0.00     0.210 C 
ENDBRANCH   1  29
TORSDOF 7
ENDMDL
MODEL 7
REMARK VINA RESULT:      -7.8      2.498      6.853
REMARK  7 active torsions:
REMARK  status: ('A' for Active; 'I' for Inactive)
REMARK    1  A    between atoms: O1_2  and  C2_3 
REMARK    2  A    between atoms: C7_8  and  C8_9 
REMARK    3  A    between atoms: C8_9  and  C9_10 
REMARK    4  A    between atoms: C9_10  and  C10_11 
REMARK    5  A    between atoms: C10_11  and  N1_12 
REMARK    6  A    between atoms: C15_18  and  N2_19 
REMARK    7  A    between atoms: C18_23  and  N3_24 
ROOT
HETATM    1  C2  UNL     1      27.193   0.894  53.601  1.00  0.00     0.076 A 
HETATM    2  C3  UNL     1      26.775   0.003  54.592  1.00  0.00     0.069 A 
HETATM    3  C4  UNL     1      25.464  -0.397  54.610  1.00  0.00     0.066 A 
HETATM    4  C5  UNL     1      24.602   0.093  53.649  1.00  0.00     0.017 A 
HETATM    5  C6  UNL     1      25.007   0.972  52.668  1.00  0.00     0.025 A 
HETATM    6  C7  UNL     1      26.317   1.390  52.627  1.00  0.00    -0.024 A 
HETATM    7  C15 UNL     1      23.393  -0.394  53.816  1.00  0.00     0.044 A 
HETATM    8  C21 UNL     1      23.423  -1.297  54.992  1.00  0.00     0.207 A 
HETATM    9  N4  UNL     1      24.820  -1.207  55.409  1.00  0.00    -0.283 NA
ENDROOT
BRANCH   7  10
HETATM   10  N2  UNL     1      22.152  -0.238  53.142  1.00  0.00    -0.351 N 
HETATM   11  C16 UNL     1      21.910   0.229  51.822  1.00  0.00     0.136 A 
HETATM   12  C17 UNL     1      20.655   0.334  51.420  1.00  0.00     0.157 A 
HETATM   13  F1  UNL     1      20.453   0.786  50.150  1.00  0.00    -0.202 F 
HETATM   14  C18 UNL     1      19.534  -0.018  52.249  1.00  0.00     0.064 A 
HETATM   15  C19 UNL     1      19.750  -0.470  53.472  1.00  0.00     0.025 A 
HETATM   16  C20 UNL     1      21.089  -0.644  54.064  1.00  0.00     0.158 A 
BRANCH  14  17
HETATM   17  N3  UNL     1      18.183   0.094  51.822  1.00  0.00    -0.397 N 
HETATM   18  H21 UNL     1      17.519   0.858  52.046  1.00  0.00     0.156 HD
HETATM   19  H22 UNL     1      17.753  -0.654  51.206  1.00  0.00     0.156 HD
ENDBRANCH  14  17
ENDBRANCH   7  10
BRANCH   6  20
HETATM   20  C8  UNL     1      26.968   2.320  51.672  1.00  0.00     0.043 C 
BRANCH  20  21
HETATM   21  C9  UNL     1      26.112   2.575  50.457  1.00  0.00     0.024 C 
BRANCH  21  22
HETATM   22  C10 UNL     1      25.928   4.029  50.171  1.00  0.00     0.117 C 
BRANCH  22  23
HETATM   23  N1  UNL     1      24.618   4.538  50.218  1.00  0.00    -0.408 N 
HETATM   24  C11 UNL     1      23.917   4.497  51.449  1.00  0.00     0.143 C 
HETATM   25  C12 UNL     1      22.422   4.579  51.153  1.00  0.00     0.187 C 
HETATM   26  O2  UNL     1      22.142   3.476  50.357  1.00  0.00    -0.388 OA
HETATM   27  C13 UNL     1      22.665   3.665  49.108  1.00  0.00     0.187 C 
HETATM   28  C14 UNL     1      23.852   4.595  49.032  1.00  0.00     0.143 C 
ENDBRANCH  22  23
ENDBRANCH  21  22
ENDBRANCH  20  21
ENDBRANCH   6  20
BRANCH   1  29
HETATM   29  O1  UNL     1      28.534   1.248  53.655  1.00  0.00    -0.355 OA
HETATM   30  C1  UNL     1      29.597   0.345  53.735  1.00  0.00     0.210 C 
ENDBRANCH   1  29
TORSDOF 7
ENDMDL
MODEL 8
REMARK VINA RESULT:      -7.8      2.541      5.852
REMARK  7 active torsions:
REMARK  status: ('A' for Active; 'I' for Inactive)
REMARK    1  A    between atoms: O1_2  and  C2_3 
REMARK    2  A    between atoms: C7_8  and  C8_9 
REMARK    3  A    between atoms: C8_9  and  C9_10 
REMARK    4  A    between atoms: C9_10  and  C10_11 
REMARK    5  A    between atoms: C10_11  and  N1_12 
REMARK    6  A    between atoms: C15_18  and  N2_19 
REMARK    7  A    between atoms: C18_23  and  N3_24 
ROOT
HETATM    1  C2  UNL     1      25.912   0.026  52.876  1.00  0.00     0.076 A 
HETATM    2  C3  UNL     1      26.778   0.786  52.085  1.00  0.00     0.069 A 
HETATM    3  C4  UNL     1      26.282   1.882  51.429  1.00  0.00     0.066 A 
HETATM    4  C5  UNL     1      24.945   2.199  51.572  1.00  0.00     0.017 A 
HETATM    5  C6  UNL     1      24.085   1.455  52.350  1.00  0.00     0.025 A 
HETATM    6  C7  UNL     1      24.557   0.349  53.019  1.00  0.00    -0.024 A 
HETATM    7  C15 UNL     1      24.645   3.273  50.878  1.00  0.00     0.044 A 
HETATM    8  C21 UNL     1      25.879   3.738  50.199  1.00  0.00     0.207 A 
HETATM    9  N4  UNL     1      26.860   2.750  50.640  1.00  0.00    -0.283 NA
ENDROOT
BRANCH   7  10
HETATM   10  N2  UNL     1      23.458   4.025  50.664  1.00  0.00    -0.351 N 
HETATM   11  C16 UNL     1      23.060   5.247  51.269  1.00  0.00     0.136 A 
HETATM   12  C17 UNL     1      21.878   5.745  50.945  1.00  0.00     0.157 A 
HETATM   13  F1  UNL     1      21.521   6.917  51.542  1.00  0.00    -0.202 F 
HETATM   14  C18 UNL     1      20.995   5.115  50.001  1.00  0.00     0.064 A 
HETATM   15  C19 UNL     1      21.364   3.987  49.421  1.00  0.00     0.025 A 
HETATM   16  C20 UNL     1      22.649   3.310  49.675  1.00  0.00     0.158 A 
BRANCH  14  17
HETATM   17  N3  UNL     1      19.723   5.645  49.651  1.00  0.00    -0.397 N 
HETATM   18  H21 UNL     1      19.518   6.335  48.904  1.00  0.00     0.156 HD
HETATM   19  H22 UNL     1      18.853   5.339  50.175  1.00  0.00     0.156 HD
ENDBRANCH  14  17
ENDBRANCH   7  10
BRANCH   6  20
HETATM   20  C8  UNL     1      23.821  -0.587  53.903  1.00  0.00     0.043 C 
BRANCH  20  21
HETATM   21  C9  UNL     1      22.467  -0.949  53.344  1.00  0.00     0.024 C 
BRANCH  21  22
HETATM   22  C10 UNL     1      21.342  -0.525  54.230  1.00  0.00     0.117 C 
BRANCH  22  23
HETATM   23  N1  UNL     1      20.219   0.058  53.616  1.00  0.00    -0.408 N 
HETATM   24  C11 UNL     1      19.134  -0.776  53.251  1.00  0.00     0.143 C 
HETATM   25  C12 UNL     1      18.325  -0.065  52.169  1.00  0.00     0.187 C 
HETATM   26  O2  UNL     1      19.209   0.131  51.116  1.00  0.00    -0.388 OA
HETATM   27  C13 UNL     1      20.110   1.104  51.447  1.00  0.00     0.187 C 
HETATM   28  C14 UNL     1      20.363   1.283  52.925  1.00  0.00     0.143 C 
ENDBRANCH  22  23
ENDBRANCH  21  22
ENDBRANCH  20  21
ENDBRANCH   6  20
BRANCH   1  29
HETATM   29  O1  UNL     1      26.494  -1.066  53.504  1.00  0.00    -0.355 OA
HETATM   30  C1  UNL     1      27.238  -2.058  52.859  1.00  0.00     0.210 C 
ENDBRANCH   1  29
TORSDOF 7
ENDMDL
MODEL 9
REMARK VINA RESULT:      -7.4      3.048      5.780
REMARK  7 active torsions:
REMARK  status: ('A' for Active; 'I' for Inactive)
REMARK    1  A    between atoms: O1_2  and  C2_3 
REMARK    2  A    between atoms: C7_8  and  C8_9 
REMARK    3  A    between atoms: C8_9  and  C9_10 
REMARK    4  A    between atoms: C9_10  and  C10_11 
REMARK    5  A    between atoms: C10_11  and  N1_12 
REMARK    6  A    between atoms: C15_18  and  N2_19 
REMARK    7  A    between atoms: C18_23  and  N3_24 
ROOT
HETATM    1  C2  UNL     1      24.662   4.488  50.230  1.00  0.00     0.076 A 
HETATM    2  C3  UNL     1      23.445   5.175  50.246  1.00  0.00     0.069 A 
HETATM    3  C4  UNL     1      22.358   4.575  50.826  1.00  0.00     0.066 A 
HETATM    4  C5  UNL     1      22.501   3.315  51.373  1.00  0.00     0.017 A 
HETATM    5  C6  UNL     1      23.697   2.632  51.361  1.00  0.00     0.025 A 
HETATM    6  C7  UNL     1      24.805   3.211  50.785  1.00  0.00    -0.024 A 
HETATM    7  C15 UNL     1      21.364   2.897  51.882  1.00  0.00     0.044 A 
HETATM    8  C21 UNL     1      20.350   3.958  51.669  1.00  0.00     0.207 A 
HETATM    9  N4  UNL     1      21.125   4.985  50.977  1.00  0.00    -0.283 NA
ENDROOT
BRANCH   7  10
HETATM   10  N2  UNL     1      20.943   1.715  52.548  1.00  0.00    -0.351 N 
HETATM   11  C16 UNL     1      21.552   1.049  53.647  1.00  0.00     0.136 A 
HETATM   12  C17 UNL     1      21.001  -0.074  54.076  1.00  0.00     0.157 A 
HETATM   13  F1  UNL     1      21.607  -0.691  55.129  1.00  0.00    -0.202 F 
HETATM   14  C18 UNL     1      19.812  -0.636  53.494  1.00  0.00     0.064 A 
HETATM   15  C19 UNL     1      19.229  -0.015  52.484  1.00  0.00     0.025 A 
HETATM   16  C20 UNL     1      19.720   1.244  51.894  1.00  0.00     0.158 A 
BRANCH  14  17
HETATM   17  N3  UNL     1      19.217  -1.843  53.952  1.00  0.00    -0.397 N 
HETATM   18  H21 UNL     1      19.576  -2.476  54.690  1.00  0.00     0.156 HD
HETATM   19  H22 UNL     1      18.306  -2.184  53.529  1.00  0.00     0.156 HD
ENDBRANCH  14  17
ENDBRANCH   7  10
BRANCH   6  20
HETATM   20  C8  UNL     1      26.179   2.667  50.659  1.00  0.00     0.043 C 
BRANCH  20  21
HETATM   21  C9  UNL     1      26.434   1.539  51.628  1.00  0.00     0.024 C 
BRANCH  21  22
HETATM   22  C10 UNL     1      27.459   1.879  52.658  1.00  0.00     0.117 C 
BRANCH  22  23
HETATM   23  N1  UNL     1      27.931   0.833  53.472  1.00  0.00    -0.408 N 
HETATM   24  C11 UNL     1      29.328   0.703  53.669  1.00  0.00     0.143 C 
HETATM   25  C12 UNL     1      29.621  -0.733  54.096  1.00  0.00     0.187 C 
HETATM   26  O2  UNL     1      29.166  -1.528  53.052  1.00  0.00    -0.388 OA
HETATM   27  C13 UNL     1      27.799  -1.534  53.041  1.00  0.00     0.187 C 
HETATM   28  C14 UNL     1      27.136  -0.321  53.649  1.00  0.00     0.143 C 
ENDBRANCH  22  23
ENDBRANCH  21  22
ENDBRANCH  20  21
ENDBRANCH   6  20
BRANCH   1  29
HETATM   29  O1  UNL     1      25.712   5.166  49.624  1.00  0.00    -0.355 OA
HETATM   30  C1  UNL     1      25.567   6.240  48.743  1.00  0.00     0.210 C 
ENDBRANCH   1  29
TORSDOF 7
ENDMDL
