MODEL 1
REMARK VINA RESULT:      -8.8      0.000      0.000
REMARK  6 active torsions:
REMARK  status: ('A' for Active; 'I' for Inactive)
REMARK    1  A    between atoms: C4_4  and  C5_5 
REMARK    2  A    between atoms: C9_9  and  O1_10 
REMARK    3  A    between atoms: O1_10  and  C10_11 
REMARK    4  A    between atoms: C10_11  and  C11_12 
REMARK    5  A    between atoms: C19_21  and  N1_22 
REMARK    6  A    between atoms: C24_29  and  N4_30 
ROOT
HETATM    1  C1  UNL     1      26.557   0.607  50.731  1.00  0.00     0.017 C 
HETATM    2  C2  UNL     1      26.177   1.351  51.979  1.00  0.00     0.053 C 
HETATM    3  C3  UNL     1      24.773   0.992  52.404  1.00  0.00    -0.044 C 
HETATM    4  C4  UNL     1      23.428   0.955  52.502  1.00  0.00    -0.006 C 
HETATM    5  C18 UNL     1      23.153   0.017  53.573  1.00  0.00     0.047 A 
HETATM    6  C19 UNL     1      21.928  -0.305  54.114  1.00  0.00     0.135 A 
HETATM    7  N2  UNL     1      21.920  -1.139  55.186  1.00  0.00    -0.224 NA
HETATM    8  C20 UNL     1      23.079  -1.642  55.708  1.00  0.00     0.235 A 
HETATM    9  N3  UNL     1      24.297  -1.325  55.170  1.00  0.00    -0.244 NA
HETATM   10  C21 UNL     1      24.318  -0.497  54.103  1.00  0.00     0.066 A 
HETATM   11  C22 UNL     1      25.355  -0.058  53.251  1.00  0.00     0.069 A 
HETATM   12  C23 UNL     1      26.560  -0.871  52.989  1.00  0.00     0.067 A 
HETATM   13  C24 UNL     1      26.637   0.555  53.218  1.00  0.00     0.185 A 
ENDROOT
BRANCH   4  14
HETATM   14  C5  UNL     1      22.629   1.815  51.653  1.00  0.00    -0.022 A 
HETATM   15  C6  UNL     1      21.900   1.220  50.614  1.00  0.00     0.012 A 
HETATM   16  C7  UNL     1      21.117   1.924  49.720  1.00  0.00     0.004 A 
HETATM   17  C8  UNL     1      21.043   3.294  49.853  1.00  0.00     0.037 A 
HETATM   18  C9  UNL     1      21.729   3.960  50.849  1.00  0.00     0.069 A 
HETATM   19  C17 UNL     1      22.487   3.182  51.696  1.00  0.00     0.049 A 
BRANCH  18  20
HETATM   20  O1  UNL     1      21.701   5.334  51.044  1.00  0.00    -0.349 OA
BRANCH  20  21
HETATM   21  C10 UNL     1      22.823   5.948  51.620  1.00  0.00     0.207 C 
BRANCH  21  22
HETATM   22  C11 UNL     1      23.765   6.478  50.527  1.00  0.00     0.146 C 
HETATM   23  C12 UNL     1      23.138   6.271  49.196  1.00  0.00     0.037 C 
HETATM   24  C13 UNL     1      24.350   5.928  48.345  1.00  0.00     0.040 C 
HETATM   25  C14 UNL     1      25.214   5.248  49.385  1.00  0.00     0.054 C 
HETATM   26  C15 UNL     1      26.646   5.461  48.958  1.00  0.00     0.045 C 
HETATM   27  C16 UNL     1      24.951   3.757  49.299  1.00  0.00     0.045 C 
HETATM   28  O2  UNL     1      24.923   5.781  50.602  1.00  0.00    -0.373 OA
ENDBRANCH  21  22
ENDBRANCH  20  21
ENDBRANCH  18  20
ENDBRANCH   4  14
BRANCH   6  29
HETATM   29  N1  UNL     1      20.690   0.166  53.605  1.00  0.00    -0.383 N 
HETATM   30  H22 UNL     1      19.818  -0.315  53.972  1.00  0.00     0.157 HD
HETATM   31  H23 UNL     1      20.580   0.936  52.908  1.00  0.00     0.157 HD
ENDBRANCH   6  29
BRANCH  13  32
HETATM   32  N4  UNL     1      27.326   1.276  54.206  1.00  0.00     0.100 N 
HETATM   33  C25 UNL     1      28.286   2.213  53.652  1.00  0.00     0.275 C 
HETATM   34  C26 UNL     1      29.419   1.397  54.249  1.00  0.00     0.060 C 
HETATM   35  C27 UNL     1      28.334   0.607  54.966  1.00  0.00     0.275 C 
ENDBRANCH  13  32
TORSDOF 6
ENDMDL
MODEL 2
REMARK VINA RESULT:      -8.6      0.943      1.078
REMARK  6 active torsions:
REMARK  status: ('A' for Active; 'I' for Inactive)
REMARK    1  A    between atoms: C4_4  and  C5_5 
REMARK    2  A    between atoms: C9_9  and  O1_10 
REMARK    3  A    between atoms: O1_10  and  C10_11 
REMARK    4  A    between atoms: C10_11  and  C11_12 
REMARK    5  A    between atoms: C19_21  and  N1_22 
REMARK    6  A    between atoms: C24_29  and  N4_30 
ROOT
HETATM    1  C1  UNL     1      26.336   1.373  50.621  1.00  0.00     0.017 C 
HETATM    2  C2  UNL     1      26.083   1.890  52.008  1.00  0.00     0.053 C 
HETATM    3  C3  UNL     1      24.674   1.565  52.446  1.00  0.00    -0.044 C 
HETATM    4  C4  UNL     1      23.338   1.614  52.620  1.00  0.00    -0.006 C 
HETATM    5  C18 UNL     1      23.032   0.512  53.511  1.00  0.00     0.047 A 
HETATM    6  C19 UNL     1      21.810   0.188  54.058  1.00  0.00     0.135 A 
HETATM    7  N2  UNL     1      21.779  -0.835  54.952  1.00  0.00    -0.224 NA
HETATM    8  C20 UNL     1      22.913  -1.518  55.295  1.00  0.00     0.235 A 
HETATM    9  N3  UNL     1      24.127  -1.198  54.751  1.00  0.00    -0.244 NA
HETATM   10  C21 UNL     1      24.171  -0.184  53.860  1.00  0.00     0.066 A 
HETATM   11  C22 UNL     1      25.201   0.330  53.042  1.00  0.00     0.069 A 
HETATM   12  C23 UNL     1      26.316  -0.508  52.556  1.00  0.00     0.067 A 
HETATM   13  C24 UNL     1      26.529   0.837  53.043  1.00  0.00     0.185 A 
ENDROOT
BRANCH   4  14
HETATM   14  C5  UNL     1      22.578   2.681  52.000  1.00  0.00    -0.022 A 
HETATM   15  C6  UNL     1      21.370   2.350  51.371  1.00  0.00     0.012 A 
HETATM   16  C7  UNL     1      20.561   3.263  50.725  1.00  0.00     0.004 A 
HETATM   17  C8  UNL     1      20.958   4.582  50.694  1.00  0.00     0.037 A 
HETATM   18  C9  UNL     1      22.133   4.995  51.289  1.00  0.00     0.069 A 
HETATM   19  C17 UNL     1      22.882   4.019  51.911  1.00  0.00     0.049 A 
BRANCH  18  20
HETATM   20  O1  UNL     1      22.597   6.304  51.298  1.00  0.00    -0.349 OA
BRANCH  20  21
HETATM   21  C10 UNL     1      23.971   6.523  51.476  1.00  0.00     0.207 C 
BRANCH  21  22
HETATM   22  C11 UNL     1      24.545   7.314  50.288  1.00  0.00     0.146 C 
HETATM   23  C12 UNL     1      23.939   6.814  49.027  1.00  0.00     0.037 C 
HETATM   24  C13 UNL     1      25.116   6.914  48.070  1.00  0.00     0.040 C 
HETATM   25  C14 UNL     1      26.258   6.670  49.035  1.00  0.00     0.054 C 
HETATM   26  C15 UNL     1      27.457   7.390  48.469  1.00  0.00     0.045 C 
HETATM   27  C16 UNL     1      26.581   5.189  49.001  1.00  0.00     0.045 C 
HETATM   28  O2  UNL     1      25.884   7.115  50.265  1.00  0.00    -0.373 OA
ENDBRANCH  21  22
ENDBRANCH  20  21
ENDBRANCH  18  20
ENDBRANCH   4  14
BRANCH   6  29
HETATM   29  N1  UNL     1      20.596   0.841  53.726  1.00  0.00    -0.383 N 
HETATM   30  H22 UNL     1      20.602   1.901  53.781  1.00  0.00     0.157 HD
HETATM   31  H23 UNL     1      19.713   0.362  53.439  1.00  0.00     0.157 HD
ENDBRANCH   6  29
BRANCH  13  32
HETATM   32  N4  UNL     1      27.324   1.298  54.104  1.00  0.00     0.100 N 
HETATM   33  C25 UNL     1      28.484   2.045  53.654  1.00  0.00     0.275 C 
HETATM   34  C26 UNL     1      29.391   0.950  54.187  1.00  0.00     0.060 C 
HETATM   35  C27 UNL     1      28.135   0.359  54.812  1.00  0.00     0.275 C 
ENDBRANCH  13  32
TORSDOF 6
ENDMDL
MODEL 3
REMARK VINA RESULT:      -8.5      2.728      4.655
REMARK  6 active torsions:
REMARK  status: ('A' for Active; 'I' for Inactive)
REMARK    1  A    between atoms: C4_4  and  C5_5 
REMARK    2  A    between atoms: C9_9  and  O1_10 
REMARK    3  A    between atoms: O1_10  and  C10_11 
REMARK    4  A    between atoms: C10_11  and  C11_12 
REMARK    5  A    between atoms: C19_21  and  N1_22 
REMARK    6  A    between atoms: C24_29  and  N4_30 
ROOT
HETATM    1  C1  UNL     1      26.348   1.642  50.606  1.00  0.00     0.017 C 
HETATM    2  C2  UNL     1      26.107   2.082  52.021  1.00  0.00     0.053 C 
HETATM    3  C3  UNL     1      24.702   1.735  52.453  1.00  0.00    -0.044 C 
HETATM    4  C4  UNL     1      23.368   1.776  52.642  1.00  0.00    -0.006 C 
HETATM    5  C18 UNL     1      23.069   0.626  53.473  1.00  0.00     0.047 A 
HETATM    6  C19 UNL     1      21.851   0.274  54.013  1.00  0.00     0.135 A 
HETATM    7  N2  UNL     1      21.828  -0.796  54.850  1.00  0.00    -0.224 NA
HETATM    8  C20 UNL     1      22.964  -1.497  55.146  1.00  0.00     0.235 A 
HETATM    9  N3  UNL     1      24.173  -1.150  54.609  1.00  0.00    -0.244 NA
HETATM   10  C21 UNL     1      24.210  -0.088  53.773  1.00  0.00     0.066 A 
HETATM   11  C22 UNL     1      25.233   0.469  52.975  1.00  0.00     0.069 A 
HETATM   12  C23 UNL     1      26.343  -0.342  52.435  1.00  0.00     0.067 A 
HETATM   13  C24 UNL     1      26.562   0.974  52.993  1.00  0.00     0.185 A 
ENDROOT
BRANCH   4  14
HETATM   14  C5  UNL     1      22.604   2.876  52.088  1.00  0.00    -0.022 A 
HETATM   15  C6  UNL     1      23.009   4.181  52.400  1.00  0.00     0.012 A 
HETATM   16  C7  UNL     1      22.359   5.317  51.957  1.00  0.00     0.004 A 
HETATM   17  C8  UNL     1      21.245   5.164  51.161  1.00  0.00     0.037 A 
HETATM   18  C9  UNL     1      20.778   3.914  50.806  1.00  0.00     0.069 A 
HETATM   19  C17 UNL     1      21.484   2.835  51.292  1.00  0.00     0.049 A 
BRANCH  18  20
HETATM   20  O1  UNL     1      19.664   3.684  50.009  1.00  0.00    -0.349 OA
BRANCH  20  21
HETATM   21  C10 UNL     1      18.468   4.344  50.327  1.00  0.00     0.207 C 
BRANCH  21  22
HETATM   22  C11 UNL     1      17.753   3.628  51.485  1.00  0.00     0.146 C 
HETATM   23  C12 UNL     1      17.162   2.360  50.988  1.00  0.00     0.037 C 
HETATM   24  C13 UNL     1      15.869   2.300  51.785  1.00  0.00     0.040 C 
HETATM   25  C14 UNL     1      15.587   3.780  51.935  1.00  0.00     0.054 C 
HETATM   26  C15 UNL     1      14.802   3.939  53.214  1.00  0.00     0.045 C 
HETATM   27  C16 UNL     1      14.665   4.190  50.803  1.00  0.00     0.045 C 
HETATM   28  O2  UNL     1      16.773   4.446  51.936  1.00  0.00    -0.373 OA
ENDBRANCH  21  22
ENDBRANCH  20  21
ENDBRANCH  18  20
ENDBRANCH   4  14
BRANCH   6  29
HETATM   29  N1  UNL     1      20.635   0.946  53.729  1.00  0.00    -0.383 N 
HETATM   30  H22 UNL     1      20.670   2.007  53.741  1.00  0.00     0.157 HD
HETATM   31  H23 UNL     1      19.725   0.479  53.514  1.00  0.00     0.157 HD
ENDBRANCH   6  29
BRANCH  13  32
HETATM   32  N4  UNL     1      27.367   1.375  54.069  1.00  0.00     0.100 N 
HETATM   33  C25 UNL     1      28.599   2.013  53.643  1.00  0.00     0.275 C 
HETATM   34  C26 UNL     1      29.393   0.849  54.211  1.00  0.00     0.060 C 
HETATM   35  C27 UNL     1      28.074   0.377  54.807  1.00  0.00     0.275 C 
ENDBRANCH  13  32
TORSDOF 6
ENDMDL
MODEL 4
REMARK VINA RESULT:      -8.4      1.778      2.586
REMARK  6 active torsions:
REMARK  status: ('A' for Active; 'I' for Inactive)
REMARK    1  A    between atoms: C4_4  and  C5_5 
REMARK    2  A    between atoms: C9_9  and  O1_10 
REMARK    3  A    between atoms: O1_10  and  C10_11 
REMARK    4  A    between atoms: C10_11  and  C11_12 
REMARK    5  A    between atoms: C19_21  and  N1_22 
REMARK    6  A    between atoms: C24_29  and  N4_30 
ROOT
HETATM    1  C1  UNL     1      26.377   1.770  50.452  1.00  0.00     0.017 C 
HETATM    2  C2  UNL     1      26.085   2.240  51.847  1.00  0.00     0.053 C 
HETATM    3  C3  UNL     1      24.671   1.884  52.243  1.00  0.00    -0.044 C 
HETATM    4  C4  UNL     1      23.331   1.910  52.387  1.00  0.00    -0.006 C 
HETATM    5  C18 UNL     1      23.021   0.776  53.236  1.00  0.00     0.047 A 
HETATM    6  C19 UNL     1      21.791   0.419  53.745  1.00  0.00     0.135 A 
HETATM    7  N2  UNL     1      21.755  -0.630  54.607  1.00  0.00    -0.224 NA
HETATM    8  C20 UNL     1      22.890  -1.308  54.956  1.00  0.00     0.235 A 
HETATM    9  N3  UNL     1      24.111  -0.956  54.450  1.00  0.00    -0.244 NA
HETATM   10  C21 UNL     1      24.161   0.086  53.591  1.00  0.00     0.066 A 
HETATM   11  C22 UNL     1      25.202   0.638  52.813  1.00  0.00     0.069 A 
HETATM   12  C23 UNL     1      26.339  -0.169  52.328  1.00  0.00     0.067 A 
HETATM   13  C24 UNL     1      26.522   1.163  52.860  1.00  0.00     0.185 A 
ENDROOT
BRANCH   4  14
HETATM   14  C5  UNL     1      22.570   2.985  51.782  1.00  0.00    -0.022 A 
HETATM   15  C6  UNL     1      22.695   4.269  52.330  1.00  0.00     0.012 A 
HETATM   16  C7  UNL     1      22.012   5.376  51.866  1.00  0.00     0.004 A 
HETATM   17  C8  UNL     1      21.156   5.215  50.798  1.00  0.00     0.037 A 
HETATM   18  C9  UNL     1      20.973   3.985  50.199  1.00  0.00     0.069 A 
HETATM   19  C17 UNL     1      21.692   2.933  50.726  1.00  0.00     0.049 A 
BRANCH  18  20
HETATM   20  O1  UNL     1      20.129   3.748  49.122  1.00  0.00    -0.349 OA
BRANCH  20  21
HETATM   21  C10 UNL     1      19.477   4.841  48.533  1.00  0.00     0.207 C 
BRANCH  21  22
HETATM   22  C11 UNL     1      20.053   5.117  47.134  1.00  0.00     0.146 C 
HETATM   23  C12 UNL     1      20.789   3.918  46.661  1.00  0.00     0.037 C 
HETATM   24  C13 UNL     1      21.949   4.555  45.912  1.00  0.00     0.040 C 
HETATM   25  C14 UNL     1      22.112   5.826  46.720  1.00  0.00     0.054 C 
HETATM   26  C15 UNL     1      22.685   6.859  45.780  1.00  0.00     0.045 C 
HETATM   27  C16 UNL     1      23.168   5.566  47.778  1.00  0.00     0.045 C 
HETATM   28  O2  UNL     1      20.901   6.167  47.234  1.00  0.00    -0.373 OA
ENDBRANCH  21  22
ENDBRANCH  20  21
ENDBRANCH  18  20
ENDBRANCH   4  14
BRANCH   6  29
HETATM   29  N1  UNL     1      20.576   1.067  53.406  1.00  0.00    -0.383 N 
HETATM   30  H22 UNL     1      19.807   0.449  53.013  1.00  0.00     0.157 HD
HETATM   31  H23 UNL     1      20.388   2.089  53.513  1.00  0.00     0.157 HD
ENDBRANCH   6  29
BRANCH  13  32
HETATM   32  N4  UNL     1      27.287   1.602  53.952  1.00  0.00     0.100 N 
HETATM   33  C25 UNL     1      28.552   2.188  53.553  1.00  0.00     0.275 C 
HETATM   34  C26 UNL     1      29.290   1.038  54.216  1.00  0.00     0.060 C 
HETATM   35  C27 UNL     1      27.934   0.628  54.773  1.00  0.00     0.275 C 
ENDBRANCH  13  32
TORSDOF 6
ENDMDL
MODEL 5
REMARK VINA RESULT:      -8.2      4.289      7.737
REMARK  6 active torsions:
REMARK  status: ('A' for Active; 'I' for Inactive)
REMARK    1  A    between atoms: C4_4  and  C5_5 
REMARK    2  A    between atoms: C9_9  and  O1_10 
REMARK    3  A    between atoms: O1_10  and  C10_11 
REMARK    4  A    between atoms: C10_11  and  C11_12 
REMARK    5  A    between atoms: C19_21  and  N1_22 
REMARK    6  A    between atoms: C24_29  and  N4_30 
ROOT
HETATM    1  C1  UNL     1      22.467   6.532  48.775  1.00  0.00     0.017 C 
HETATM    2  C2  UNL     1      22.953   5.212  48.251  1.00  0.00     0.053 C 
HETATM    3  C3  UNL     1      24.061   4.670  49.124  1.00  0.00    -0.044 C 
HETATM    4  C4  UNL     1      25.272   4.441  49.671  1.00  0.00    -0.006 C 
HETATM    5  C18 UNL     1      25.049   3.404  50.659  1.00  0.00     0.047 A 
HETATM    6  C19 UNL     1      25.993   2.763  51.431  1.00  0.00     0.135 A 
HETATM    7  N2  UNL     1      25.564   1.745  52.223  1.00  0.00    -0.224 NA
HETATM    8  C20 UNL     1      24.249   1.372  52.255  1.00  0.00     0.235 A 
HETATM    9  N3  UNL     1      23.310   2.009  51.491  1.00  0.00    -0.244 NA
HETATM   10  C21 UNL     1      23.724   3.023  50.700  1.00  0.00     0.066 A 
HETATM   11  C22 UNL     1      23.033   3.948  49.887  1.00  0.00     0.069 A 
HETATM   12  C23 UNL     1      21.650   4.375  50.176  1.00  0.00     0.067 A 
HETATM   13  C24 UNL     1      22.089   4.074  48.832  1.00  0.00     0.185 A 
ENDROOT
BRANCH   4  14
HETATM   14  C5  UNL     1      26.427   5.155  49.166  1.00  0.00    -0.022 A 
HETATM   15  C6  UNL     1      26.330   6.545  49.019  1.00  0.00     0.012 A 
HETATM   16  C7  UNL     1      27.346   7.343  48.530  1.00  0.00     0.004 A 
HETATM   17  C8  UNL     1      28.530   6.741  48.164  1.00  0.00     0.037 A 
HETATM   18  C9  UNL     1      28.711   5.377  48.276  1.00  0.00     0.069 A 
HETATM   19  C17 UNL     1      27.646   4.656  48.772  1.00  0.00     0.049 A 
BRANCH  18  20
HETATM   20  O1  UNL     1      29.874   4.703  47.927  1.00  0.00    -0.349 OA
BRANCH  20  21
HETATM   21  C10 UNL     1      30.996   5.457  47.557  1.00  0.00     0.207 C 
BRANCH  21  22
HETATM   22  C11 UNL     1      32.289   4.697  47.898  1.00  0.00     0.146 C 
HETATM   23  C12 UNL     1      33.328   5.666  48.333  1.00  0.00     0.037 C 
HETATM   24  C13 UNL     1      34.582   5.046  47.740  1.00  0.00     0.040 C 
HETATM   25  C14 UNL     1      33.991   4.388  46.511  1.00  0.00     0.054 C 
HETATM   26  C15 UNL     1      34.870   3.202  46.196  1.00  0.00     0.045 C 
HETATM   27  C16 UNL     1      34.136   5.358  45.354  1.00  0.00     0.045 C 
HETATM   28  O2  UNL     1      32.701   4.054  46.780  1.00  0.00    -0.373 OA
ENDBRANCH  21  22
ENDBRANCH  20  21
ENDBRANCH  18  20
ENDBRANCH   4  14
BRANCH   6  29
HETATM   29  N1  UNL     1      27.366   3.117  51.459  1.00  0.00    -0.383 N 
HETATM   30  H22 UNL     1      27.648   3.854  52.169  1.00  0.00     0.157 HD
HETATM   31  H23 UNL     1      28.105   2.711  50.841  1.00  0.00     0.157 HD
ENDBRANCH   6  29
BRANCH  13  32
HETATM   32  N4  UNL     1      21.614   3.120  47.919  1.00  0.00     0.100 N 
HETATM   33  C25 UNL     1      20.503   2.346  48.441  1.00  0.00     0.275 C 
HETATM   34  C26 UNL     1      21.372   1.101  48.433  1.00  0.00     0.060 C 
HETATM   35  C27 UNL     1      22.394   1.945  47.685  1.00  0.00     0.275 C 
ENDBRANCH  13  32
TORSDOF 6
ENDMDL
MODEL 6
REMARK VINA RESULT:      -8.2      5.085      8.600
REMARK  6 active torsions:
REMARK  status: ('A' for Active; 'I' for Inactive)
REMARK    1  A    between atoms: C4_4  and  C5_5 
REMARK    2  A    between atoms: C9_9  and  O1_10 
REMARK    3  A    between atoms: O1_10  and  C10_11 
REMARK    4  A    between atoms: C10_11  and  C11_12 
REMARK    5  A    between atoms: C19_21  and  N1_22 
REMARK    6  A    between atoms: C24_29  and  N4_30 
ROOT
HETATM    1  C1  UNL     1      26.408   2.864  49.716  1.00  0.00     0.017 C 
HETATM    2  C2  UNL     1      25.791   4.064  50.374  1.00  0.00     0.053 C 
HETATM    3  C3  UNL     1      25.650   5.197  49.385  1.00  0.00    -0.044 C 
HETATM    4  C4  UNL     1      25.916   6.265  48.606  1.00  0.00    -0.006 C 
HETATM    5  C18 UNL     1      24.657   6.588  47.964  1.00  0.00     0.047 A 
HETATM    6  C19 UNL     1      24.385   7.654  47.135  1.00  0.00     0.135 A 
HETATM    7  N2  UNL     1      23.099   7.815  46.728  1.00  0.00    -0.224 NA
HETATM    8  C20 UNL     1      22.112   6.955  47.123  1.00  0.00     0.235 A 
HETATM    9  N3  UNL     1      22.380   5.895  47.945  1.00  0.00    -0.244 NA
HETATM   10  C21 UNL     1      23.656   5.723  48.356  1.00  0.00     0.066 A 
HETATM   11  C22 UNL     1      24.296   4.705  49.096  1.00  0.00     0.069 A 
HETATM   12  C23 UNL     1      23.821   3.306  49.090  1.00  0.00     0.067 A 
HETATM   13  C24 UNL     1      24.254   3.960  50.305  1.00  0.00     0.185 A 
ENDROOT
BRANCH   4  14
HETATM   14  C5  UNL     1      27.244   6.844  48.621  1.00  0.00    -0.022 A 
HETATM   15  C6  UNL     1      27.397   8.129  49.159  1.00  0.00     0.012 A 
HETATM   16  C7  UNL     1      28.601   8.804  49.215  1.00  0.00     0.004 A 
HETATM   17  C8  UNL     1      29.723   8.182  48.714  1.00  0.00     0.037 A 
HETATM   18  C9  UNL     1      29.662   6.916  48.167  1.00  0.00     0.069 A 
HETATM   19  C17 UNL     1      28.422   6.314  48.149  1.00  0.00     0.049 A 
BRANCH  18  20
HETATM   20  O1  UNL     1      30.750   6.228  47.645  1.00  0.00    -0.349 OA
BRANCH  20  21
HETATM   21  C10 UNL     1      32.037   6.613  48.045  1.00  0.00     0.207 C 
BRANCH  21  22
HETATM   22  C11 UNL     1      32.821   5.399  48.570  1.00  0.00     0.146 C 
HETATM   23  C12 UNL     1      34.205   5.437  48.031  1.00  0.00     0.037 C 
HETATM   24  C13 UNL     1      34.478   3.959  47.806  1.00  0.00     0.040 C 
HETATM   25  C14 UNL     1      33.077   3.480  47.488  1.00  0.00     0.054 C 
HETATM   26  C15 UNL     1      33.013   2.033  47.913  1.00  0.00     0.045 C 
HETATM   27  C16 UNL     1      32.913   3.500  45.981  1.00  0.00     0.045 C 
HETATM   28  O2  UNL     1      32.191   4.280  48.141  1.00  0.00    -0.373 OA
ENDBRANCH  21  22
ENDBRANCH  20  21
ENDBRANCH  18  20
ENDBRANCH   4  14
BRANCH   6  29
HETATM   29  N1  UNL     1      25.367   8.567  46.673  1.00  0.00    -0.383 N 
HETATM   30  H22 UNL     1      26.175   8.151  46.124  1.00  0.00     0.157 HD
HETATM   31  H23 UNL     1      25.351   9.600  46.831  1.00  0.00     0.157 HD
ENDBRANCH   6  29
BRANCH  13  32
HETATM   32  N4  UNL     1      23.555   4.202  51.498  1.00  0.00     0.100 N 
HETATM   33  C25 UNL     1      23.578   3.069  52.404  1.00  0.00     0.275 C 
HETATM   34  C26 UNL     1      22.080   2.896  52.218  1.00  0.00     0.060 C 
HETATM   35  C27 UNL     1      22.127   4.219  51.466  1.00  0.00     0.275 C 
ENDBRANCH  13  32
TORSDOF 6
ENDMDL
MODEL 7
REMARK VINA RESULT:      -8.2      3.823      8.281
REMARK  6 active torsions:
REMARK  status: ('A' for Active; 'I' for Inactive)
REMARK    1  A    between atoms: C4_4  and  C5_5 
REMARK    2  A    between atoms: C9_9  and  O1_10 
REMARK    3  A    between atoms: O1_10  and  C10_11 
REMARK    4  A    between atoms: C10_11  and  C11_12 
REMARK    5  A    between atoms: C19_21  and  N1_22 
REMARK    6  A    between atoms: C24_29  and  N4_30 
ROOT
HETATM    1  C1  UNL     1      23.236   8.187  46.594  1.00  0.00     0.017 C 
HETATM    2  C2  UNL     1      23.958   8.364  47.899  1.00  0.00     0.053 C 
HETATM    3  C3  UNL     1      24.771   7.134  48.227  1.00  0.00    -0.044 C 
HETATM    4  C4  UNL     1      25.132   5.908  48.657  1.00  0.00    -0.006 C 
HETATM    5  C18 UNL     1      26.564   5.840  48.443  1.00  0.00     0.047 A 
HETATM    6  C19 UNL     1      27.419   4.820  48.799  1.00  0.00     0.135 A 
HETATM    7  N2  UNL     1      28.747   5.019  48.590  1.00  0.00    -0.224 NA
HETATM    8  C20 UNL     1      29.218   6.181  48.046  1.00  0.00     0.235 A 
HETATM    9  N3  UNL     1      28.370   7.194  47.690  1.00  0.00    -0.244 NA
HETATM   10  C21 UNL     1      27.047   7.009  47.892  1.00  0.00     0.066 A 
HETATM   11  C22 UNL     1      25.909   7.772  47.552  1.00  0.00     0.069 A 
HETATM   12  C23 UNL     1      25.882   8.671  46.381  1.00  0.00     0.067 A 
HETATM   13  C24 UNL     1      25.312   9.058  47.652  1.00  0.00     0.185 A 
ENDROOT
BRANCH   4  14
HETATM   14  C5  UNL     1      24.133   5.035  49.239  1.00  0.00    -0.022 A 
HETATM   15  C6  UNL     1      23.163   4.486  48.390  1.00  0.00     0.012 A 
HETATM   16  C7  UNL     1      22.143   3.657  48.816  1.00  0.00     0.004 A 
HETATM   17  C8  UNL     1      22.071   3.347  50.157  1.00  0.00     0.037 A 
HETATM   18  C9  UNL     1      22.985   3.845  51.063  1.00  0.00     0.069 A 
HETATM   19  C17 UNL     1      23.969   4.665  50.553  1.00  0.00     0.049 A 
BRANCH  18  20
HETATM   20  O1  UNL     1      22.975   3.576  52.425  1.00  0.00    -0.349 OA
BRANCH  20  21
HETATM   21  C10 UNL     1      24.108   2.977  52.995  1.00  0.00     0.207 C 
BRANCH  21  22
HETATM   22  C11 UNL     1      24.291   1.551  52.449  1.00  0.00     0.146 C 
HETATM   23  C12 UNL     1      23.516   0.601  53.287  1.00  0.00     0.037 C 
HETATM   24  C13 UNL     1      24.435  -0.610  53.295  1.00  0.00     0.040 C 
HETATM   25  C14 UNL     1      25.778   0.083  53.192  1.00  0.00     0.054 C 
HETATM   26  C15 UNL     1      26.708  -0.888  52.506  1.00  0.00     0.045 C 
HETATM   27  C16 UNL     1      26.308   0.275  54.600  1.00  0.00     0.045 C 
HETATM   28  O2  UNL     1      25.610   1.249  52.512  1.00  0.00    -0.373 OA
ENDBRANCH  21  22
ENDBRANCH  20  21
ENDBRANCH  18  20
ENDBRANCH   4  14
BRANCH   6  29
HETATM   29  N1  UNL     1      26.992   3.583  49.346  1.00  0.00    -0.383 N 
HETATM   30  H22 UNL     1      26.013   3.266  49.085  1.00  0.00     0.157 HD
HETATM   31  H23 UNL     1      27.562   2.974  49.976  1.00  0.00     0.157 HD
ENDBRANCH   6  29
BRANCH  13  32
HETATM   32  N4  UNL     1      25.623  10.142  48.489  1.00  0.00     0.100 N 
HETATM   33  C25 UNL     1      25.176  11.413  47.952  1.00  0.00     0.275 C 
HETATM   34  C26 UNL     1      26.622  11.848  47.788  1.00  0.00     0.060 C 
HETATM   35  C27 UNL     1      26.979  10.586  48.561  1.00  0.00     0.275 C 
ENDBRANCH  13  32
TORSDOF 6
ENDMDL
MODEL 8
REMARK VINA RESULT:      -8.1      5.598      9.650
REMARK  6 active torsions:
REMARK  status: ('A' for Active; 'I' for Inactive)
REMARK    1  A    between atoms: C4_4  and  C5_5 
REMARK    2  A    between atoms: C9_9  and  O1_10 
REMARK    3  A    between atoms: O1_10  and  C10_11 
REMARK    4  A    between atoms: C10_11  and  C11_12 
REMARK    5  A    between atoms: C19_21  and  N1_22 
REMARK    6  A    between atoms: C24_29  and  N4_30 
ROOT
HETATM    1  C1  UNL     1      31.725   6.053  49.747  1.00  0.00     0.017 C 
HETATM    2  C2  UNL     1      31.189   5.428  48.491  1.00  0.00     0.053 C 
HETATM    3  C3  UNL     1      30.100   6.287  47.893  1.00  0.00    -0.044 C 
HETATM    4  C4  UNL     1      28.903   6.855  47.640  1.00  0.00    -0.006 C 
HETATM    5  C18 UNL     1      29.135   7.735  46.511  1.00  0.00     0.047 A 
HETATM    6  C19 UNL     1      28.204   8.479  45.820  1.00  0.00     0.135 A 
HETATM    7  N2  UNL     1      28.636   9.157  44.725  1.00  0.00    -0.224 NA
HETATM    8  C20 UNL     1      29.942   9.106  44.323  1.00  0.00     0.235 A 
HETATM    9  N3  UNL     1      30.868   8.370  45.009  1.00  0.00    -0.244 NA
HETATM   10  C21 UNL     1      30.452   7.692  46.101  1.00  0.00     0.066 A 
HETATM   11  C22 UNL     1      31.136   6.942  47.082  1.00  0.00     0.069 A 
HETATM   12  C23 UNL     1      32.538   7.218  47.452  1.00  0.00     0.067 A 
HETATM   13  C24 UNL     1      32.045   5.869  47.286  1.00  0.00     0.185 A 
ENDROOT
BRANCH   4  14
HETATM   14  C5  UNL     1      27.749   6.461  48.421  1.00  0.00    -0.022 A 
HETATM   15  C6  UNL     1      27.038   7.463  49.096  1.00  0.00     0.012 A 
HETATM   16  C7  UNL     1      25.934   7.224  49.891  1.00  0.00     0.004 A 
HETATM   17  C8  UNL     1      25.500   5.924  50.032  1.00  0.00     0.037 A 
HETATM   18  C9  UNL     1      26.141   4.877  49.402  1.00  0.00     0.069 A 
HETATM   19  C17 UNL     1      27.235   5.203  48.629  1.00  0.00     0.049 A 
BRANCH  18  20
HETATM   20  O1  UNL     1      25.761   3.544  49.498  1.00  0.00    -0.349 OA
BRANCH  20  21
HETATM   21  C10 UNL     1      26.599   2.660  50.192  1.00  0.00     0.207 C 
BRANCH  21  22
HETATM   22  C11 UNL     1      26.114   2.489  51.641  1.00  0.00     0.146 C 
HETATM   23  C12 UNL     1      27.289   2.338  52.538  1.00  0.00     0.037 C 
HETATM   24  C13 UNL     1      26.767   1.330  53.548  1.00  0.00     0.040 C 
HETATM   25  C14 UNL     1      25.819   0.544  52.666  1.00  0.00     0.054 C 
HETATM   26  C15 UNL     1      24.741   0.003  53.573  1.00  0.00     0.045 C 
HETATM   27  C16 UNL     1      26.577  -0.653  52.127  1.00  0.00     0.045 C 
HETATM   28  O2  UNL     1      25.350   1.372  51.694  1.00  0.00    -0.373 OA
ENDBRANCH  21  22
ENDBRANCH  20  21
ENDBRANCH  18  20
ENDBRANCH   4  14
BRANCH   6  29
HETATM   29  N1  UNL     1      26.841   8.589  46.198  1.00  0.00    -0.383 N 
HETATM   30  H22 UNL     1      26.558   8.090  47.091  1.00  0.00     0.157 HD
HETATM   31  H23 UNL     1      26.111   9.118  45.670  1.00  0.00     0.157 HD
ENDBRANCH   6  29
BRANCH  13  32
HETATM   32  N4  UNL     1      32.465   4.855  46.411  1.00  0.00     0.100 N 
HETATM   33  C25 UNL     1      33.598   4.105  46.922  1.00  0.00     0.275 C 
HETATM   34  C26 UNL     1      34.463   4.658  45.802  1.00  0.00     0.060 C 
HETATM   35  C27 UNL     1      33.172   5.221  45.225  1.00  0.00     0.275 C 
ENDBRANCH  13  32
TORSDOF 6
ENDMDL
MODEL 9
REMARK VINA RESULT:      -8.1      2.444      5.841
REMARK  6 active torsions:
REMARK  status: ('A' for Active; 'I' for Inactive)
REMARK    1  A    between atoms: C4_4  and  C5_5 
REMARK    2  A    between atoms: C9_9  and  O1_10 
REMARK    3  A    between atoms: O1_10  and  C10_11 
REMARK    4  A    between atoms: C10_11  and  C11_12 
REMARK    5  A    between atoms: C19_21  and  N1_22 
REMARK    6  A    between atoms: C24_29  and  N4_30 
ROOT
HETATM    1  C1  UNL     1      23.028   2.138  49.504  1.00  0.00     0.017 C 
HETATM    2  C2  UNL     1      23.279   2.897  50.775  1.00  0.00     0.053 C 
HETATM    3  C3  UNL     1      23.990   2.025  51.783  1.00  0.00    -0.044 C 
HETATM    4  C4  UNL     1      24.240   1.120  52.751  1.00  0.00    -0.006 C 
HETATM    5  C18 UNL     1      25.666   1.215  52.998  1.00  0.00     0.047 A 
HETATM    6  C19 UNL     1      26.398   0.553  53.958  1.00  0.00     0.135 A 
HETATM    7  N2  UNL     1      27.713   0.877  54.071  1.00  0.00    -0.224 NA
HETATM    8  C20 UNL     1      28.289   1.819  53.266  1.00  0.00     0.235 A 
HETATM    9  N3  UNL     1      27.563   2.476  52.310  1.00  0.00    -0.244 NA
HETATM   10  C21 UNL     1      26.255   2.163  52.186  1.00  0.00     0.066 A 
HETATM   11  C22 UNL     1      25.259   2.550  51.262  1.00  0.00     0.069 A 
HETATM   12  C23 UNL     1      25.579   2.938  49.874  1.00  0.00     0.067 A 
HETATM   13  C24 UNL     1      24.612   3.666  50.666  1.00  0.00     0.185 A 
ENDROOT
BRANCH   4  14
HETATM   14  C5  UNL     1      23.141   0.370  53.325  1.00  0.00    -0.022 A 
HETATM   15  C6  UNL     1      23.449  -0.746  54.116  1.00  0.00     0.012 A 
HETATM   16  C7  UNL     1      22.500  -1.559  54.704  1.00  0.00     0.004 A 
HETATM   17  C8  UNL     1      21.169  -1.261  54.506  1.00  0.00     0.037 A 
HETATM   18  C9  UNL     1      20.779  -0.180  53.742  1.00  0.00     0.069 A 
HETATM   19  C17 UNL     1      21.789   0.578  53.190  1.00  0.00     0.049 A 
BRANCH  18  20
HETATM   20  O1  UNL     1      19.460   0.181  53.499  1.00  0.00    -0.349 OA
BRANCH  20  21
HETATM   21  C10 UNL     1      18.748  -0.518  52.513  1.00  0.00     0.207 C 
BRANCH  21  22
HETATM   22  C11 UNL     1      18.311   0.437  51.390  1.00  0.00     0.146 C 
HETATM   23  C12 UNL     1      19.438   0.628  50.442  1.00  0.00     0.037 C 
HETATM   24  C13 UNL     1      19.270   2.092  50.068  1.00  0.00     0.040 C 
HETATM   25  C14 UNL     1      18.680   2.623  51.358  1.00  0.00     0.054 C 
HETATM   26  C15 UNL     1      17.832   3.814  50.982  1.00  0.00     0.045 C 
HETATM   27  C16 UNL     1      19.823   3.152  52.203  1.00  0.00     0.045 C 
HETATM   28  O2  UNL     1      17.981   1.622  51.956  1.00  0.00    -0.373 OA
ENDBRANCH  21  22
ENDBRANCH  20  21
ENDBRANCH  18  20
ENDBRANCH   4  14
BRANCH   6  29
HETATM   29  N1  UNL     1      25.866  -0.449  54.809  1.00  0.00    -0.383 N 
HETATM   30  H22 UNL     1      26.382  -0.616  55.721  1.00  0.00     0.157 HD
HETATM   31  H23 UNL     1      25.017  -1.024  54.604  1.00  0.00     0.157 HD
ENDBRANCH   6  29
BRANCH  13  32
HETATM   32  N4  UNL     1      24.591   5.016  51.049  1.00  0.00     0.100 N 
HETATM   33  C25 UNL     1      23.304   5.645  50.822  1.00  0.00     0.275 C 
HETATM   34  C26 UNL     1      23.931   6.535  49.763  1.00  0.00     0.060 C 
HETATM   35  C27 UNL     1      25.265   5.972  50.230  1.00  0.00     0.275 C 
ENDBRANCH  13  32
TORSDOF 6
ENDMDL
