MODEL 1
REMARK VINA RESULT:      -8.0      0.000      0.000
REMARK  7 active torsions:
REMARK  status: ('A' for Active; 'I' for Inactive)
REMARK    1  A    between atoms: C3_3  and  N4_19 
REMARK    2  A    between atoms: C4_4  and  C5_5 
REMARK    3  A    between atoms: C8_10  and  N3_11 
REMARK    4  A    between atoms: N3_11  and  C9_12 
REMARK       I    between atoms: N4_19  and  C15_20 
REMARK    5  A    between atoms: C15_20  and  C16_22 
REMARK    6  A    between atoms: C16_22  and  O2_23 
REMARK    7  A    between atoms: O2_23  and  C17_24 
ROOT
HETATM    1  C1  UNL     1      22.352  -1.335  55.004  1.00  0.00     0.099 C 
HETATM    2  C2  UNL     1      22.543  -0.561  53.954  1.00  0.00    -0.126 C 
HETATM    3  C3  UNL     1      22.614   0.352  52.992  1.00  0.00     0.077 C 
HETATM    4  C4  UNL     1      23.536   1.440  53.163  1.00  0.00     0.050 C 
ENDROOT
BRANCH   3   5
HETATM    5  N4  UNL     1      21.777   0.144  51.870  1.00  0.00    -0.319 N 
HETATM    6  C15 UNL     1      20.522   0.784  51.881  1.00  0.00     0.246 C 
HETATM    7  O1  UNL     1      20.007   1.541  52.784  1.00  0.00    -0.271 OA
HETATM    8  H12 UNL     1      21.632  -0.309  50.943  1.00  0.00     0.169 HD
BRANCH   6   9
HETATM    9  C16 UNL     1      19.314   0.948  51.065  1.00  0.00     0.278 C 
BRANCH   9  10
HETATM   10  O2  UNL     1      19.626   0.934  49.683  1.00  0.00    -0.342 OA
BRANCH  10  11
HETATM   11  C17 UNL     1      20.328   1.966  49.117  1.00  0.00     0.069 A 
HETATM   12  C18 UNL     1      20.039   3.307  49.118  1.00  0.00     0.040 A 
HETATM   13  C19 UNL     1      20.904   4.190  48.472  1.00  0.00     0.045 A 
HETATM   14  C20 UNL     1      22.030   3.731  47.843  1.00  0.00     0.116 A 
HETATM   15  F1  UNL     1      22.835   4.623  47.233  1.00  0.00    -0.206 F 
HETATM   16  C21 UNL     1      22.389   2.381  47.801  1.00  0.00     0.045 A 
HETATM   17  C22 UNL     1      21.482   1.551  48.465  1.00  0.00     0.040 A 
ENDBRANCH  10  11
ENDBRANCH   9  10
ENDBRANCH   6   9
ENDBRANCH   3   5
BRANCH   4  18
HETATM   18  C5  UNL     1      23.777   2.439  52.308  1.00  0.00     0.010 A 
HETATM   19  C6  UNL     1      22.944   3.646  52.161  1.00  0.00     0.192 A 
HETATM   20  N1  UNL     1      23.459   4.478  51.112  1.00  0.00    -0.278 NA
HETATM   21  C7  UNL     1      24.483   4.254  50.405  1.00  0.00     0.229 A 
HETATM   22  N2  UNL     1      25.303   3.110  50.545  1.00  0.00    -0.224 NA
HETATM   23  C8  UNL     1      24.977   2.237  51.451  1.00  0.00     0.137 A 
BRANCH  23  24
HETATM   24  N3  UNL     1      25.823   1.079  51.558  1.00  0.00    -0.340 N 
HETATM   25  H7  UNL     1      25.511   0.243  50.980  1.00  0.00     0.167 HD
BRANCH  24  26
HETATM   26  C9  UNL     1      26.986   1.141  52.414  1.00  0.00     0.035 A 
HETATM   27  C10 UNL     1      27.467   2.270  53.028  1.00  0.00     0.029 A 
HETATM   28  C11 UNL     1      28.594   2.183  53.803  1.00  0.00     0.004 A 
HETATM   29  C12 UNL     1      29.297   1.028  54.018  1.00  0.00     0.019 A 
HETATM   30  C13 UNL     1      28.848  -0.142  53.418  1.00  0.00     0.013 A 
HETATM   31 BR1  UNL     1      29.622  -1.886  53.534  1.00  0.00    -0.051 Br
HETATM   32  C14 UNL     1      27.705  -0.042  52.635  1.00  0.00     0.048 A 
ENDBRANCH  24  26
ENDBRANCH  23  24
ENDBRANCH   4  18
TORSDOF 7
ENDMDL
MODEL 2
REMARK VINA RESULT:      -8.0      3.855      7.652
REMARK  7 active torsions:
REMARK  status: ('A' for Active; 'I' for Inactive)
REMARK    1  A    between atoms: C3_3  and  N4_19 
REMARK    2  A    between atoms: C4_4  and  C5_5 
REMARK    3  A    between atoms: C8_10  and  N3_11 
REMARK    4  A    between atoms: N3_11  and  C9_12 
REMARK       I    between atoms: N4_19  and  C15_20 
REMARK    5  A    between atoms: C15_20  and  C16_22 
REMARK    6  A    between atoms: C16_22  and  O2_23 
REMARK    7  A    between atoms: O2_23  and  C17_24 
ROOT
HETATM    1  C1  UNL     1      28.489   5.365  48.215  1.00  0.00     0.099 C 
HETATM    2  C2  UNL     1      27.283   5.349  48.749  1.00  0.00    -0.126 C 
HETATM    3  C3  UNL     1      26.114   5.520  49.356  1.00  0.00     0.077 C 
HETATM    4  C4  UNL     1      25.106   6.281  48.674  1.00  0.00     0.050 C 
ENDROOT
BRANCH   3   5
HETATM    5  N4  UNL     1      25.973   4.905  50.623  1.00  0.00    -0.319 N 
HETATM    6  C15 UNL     1      26.203   3.517  50.690  1.00  0.00     0.246 C 
HETATM    7  O1  UNL     1      26.521   2.702  49.748  1.00  0.00    -0.271 OA
HETATM    8  H12 UNL     1      25.754   5.004  51.638  1.00  0.00     0.169 HD
BRANCH   6   9
HETATM    9  C16 UNL     1      26.221   2.406  51.647  1.00  0.00     0.278 C 
BRANCH   9  10
HETATM   10  O2  UNL     1      27.442   2.370  52.365  1.00  0.00    -0.342 OA
BRANCH  10  11
HETATM   11  C17 UNL     1      27.995   1.174  52.740  1.00  0.00     0.069 A 
HETATM   12  C18 UNL     1      29.193   0.937  53.364  1.00  0.00     0.040 A 
HETATM   13  C19 UNL     1      29.562  -0.377  53.656  1.00  0.00     0.045 A 
HETATM   14  C20 UNL     1      28.742  -1.421  53.325  1.00  0.00     0.116 A 
HETATM   15  F1  UNL     1      29.141  -2.673  53.626  1.00  0.00    -0.206 F 
HETATM   16  C21 UNL     1      27.509  -1.257  52.688  1.00  0.00     0.045 A 
HETATM   17  C22 UNL     1      27.200   0.079  52.425  1.00  0.00     0.040 A 
ENDBRANCH  10  11
ENDBRANCH   9  10
ENDBRANCH   6   9
ENDBRANCH   3   5
BRANCH   4  18
HETATM   18  C5  UNL     1      23.865   6.543  49.096  1.00  0.00     0.010 A 
HETATM   19  C6  UNL     1      23.417   7.829  49.660  1.00  0.00     0.192 A 
HETATM   20  N1  UNL     1      22.044   7.741  50.064  1.00  0.00    -0.278 NA
HETATM   21  C7  UNL     1      21.288   6.734  49.954  1.00  0.00     0.229 A 
HETATM   22  N2  UNL     1      21.696   5.498  49.400  1.00  0.00    -0.224 NA
HETATM   23  C8  UNL     1      22.923   5.395  48.985  1.00  0.00     0.137 A 
BRANCH  23  24
HETATM   24  N3  UNL     1      23.311   4.123  48.439  1.00  0.00    -0.340 N 
HETATM   25  H7  UNL     1      24.076   4.168  47.702  1.00  0.00     0.167 HD
BRANCH  24  26
HETATM   26  C9  UNL     1      22.652   2.928  48.915  1.00  0.00     0.035 A 
HETATM   27  C10 UNL     1      21.773   2.159  48.194  1.00  0.00     0.029 A 
HETATM   28  C11 UNL     1      21.210   1.056  48.780  1.00  0.00     0.004 A 
HETATM   29  C12 UNL     1      21.462   0.650  50.063  1.00  0.00     0.019 A 
HETATM   30  C13 UNL     1      22.346   1.395  50.833  1.00  0.00     0.013 A 
HETATM   31 BR1  UNL     1      22.880   1.074  52.640  1.00  0.00    -0.051 Br
HETATM   32  C14 UNL     1      22.911   2.511  50.228  1.00  0.00     0.048 A 
ENDBRANCH  24  26
ENDBRANCH  23  24
ENDBRANCH   4  18
TORSDOF 7
ENDMDL
MODEL 3
REMARK VINA RESULT:      -7.9      3.913      7.549
REMARK  7 active torsions:
REMARK  status: ('A' for Active; 'I' for Inactive)
REMARK    1  A    between atoms: C3_3  and  N4_19 
REMARK    2  A    between atoms: C4_4  and  C5_5 
REMARK    3  A    between atoms: C8_10  and  N3_11 
REMARK    4  A    between atoms: N3_11  and  C9_12 
REMARK       I    between atoms: N4_19  and  C15_20 
REMARK    5  A    between atoms: C15_20  and  C16_22 
REMARK    6  A    between atoms: C16_22  and  O2_23 
REMARK    7  A    between atoms: O2_23  and  C17_24 
ROOT
HETATM    1  C1  UNL     1      26.648   3.994  49.310  1.00  0.00     0.099 C 
HETATM    2  C2  UNL     1      25.590   3.367  49.787  1.00  0.00    -0.126 C 
HETATM    3  C3  UNL     1      24.525   2.879  50.414  1.00  0.00     0.077 C 
HETATM    4  C4  UNL     1      23.253   3.493  50.158  1.00  0.00     0.050 C 
ENDROOT
BRANCH   3   5
HETATM    5  N4  UNL     1      24.755   1.773  51.265  1.00  0.00    -0.319 N 
HETATM    6  C15 UNL     1      24.761   2.023  52.652  1.00  0.00     0.246 C 
HETATM    7  O1  UNL     1      24.594   3.135  53.274  1.00  0.00    -0.271 OA
HETATM    8  H12 UNL     1      24.945   0.752  51.363  1.00  0.00     0.169 HD
BRANCH   6   9
HETATM    9  C16 UNL     1      24.922   1.336  53.937  1.00  0.00     0.278 C 
BRANCH   9  10
HETATM   10  O2  UNL     1      25.272  -0.024  53.749  1.00  0.00    -0.342 OA
BRANCH  10  11
HETATM   11  C17 UNL     1      26.587  -0.402  53.687  1.00  0.00     0.069 A 
HETATM   12  C18 UNL     1      27.178  -1.332  52.869  1.00  0.00     0.040 A 
HETATM   13  C19 UNL     1      28.551  -1.559  52.977  1.00  0.00     0.045 A 
HETATM   14  C20 UNL     1      29.304  -0.866  53.885  1.00  0.00     0.116 A 
HETATM   15  F1  UNL     1      30.626  -1.119  53.952  1.00  0.00    -0.206 F 
HETATM   16  C21 UNL     1      28.772   0.095  54.749  1.00  0.00     0.045 A 
HETATM   17  C22 UNL     1      27.396   0.275  54.591  1.00  0.00     0.040 A 
ENDBRANCH  10  11
ENDBRANCH   9  10
ENDBRANCH   6   9
ENDBRANCH   3   5
BRANCH   4  18
HETATM   18  C5  UNL     1      22.066   3.138  50.661  1.00  0.00     0.010 A 
HETATM   19  C6  UNL     1      21.262   1.991  50.202  1.00  0.00     0.192 A 
HETATM   20  N1  UNL     1      20.020   1.940  50.917  1.00  0.00    -0.278 NA
HETATM   21  C7  UNL     1      19.640   2.732  51.826  1.00  0.00     0.229 A 
HETATM   22  N2  UNL     1      20.406   3.827  52.290  1.00  0.00    -0.224 NA
HETATM   23  C8  UNL     1      21.566   4.030  51.743  1.00  0.00     0.137 A 
BRANCH  23  24
HETATM   24  N3  UNL     1      22.314   5.158  52.227  1.00  0.00    -0.340 N 
HETATM   25  H7  UNL     1      22.670   5.063  53.225  1.00  0.00     0.167 HD
BRANCH  24  26
HETATM   26  C9  UNL     1      22.515   6.292  51.354  1.00  0.00     0.035 A 
HETATM   27  C10 UNL     1      21.521   7.013  50.740  1.00  0.00     0.029 A 
HETATM   28  C11 UNL     1      21.859   8.060  49.923  1.00  0.00     0.004 A 
HETATM   29  C12 UNL     1      23.145   8.451  49.661  1.00  0.00     0.019 A 
HETATM   30  C13 UNL     1      24.185   7.752  50.259  1.00  0.00     0.013 A 
HETATM   31 BR1  UNL     1      26.062   8.067  50.077  1.00  0.00    -0.051 Br
HETATM   32  C14 UNL     1      23.831   6.694  51.086  1.00  0.00     0.048 A 
ENDBRANCH  24  26
ENDBRANCH  23  24
ENDBRANCH   4  18
TORSDOF 7
ENDMDL
MODEL 4
REMARK VINA RESULT:      -7.6      3.772      7.722
REMARK  7 active torsions:
REMARK  status: ('A' for Active; 'I' for Inactive)
REMARK    1  A    between atoms: C3_3  and  N4_19 
REMARK    2  A    between atoms: C4_4  and  C5_5 
REMARK    3  A    between atoms: C8_10  and  N3_11 
REMARK    4  A    between atoms: N3_11  and  C9_12 
REMARK       I    between atoms: N4_19  and  C15_20 
REMARK    5  A    between atoms: C15_20  and  C16_22 
REMARK    6  A    between atoms: C16_22  and  O2_23 
REMARK    7  A    between atoms: O2_23  and  C17_24 
ROOT
HETATM    1  C1  UNL     1      21.652  -0.733  54.748  1.00  0.00     0.099 C 
HETATM    2  C2  UNL     1      21.897   0.212  53.862  1.00  0.00    -0.126 C 
HETATM    3  C3  UNL     1      22.025   1.055  52.843  1.00  0.00     0.077 C 
HETATM    4  C4  UNL     1      20.973   2.007  52.621  1.00  0.00     0.050 C 
ENDROOT
BRANCH   3   5
HETATM    5  N4  UNL     1      23.212   0.939  52.082  1.00  0.00    -0.319 N 
HETATM    6  C15 UNL     1      24.264   1.820  52.400  1.00  0.00     0.246 C 
HETATM    7  O1  UNL     1      24.306   2.742  53.294  1.00  0.00    -0.271 OA
HETATM    8  H12 UNL     1      23.731   0.461  51.314  1.00  0.00     0.169 HD
BRANCH   6   9
HETATM    9  C16 UNL     1      25.637   2.151  52.005  1.00  0.00     0.278 C 
BRANCH   9  10
HETATM   10  O2  UNL     1      26.513   2.106  53.118  1.00  0.00    -0.342 OA
BRANCH  10  11
HETATM   11  C17 UNL     1      27.435   1.100  53.239  1.00  0.00     0.069 A 
HETATM   12  C18 UNL     1      28.748   1.177  53.626  1.00  0.00     0.040 A 
HETATM   13  C19 UNL     1      29.512   0.010  53.680  1.00  0.00     0.045 A 
HETATM   14  C20 UNL     1      28.964  -1.199  53.351  1.00  0.00     0.116 A 
HETATM   15  F1  UNL     1      29.741  -2.298  53.418  1.00  0.00    -0.206 F 
HETATM   16  C21 UNL     1      27.635  -1.355  52.948  1.00  0.00     0.045 A 
HETATM   17  C22 UNL     1      26.926  -0.152  52.916  1.00  0.00     0.040 A 
ENDBRANCH  10  11
ENDBRANCH   9  10
ENDBRANCH   6   9
ENDBRANCH   3   5
BRANCH   4  18
HETATM   18  C5  UNL     1      20.922   2.952  51.677  1.00  0.00     0.010 A 
HETATM   19  C6  UNL     1      21.366   4.347  51.850  1.00  0.00     0.192 A 
HETATM   20  N1  UNL     1      21.110   5.099  50.657  1.00  0.00    -0.278 NA
HETATM   21  C7  UNL     1      20.597   4.665  49.586  1.00  0.00     0.229 A 
HETATM   22  N2  UNL     1      20.182   3.326  49.396  1.00  0.00    -0.224 NA
HETATM   23  C8  UNL     1      20.333   2.499  50.387  1.00  0.00     0.137 A 
BRANCH  23  24
HETATM   24  N3  UNL     1      19.889   1.149  50.167  1.00  0.00    -0.340 N 
HETATM   25  H7  UNL     1      20.551   0.549  49.589  1.00  0.00     0.167 HD
BRANCH  24  26
HETATM   26  C9  UNL     1      18.624   0.729  50.725  1.00  0.00     0.035 A 
HETATM   27  C10 UNL     1      17.401   1.280  50.434  1.00  0.00     0.029 A 
HETATM   28  C11 UNL     1      16.280   0.789  51.052  1.00  0.00     0.004 A 
HETATM   29  C12 UNL     1      16.285  -0.234  51.962  1.00  0.00     0.019 A 
HETATM   30  C13 UNL     1      17.500  -0.825  52.288  1.00  0.00     0.013 A 
HETATM   31 BR1  UNL     1      17.810  -2.256  53.516  1.00  0.00    -0.051 Br
HETATM   32  C14 UNL     1      18.628  -0.319  51.655  1.00  0.00     0.048 A 
ENDBRANCH  24  26
ENDBRANCH  23  24
ENDBRANCH   4  18
TORSDOF 7
ENDMDL
MODEL 5
REMARK VINA RESULT:      -7.6      3.874      7.162
REMARK  7 active torsions:
REMARK  status: ('A' for Active; 'I' for Inactive)
REMARK    1  A    between atoms: C3_3  and  N4_19 
REMARK    2  A    between atoms: C4_4  and  C5_5 
REMARK    3  A    between atoms: C8_10  and  N3_11 
REMARK    4  A    between atoms: N3_11  and  C9_12 
REMARK       I    between atoms: N4_19  and  C15_20 
REMARK    5  A    between atoms: C15_20  and  C16_22 
REMARK    6  A    between atoms: C16_22  and  O2_23 
REMARK    7  A    between atoms: O2_23  and  C17_24 
ROOT
HETATM    1  C1  UNL     1      20.765   0.266  54.869  1.00  0.00     0.099 C 
HETATM    2  C2  UNL     1      21.380   0.594  53.749  1.00  0.00    -0.126 C 
HETATM    3  C3  UNL     1      21.908   0.757  52.542  1.00  0.00     0.077 C 
HETATM    4  C4  UNL     1      21.100   1.378  51.531  1.00  0.00     0.050 C 
ENDROOT
BRANCH   3   5
HETATM    5  N4  UNL     1      23.243   0.316  52.380  1.00  0.00    -0.319 N 
HETATM    6  C15 UNL     1      24.261   1.266  52.589  1.00  0.00     0.246 C 
HETATM    7  O1  UNL     1      24.158   2.508  52.904  1.00  0.00    -0.271 OA
HETATM    8  H12 UNL     1      23.899  -0.462  52.152  1.00  0.00     0.169 HD
BRANCH   6   9
HETATM    9  C16 UNL     1      25.722   1.398  52.581  1.00  0.00     0.278 C 
BRANCH   9  10
HETATM   10  O2  UNL     1      26.345   0.157  52.299  1.00  0.00    -0.342 OA
BRANCH  10  11
HETATM   11  C17 UNL     1      27.573  -0.142  52.827  1.00  0.00     0.069 A 
HETATM   12  C18 UNL     1      28.513   0.706  53.355  1.00  0.00     0.040 A 
HETATM   13  C19 UNL     1      29.709   0.179  53.843  1.00  0.00     0.045 A 
HETATM   14  C20 UNL     1      29.949  -1.168  53.797  1.00  0.00     0.116 A 
HETATM   15  F1  UNL     1      31.118  -1.630  54.280  1.00  0.00    -0.206 F 
HETATM   16  C21 UNL     1      29.040  -2.091  53.274  1.00  0.00     0.045 A 
HETATM   17  C22 UNL     1      27.865  -1.500  52.804  1.00  0.00     0.040 A 
ENDBRANCH  10  11
ENDBRANCH   9  10
ENDBRANCH   6   9
ENDBRANCH   3   5
BRANCH   4  18
HETATM   18  C5  UNL     1      21.450   1.658  50.272  1.00  0.00     0.010 A 
HETATM   19  C6  UNL     1      21.279   0.747  49.124  1.00  0.00     0.192 A 
HETATM   20  N1  UNL     1      21.818   1.343  47.936  1.00  0.00    -0.278 NA
HETATM   21  C7  UNL     1      22.353   2.484  47.840  1.00  0.00     0.229 A 
HETATM   22  N2  UNL     1      22.509   3.377  48.927  1.00  0.00    -0.224 NA
HETATM   23  C8  UNL     1      22.081   2.994  50.092  1.00  0.00     0.137 A 
BRANCH  23  24
HETATM   24  N3  UNL     1      22.266   3.918  51.178  1.00  0.00    -0.340 N 
HETATM   25  H7  UNL     1      22.293   3.473  52.143  1.00  0.00     0.167 HD
BRANCH  24  26
HETATM   26  C9  UNL     1      22.393   5.327  50.883  1.00  0.00     0.035 A 
HETATM   27  C10 UNL     1      21.352   6.211  50.742  1.00  0.00     0.029 A 
HETATM   28  C11 UNL     1      21.621   7.521  50.446  1.00  0.00     0.004 A 
HETATM   29  C12 UNL     1      22.879   8.032  50.274  1.00  0.00     0.019 A 
HETATM   30  C13 UNL     1      23.966   7.177  50.407  1.00  0.00     0.013 A 
HETATM   31 BR1  UNL     1      25.819   7.604  50.220  1.00  0.00    -0.051 Br
HETATM   32  C14 UNL     1      23.682   5.851  50.708  1.00  0.00     0.048 A 
ENDBRANCH  24  26
ENDBRANCH  23  24
ENDBRANCH   4  18
TORSDOF 7
ENDMDL
MODEL 6
REMARK VINA RESULT:      -7.4      4.513      7.948
REMARK  7 active torsions:
REMARK  status: ('A' for Active; 'I' for Inactive)
REMARK    1  A    between atoms: C3_3  and  N4_19 
REMARK    2  A    between atoms: C4_4  and  C5_5 
REMARK    3  A    between atoms: C8_10  and  N3_11 
REMARK    4  A    between atoms: N3_11  and  C9_12 
REMARK       I    between atoms: N4_19  and  C15_20 
REMARK    5  A    between atoms: C15_20  and  C16_22 
REMARK    6  A    between atoms: C16_22  and  O2_23 
REMARK    7  A    between atoms: O2_23  and  C17_24 
ROOT
HETATM    1  C1  UNL     1      20.093   2.979  52.332  1.00  0.00     0.099 C 
HETATM    2  C2  UNL     1      21.341   3.367  52.154  1.00  0.00    -0.126 C 
HETATM    3  C3  UNL     1      22.614   3.596  51.850  1.00  0.00     0.077 C 
HETATM    4  C4  UNL     1      22.901   4.269  50.615  1.00  0.00     0.050 C 
ENDROOT
BRANCH   3   5
HETATM    5  N4  UNL     1      23.570   3.165  52.800  1.00  0.00    -0.319 N 
HETATM    6  C15 UNL     1      24.008   1.829  52.707  1.00  0.00     0.246 C 
HETATM    7  O1  UNL     1      23.653   0.917  51.873  1.00  0.00    -0.271 OA
HETATM    8  H12 UNL     1      24.165   3.391  53.626  1.00  0.00     0.169 HD
BRANCH   6   9
HETATM    9  C16 UNL     1      24.921   0.877  53.348  1.00  0.00     0.278 C 
BRANCH   9  10
HETATM   10  O2  UNL     1      25.743   0.234  52.390  1.00  0.00    -0.342 OA
BRANCH  10  11
HETATM   11  C17 UNL     1      26.948  -0.306  52.755  1.00  0.00     0.069 A 
HETATM   12  C18 UNL     1      27.353  -1.616  52.713  1.00  0.00     0.040 A 
HETATM   13  C19 UNL     1      28.640  -1.945  53.139  1.00  0.00     0.045 A 
HETATM   14  C20 UNL     1      29.493  -0.977  53.595  1.00  0.00     0.116 A 
HETATM   15  F1  UNL     1      30.726  -1.344  53.996  1.00  0.00    -0.206 F 
HETATM   16  C21 UNL     1      29.151   0.376  53.667  1.00  0.00     0.045 A 
HETATM   17  C22 UNL     1      27.851   0.638  53.226  1.00  0.00     0.040 A 
ENDBRANCH  10  11
ENDBRANCH   9  10
ENDBRANCH   6   9
ENDBRANCH   3   5
BRANCH   4  18
HETATM   18  C5  UNL     1      24.102   4.615  50.141  1.00  0.00     0.010 A 
HETATM   19  C6  UNL     1      25.000   3.727  49.380  1.00  0.00     0.192 A 
HETATM   20  N1  UNL     1      26.228   4.404  49.082  1.00  0.00    -0.278 NA
HETATM   21  C7  UNL     1      26.531   5.591  49.393  1.00  0.00     0.229 A 
HETATM   22  N2  UNL     1      25.675   6.462  50.108  1.00  0.00    -0.224 NA
HETATM   23  C8  UNL     1      24.513   6.008  50.469  1.00  0.00     0.137 A 
BRANCH  23  24
HETATM   24  N3  UNL     1      23.672   6.913  51.205  1.00  0.00    -0.340 N 
HETATM   25  H7  UNL     1      23.874   6.963  52.248  1.00  0.00     0.167 HD
BRANCH  24  26
HETATM   26  C9  UNL     1      22.654   7.655  50.496  1.00  0.00     0.035 A 
HETATM   27  C10 UNL     1      21.300   7.532  50.683  1.00  0.00     0.029 A 
HETATM   28  C11 UNL     1      20.447   8.292  49.927  1.00  0.00     0.004 A 
HETATM   29  C12 UNL     1      20.850   9.187  48.972  1.00  0.00     0.019 A 
HETATM   30  C13 UNL     1      22.211   9.348  48.747  1.00  0.00     0.013 A 
HETATM   31 BR1  UNL     1      23.058  10.510  47.488  1.00  0.00    -0.051 Br
HETATM   32  C14 UNL     1      23.066   8.573  49.520  1.00  0.00     0.048 A 
ENDBRANCH  24  26
ENDBRANCH  23  24
ENDBRANCH   4  18
TORSDOF 7
ENDMDL
MODEL 7
REMARK VINA RESULT:      -7.4      2.405      4.450
REMARK  7 active torsions:
REMARK  status: ('A' for Active; 'I' for Inactive)
REMARK    1  A    between atoms: C3_3  and  N4_19 
REMARK    2  A    between atoms: C4_4  and  C5_5 
REMARK    3  A    between atoms: C8_10  and  N3_11 
REMARK    4  A    between atoms: N3_11  and  C9_12 
REMARK       I    between atoms: N4_19  and  C15_20 
REMARK    5  A    between atoms: C15_20  and  C16_22 
REMARK    6  A    between atoms: C16_22  and  O2_23 
REMARK    7  A    between atoms: O2_23  and  C17_24 
ROOT
HETATM    1  C1  UNL     1      22.342   2.052  47.846  1.00  0.00     0.099 C 
HETATM    2  C2  UNL     1      22.403   1.914  49.157  1.00  0.00    -0.126 C 
HETATM    3  C3  UNL     1      22.264   1.818  50.474  1.00  0.00     0.077 C 
HETATM    4  C4  UNL     1      21.754   0.587  51.009  1.00  0.00     0.050 C 
ENDROOT
BRANCH   3   5
HETATM    5  N4  UNL     1      22.659   2.948  51.228  1.00  0.00    -0.319 N 
HETATM    6  C15 UNL     1      21.806   4.069  51.196  1.00  0.00     0.246 C 
HETATM    7  O1  UNL     1      20.700   4.226  50.560  1.00  0.00    -0.271 OA
HETATM    8  H12 UNL     1      23.358   3.392  51.861  1.00  0.00     0.169 HD
BRANCH   6   9
HETATM    9  C16 UNL     1      21.680   5.426  51.737  1.00  0.00     0.278 C 
BRANCH   9  10
HETATM   10  O2  UNL     1      22.020   6.397  50.763  1.00  0.00    -0.342 OA
BRANCH  10  11
HETATM   11  C17 UNL     1      23.321   6.555  50.362  1.00  0.00     0.069 A 
HETATM   12  C18 UNL     1      24.340   7.224  50.990  1.00  0.00     0.040 A 
HETATM   13  C19 UNL     1      25.602   7.257  50.394  1.00  0.00     0.045 A 
HETATM   14  C20 UNL     1      25.826   6.630  49.198  1.00  0.00     0.116 A 
HETATM   15  F1  UNL     1      27.061   6.689  48.663  1.00  0.00    -0.206 F 
HETATM   16  C21 UNL     1      24.837   5.930  48.502  1.00  0.00     0.045 A 
HETATM   17  C22 UNL     1      23.600   5.935  49.150  1.00  0.00     0.040 A 
ENDBRANCH  10  11
ENDBRANCH   9  10
ENDBRANCH   6   9
ENDBRANCH   3   5
BRANCH   4  18
HETATM   18  C5  UNL     1      21.567   0.279  52.296  1.00  0.00     0.010 A 
HETATM   19  C6  UNL     1      20.292   0.422  53.023  1.00  0.00     0.192 A 
HETATM   20  N1  UNL     1      20.464   0.059  54.399  1.00  0.00    -0.278 NA
HETATM   21  C7  UNL     1      21.530  -0.346  54.946  1.00  0.00     0.229 A 
HETATM   22  N2  UNL     1      22.757  -0.505  54.260  1.00  0.00    -0.224 NA
HETATM   23  C8  UNL     1      22.787  -0.212  52.994  1.00  0.00     0.137 A 
BRANCH  23  24
HETATM   24  N3  UNL     1      24.051  -0.372  52.329  1.00  0.00    -0.340 N 
HETATM   25  H7  UNL     1      24.029  -1.005  51.475  1.00  0.00     0.167 HD
BRANCH  24  26
HETATM   26  C9  UNL     1      25.210   0.313  52.855  1.00  0.00     0.035 A 
HETATM   27  C10 UNL     1      25.246   1.623  53.263  1.00  0.00     0.029 A 
HETATM   28  C11 UNL     1      26.423   2.148  53.729  1.00  0.00     0.004 A 
HETATM   29  C12 UNL     1      27.598   1.450  53.821  1.00  0.00     0.019 A 
HETATM   30  C13 UNL     1      27.611   0.120  53.420  1.00  0.00     0.013 A 
HETATM   31 BR1  UNL     1      29.091  -1.089  53.430  1.00  0.00    -0.051 Br
HETATM   32  C14 UNL     1      26.412  -0.401  52.950  1.00  0.00     0.048 A 
ENDBRANCH  24  26
ENDBRANCH  23  24
ENDBRANCH   4  18
TORSDOF 7
ENDMDL
MODEL 8
REMARK VINA RESULT:      -7.4      5.429      7.765
REMARK  7 active torsions:
REMARK  status: ('A' for Active; 'I' for Inactive)
REMARK    1  A    between atoms: C3_3  and  N4_19 
REMARK    2  A    between atoms: C4_4  and  C5_5 
REMARK    3  A    between atoms: C8_10  and  N3_11 
REMARK    4  A    between atoms: N3_11  and  C9_12 
REMARK       I    between atoms: N4_19  and  C15_20 
REMARK    5  A    between atoms: C15_20  and  C16_22 
REMARK    6  A    between atoms: C16_22  and  O2_23 
REMARK    7  A    between atoms: O2_23  and  C17_24 
ROOT
HETATM    1  C1  UNL     1      28.791   5.129  48.189  1.00  0.00     0.099 C 
HETATM    2  C2  UNL     1      27.633   5.287  48.800  1.00  0.00    -0.126 C 
HETATM    3  C3  UNL     1      26.391   5.478  49.229  1.00  0.00     0.077 C 
HETATM    4  C4  UNL     1      25.474   4.376  49.150  1.00  0.00     0.050 C 
ENDROOT
BRANCH   3   5
HETATM    5  N4  UNL     1      26.100   6.763  49.746  1.00  0.00    -0.319 N 
HETATM    6  C15 UNL     1      25.825   7.782  48.814  1.00  0.00     0.246 C 
HETATM    7  O1  UNL     1      25.809   7.721  47.529  1.00  0.00    -0.271 OA
HETATM    8  H12 UNL     1      25.982   7.378  50.580  1.00  0.00     0.169 HD
BRANCH   6   9
HETATM    9  C16 UNL     1      25.472   9.204  48.743  1.00  0.00     0.278 C 
BRANCH   9  10
HETATM   10  O2  UNL     1      26.296   9.977  49.598  1.00  0.00    -0.342 OA
BRANCH  10  11
HETATM   11  C17 UNL     1      27.625  10.152  49.314  1.00  0.00     0.069 A 
HETATM   12  C18 UNL     1      28.691   9.359  49.655  1.00  0.00     0.040 A 
HETATM   13  C19 UNL     1      29.974   9.733  49.254  1.00  0.00     0.045 A 
HETATM   14  C20 UNL     1      30.174  10.876  48.529  1.00  0.00     0.116 A 
HETATM   15  F1  UNL     1      31.431  11.196  48.165  1.00  0.00    -0.206 F 
HETATM   16  C21 UNL     1      29.138  11.732  48.146  1.00  0.00     0.045 A 
HETATM   17  C22 UNL     1      27.881  11.302  48.577  1.00  0.00     0.040 A 
ENDBRANCH  10  11
ENDBRANCH   9  10
ENDBRANCH   6   9
ENDBRANCH   3   5
BRANCH   4  18
HETATM   18  C5  UNL     1      24.199   4.353  49.550  1.00  0.00     0.010 A 
HETATM   19  C6  UNL     1      23.040   4.684  48.700  1.00  0.00     0.192 A 
HETATM   20  N1  UNL     1      21.830   4.615  49.467  1.00  0.00    -0.278 NA
HETATM   21  C7  UNL     1      21.726   4.304  50.688  1.00  0.00     0.229 A 
HETATM   22  N2  UNL     1      22.825   3.967  51.512  1.00  0.00    -0.224 NA
HETATM   23  C8  UNL     1      24.010   3.986  50.980  1.00  0.00     0.137 A 
BRANCH  23  24
HETATM   24  N3  UNL     1      25.107   3.652  51.847  1.00  0.00    -0.340 N 
HETATM   25  H7  UNL     1      25.637   4.487  52.239  1.00  0.00     0.167 HD
BRANCH  24  26
HETATM   26  C9  UNL     1      25.395   2.260  52.107  1.00  0.00     0.035 A 
HETATM   27  C10 UNL     1      26.553   1.607  51.768  1.00  0.00     0.029 A 
HETATM   28  C11 UNL     1      26.684   0.275  52.064  1.00  0.00     0.004 A 
HETATM   29  C12 UNL     1      25.723  -0.475  52.688  1.00  0.00     0.019 A 
HETATM   30  C13 UNL     1      24.533   0.142  53.052  1.00  0.00     0.013 A 
HETATM   31 BR1  UNL     1      23.025  -0.648  53.923  1.00  0.00    -0.051 Br
HETATM   32  C14 UNL     1      24.412   1.492  52.747  1.00  0.00     0.048 A 
ENDBRANCH  24  26
ENDBRANCH  23  24
ENDBRANCH   4  18
TORSDOF 7
ENDMDL
MODEL 9
REMARK VINA RESULT:      -7.4      6.981      9.438
REMARK  7 active torsions:
REMARK  status: ('A' for Active; 'I' for Inactive)
REMARK    1  A    between atoms: C3_3  and  N4_19 
REMARK    2  A    between atoms: C4_4  and  C5_5 
REMARK    3  A    between atoms: C8_10  and  N3_11 
REMARK    4  A    between atoms: N3_11  and  C9_12 
REMARK       I    between atoms: N4_19  and  C15_20 
REMARK    5  A    between atoms: C15_20  and  C16_22 
REMARK    6  A    between atoms: C16_22  and  O2_23 
REMARK    7  A    between atoms: O2_23  and  C17_24 
ROOT
HETATM    1  C1  UNL     1      25.335   7.304  47.864  1.00  0.00     0.099 C 
HETATM    2  C2  UNL     1      26.448   6.676  48.192  1.00  0.00    -0.126 C 
HETATM    3  C3  UNL     1      27.600   6.028  48.320  1.00  0.00     0.077 C 
HETATM    4  C4  UNL     1      28.815   6.786  48.209  1.00  0.00     0.050 C 
ENDROOT
BRANCH   3   5
HETATM    5  N4  UNL     1      27.511   4.640  48.577  1.00  0.00    -0.319 N 
HETATM    6  C15 UNL     1      26.604   4.231  49.575  1.00  0.00     0.246 C 
HETATM    7  O1  UNL     1      25.834   4.949  50.312  1.00  0.00    -0.271 OA
HETATM    8  H12 UNL     1      27.834   3.674  48.356  1.00  0.00     0.169 HD
BRANCH   6   9
HETATM    9  C16 UNL     1      26.096   3.023  50.234  1.00  0.00     0.278 C 
BRANCH   9  10
HETATM   10  O2  UNL     1      27.020   2.540  51.194  1.00  0.00    -0.342 OA
BRANCH  10  11
HETATM   11  C17 UNL     1      26.649   1.573  52.091  1.00  0.00     0.069 A 
HETATM   12  C18 UNL     1      27.440   0.688  52.779  1.00  0.00     0.040 A 
HETATM   13  C19 UNL     1      26.844  -0.222  53.653  1.00  0.00     0.045 A 
HETATM   14  C20 UNL     1      25.486  -0.236  53.827  1.00  0.00     0.116 A 
HETATM   15  F1  UNL     1      24.956  -1.132  54.682  1.00  0.00    -0.206 F 
HETATM   16  C21 UNL     1      24.618   0.635  53.162  1.00  0.00     0.045 A 
HETATM   17  C22 UNL     1      25.277   1.518  52.303  1.00  0.00     0.040 A 
ENDBRANCH  10  11
ENDBRANCH   9  10
ENDBRANCH   6   9
ENDBRANCH   3   5
BRANCH   4  18
HETATM   18  C5  UNL     1      30.066   6.334  48.333  1.00  0.00     0.010 A 
HETATM   19  C6  UNL     1      30.559   5.051  47.798  1.00  0.00     0.192 A 
HETATM   20  N1  UNL     1      31.931   4.856  48.167  1.00  0.00    -0.278 NA
HETATM   21  C7  UNL     1      32.653   5.649  48.836  1.00  0.00     0.229 A 
HETATM   22  N2  UNL     1      32.202   6.891  49.342  1.00  0.00    -0.224 NA
HETATM   23  C8  UNL     1      30.969   7.229  49.107  1.00  0.00     0.137 A 
BRANCH  23  24
HETATM   24  N3  UNL     1      30.538   8.490  49.646  1.00  0.00    -0.340 N 
HETATM   25  H7  UNL     1      30.127   8.440  50.626  1.00  0.00     0.167 HD
BRANCH  24  26
HETATM   26  C9  UNL     1      30.687   9.682  48.843  1.00  0.00     0.035 A 
HETATM   27  C10 UNL     1      31.708   9.925  47.958  1.00  0.00     0.029 A 
HETATM   28  C11 UNL     1      31.731  11.110  47.270  1.00  0.00     0.004 A 
HETATM   29  C12 UNL     1      30.792  12.098  47.402  1.00  0.00     0.019 A 
HETATM   30  C13 UNL     1      29.739  11.898  48.285  1.00  0.00     0.013 A 
HETATM   31 BR1  UNL     1      28.297  13.091  48.674  1.00  0.00    -0.051 Br
HETATM   32  C14 UNL     1      29.725  10.693  48.976  1.00  0.00     0.048 A 
ENDBRANCH  24  26
ENDBRANCH  23  24
ENDBRANCH   4  18
TORSDOF 7
ENDMDL
