MODEL 1
REMARK VINA RESULT:      -8.5      0.000      0.000
REMARK  8 active torsions:
REMARK  status: ('A' for Active; 'I' for Inactive)
REMARK    1  A    between atoms: O1_2  and  C2_3 
REMARK    2  A    between atoms: C5_8  and  N3_9 
REMARK    3  A    between atoms: N3_9  and  C6_10 
REMARK    4  A    between atoms: C13_19  and  O2_20 
REMARK    5  A    between atoms: O2_20  and  C14_21 
REMARK    6  A    between atoms: C14_21  and  C15_22 
REMARK    7  A    between atoms: C15_22  and  C16_23 
REMARK    8  A    between atoms: C16_23  and  N4_24 
ROOT
HETATM    1  C2  UNL     1      23.170   4.672  48.482  1.00  0.00     0.103 C 
HETATM    2  C3  UNL     1      23.892   5.817  48.360  1.00  0.00     0.068 C 
HETATM    3  C4  UNL     1      25.128   5.689  49.129  1.00  0.00     0.061 C 
HETATM    4  N1  UNL     1      26.454   5.719  49.092  1.00  0.00    -0.182 NA
HETATM    5  N2  UNL     1      26.994   4.331  49.344  1.00  0.00    -0.286 N 
HETATM    6  C5  UNL     1      26.153   3.231  50.025  1.00  0.00     0.233 C 
HETATM    7  C12 UNL     1      24.770   3.756  49.887  1.00  0.00     0.005 C 
HETATM    8  C13 UNL     1      23.615   3.504  49.307  1.00  0.00     0.108 C 
HETATM    9  C21 UNL     1      24.876   5.153  50.569  1.00  0.00     0.102 C 
HETATM   10  H5  UNL     1      27.951   4.220  49.000  1.00  0.00     0.185 HD
ENDROOT
BRANCH   6  11
HETATM   11  N3  UNL     1      26.477   3.167  51.411  1.00  0.00    -0.364 N 
HETATM   12  H7  UNL     1      26.232   3.986  52.046  1.00  0.00     0.162 HD
BRANCH  11  13
HETATM   13  C6  UNL     1      27.112   2.128  52.140  1.00  0.00     0.031 A 
HETATM   14  C7  UNL     1      28.140   2.316  53.062  1.00  0.00     0.032 A 
HETATM   15  C8  UNL     1      28.715   1.271  53.748  1.00  0.00     0.046 A 
HETATM   16  C9  UNL     1      28.302  -0.027  53.560  1.00  0.00     0.138 A 
HETATM   17  F1  UNL     1      28.921  -0.995  54.277  1.00  0.00    -0.204 F 
HETATM   18  C10 UNL     1      27.287  -0.253  52.657  1.00  0.00     0.074 A 
HETATM   19 CL1  UNL     1      26.787  -1.916  52.442  1.00  0.00    -0.081 Cl
HETATM   20  C11 UNL     1      26.734   0.812  51.987  1.00  0.00     0.056 A 
ENDBRANCH  11  13
ENDBRANCH   6  11
BRANCH   8  21
HETATM   21  O2  UNL     1      23.175   2.292  49.604  1.00  0.00    -0.348 OA
BRANCH  21  22
HETATM   22  C14 UNL     1      21.897   1.779  49.780  1.00  0.00     0.177 C 
BRANCH  22  23
HETATM   23  C15 UNL     1      21.901   0.767  50.936  1.00  0.00     0.046 C 
BRANCH  23  24
HETATM   24  C16 UNL     1      23.049   1.035  51.883  1.00  0.00     0.119 C 
BRANCH  24  25
HETATM   25  N4  UNL     1      22.664   0.609  53.202  1.00  0.00    -0.408 N 
HETATM   26  C17 UNL     1      21.268   0.447  53.395  1.00  0.00     0.143 C 
HETATM   27  C18 UNL     1      21.020  -0.006  54.831  1.00  0.00     0.187 C 
HETATM   28  O3  UNL     1      21.641  -1.223  55.051  1.00  0.00    -0.388 OA
HETATM   29  C19 UNL     1      23.017  -1.159  54.907  1.00  0.00     0.187 C 
HETATM   30  C20 UNL     1      23.514  -0.409  53.738  1.00  0.00     0.143 C 
ENDBRANCH  24  25
ENDBRANCH  23  24
ENDBRANCH  22  23
ENDBRANCH  21  22
ENDBRANCH   8  21
BRANCH   1  31
HETATM   31  O1  UNL     1      21.986   4.565  47.828  1.00  0.00    -0.353 OA
HETATM   32  C1  UNL     1      21.965   3.793  46.629  1.00  0.00     0.210 C 
ENDBRANCH   1  31
TORSDOF 8
ENDMDL
MODEL 2
REMARK VINA RESULT:      -8.1      3.246      5.285
REMARK  8 active torsions:
REMARK  status: ('A' for Active; 'I' for Inactive)
REMARK    1  A    between atoms: O1_2  and  C2_3 
REMARK    2  A    between atoms: C5_8  and  N3_9 
REMARK    3  A    between atoms: N3_9  and  C6_10 
REMARK    4  A    between atoms: C13_19  and  O2_20 
REMARK    5  A    between atoms: O2_20  and  C14_21 
REMARK    6  A    between atoms: C14_21  and  C15_22 
REMARK    7  A    between atoms: C15_22  and  C16_23 
REMARK    8  A    between atoms: C16_23  and  N4_24 
ROOT
HETATM    1  C2  UNL     1      25.834   5.043  49.188  1.00  0.00     0.103 C 
HETATM    2  C3  UNL     1      24.667   5.563  48.726  1.00  0.00     0.068 C 
HETATM    3  C4  UNL     1      23.550   4.782  49.253  1.00  0.00     0.061 C 
HETATM    4  N1  UNL     1      22.427   4.808  49.960  1.00  0.00    -0.182 NA
HETATM    5  N2  UNL     1      22.634   4.057  51.254  1.00  0.00    -0.286 N 
HETATM    6  C5  UNL     1      23.773   3.034  51.442  1.00  0.00     0.233 C 
HETATM    7  C12 UNL     1      24.693   3.376  50.327  1.00  0.00     0.005 C 
HETATM    8  C13 UNL     1      25.901   3.841  50.080  1.00  0.00     0.108 C 
HETATM    9  C21 UNL     1      23.767   3.250  49.081  1.00  0.00     0.102 C 
HETATM   10  H5  UNL     1      21.949   4.322  51.968  1.00  0.00     0.185 HD
ENDROOT
BRANCH   6  11
HETATM   11  N3  UNL     1      23.275   1.716  51.231  1.00  0.00    -0.364 N 
HETATM   12  H7  UNL     1      23.275   1.306  50.247  1.00  0.00     0.162 HD
BRANCH  11  13
HETATM   13  C6  UNL     1      22.746   0.793  52.169  1.00  0.00     0.031 A 
HETATM   14  C7  UNL     1      23.499   0.091  53.108  1.00  0.00     0.032 A 
HETATM   15  C8  UNL     1      22.931  -0.787  54.003  1.00  0.00     0.046 A 
HETATM   16  C9  UNL     1      21.576  -1.021  54.018  1.00  0.00     0.138 A 
HETATM   17  F1  UNL     1      21.100  -1.900  54.931  1.00  0.00    -0.204 F 
HETATM   18  C10 UNL     1      20.797  -0.346  53.104  1.00  0.00     0.074 A 
HETATM   19 CL1  UNL     1      19.079  -0.669  53.152  1.00  0.00    -0.081 Cl
HETATM   20  C11 UNL     1      21.396   0.524  52.225  1.00  0.00     0.056 A 
ENDBRANCH  11  13
ENDBRANCH   6  11
BRANCH   8  21
HETATM   21  O2  UNL     1      26.832   3.128  50.692  1.00  0.00    -0.348 OA
BRANCH  21  22
HETATM   22  C14 UNL     1      26.778   1.949  51.423  1.00  0.00     0.177 C 
BRANCH  22  23
HETATM   23  C15 UNL     1      27.314   2.196  52.842  1.00  0.00     0.046 C 
BRANCH  23  24
HETATM   24  C16 UNL     1      27.033   1.011  53.738  1.00  0.00     0.119 C 
BRANCH  24  25
HETATM   25  N4  UNL     1      27.791  -0.115  53.260  1.00  0.00    -0.408 N 
HETATM   26  C17 UNL     1      28.992  -0.372  53.970  1.00  0.00     0.143 C 
HETATM   27  C18 UNL     1      29.678  -1.586  53.351  1.00  0.00     0.187 C 
HETATM   28  O3  UNL     1      28.854  -2.693  53.459  1.00  0.00    -0.388 OA
HETATM   29  C19 UNL     1      27.659  -2.545  52.775  1.00  0.00     0.187 C 
HETATM   30  C20 UNL     1      26.979  -1.245  52.931  1.00  0.00     0.143 C 
ENDBRANCH  24  25
ENDBRANCH  23  24
ENDBRANCH  22  23
ENDBRANCH  21  22
ENDBRANCH   8  21
BRANCH   1  31
HETATM   31  O1  UNL     1      27.005   5.629  48.836  1.00  0.00    -0.353 OA
HETATM   32  C1  UNL     1      26.938   6.922  48.239  1.00  0.00     0.210 C 
ENDBRANCH   1  31
TORSDOF 8
ENDMDL
MODEL 3
REMARK VINA RESULT:      -7.9      3.382      6.303
REMARK  8 active torsions:
REMARK  status: ('A' for Active; 'I' for Inactive)
REMARK    1  A    between atoms: O1_2  and  C2_3 
REMARK    2  A    between atoms: C5_8  and  N3_9 
REMARK    3  A    between atoms: N3_9  and  C6_10 
REMARK    4  A    between atoms: C13_19  and  O2_20 
REMARK    5  A    between atoms: O2_20  and  C14_21 
REMARK    6  A    between atoms: C14_21  and  C15_22 
REMARK    7  A    between atoms: C15_22  and  C16_23 
REMARK    8  A    between atoms: C16_23  and  N4_24 
ROOT
HETATM    1  C2  UNL     1      21.260   0.536  53.280  1.00  0.00     0.103 C 
HETATM    2  C3  UNL     1      20.081   0.573  52.605  1.00  0.00     0.068 C 
HETATM    3  C4  UNL     1      20.277   1.268  51.334  1.00  0.00     0.061 C 
HETATM    4  N1  UNL     1      20.186   1.190  50.013  1.00  0.00    -0.182 NA
HETATM    5  N2  UNL     1      21.573   1.199  49.414  1.00  0.00    -0.286 N 
HETATM    6  C5  UNL     1      22.800   1.726  50.186  1.00  0.00     0.233 C 
HETATM    7  C12 UNL     1      22.318   1.721  51.591  1.00  0.00     0.005 C 
HETATM    8  C13 UNL     1      22.524   1.149  52.760  1.00  0.00     0.108 C 
HETATM    9  C21 UNL     1      21.043   2.612  51.507  1.00  0.00     0.102 C 
HETATM   10  H5  UNL     1      21.588   0.808  48.468  1.00  0.00     0.185 HD
ENDROOT
BRANCH   6  11
HETATM   11  N3  UNL     1      23.069   3.072  49.803  1.00  0.00    -0.364 N 
HETATM   12  H7  UNL     1      22.259   3.754  49.684  1.00  0.00     0.162 HD
BRANCH  11  13
HETATM   13  C6  UNL     1      24.312   3.701  49.537  1.00  0.00     0.031 A 
HETATM   14  C7  UNL     1      25.559   3.098  49.692  1.00  0.00     0.032 A 
HETATM   15  C8  UNL     1      26.735   3.753  49.409  1.00  0.00     0.046 A 
HETATM   16  C9  UNL     1      26.744   5.051  48.954  1.00  0.00     0.138 A 
HETATM   17  F1  UNL     1      27.946   5.621  48.699  1.00  0.00    -0.204 F 
HETATM   18  C10 UNL     1      25.530   5.681  48.787  1.00  0.00     0.074 A 
HETATM   19 CL1  UNL     1      25.579   7.330  48.206  1.00  0.00    -0.081 Cl
HETATM   20  C11 UNL     1      24.374   4.998  49.078  1.00  0.00     0.056 A 
ENDBRANCH  11  13
ENDBRANCH   6  11
BRANCH   8  21
HETATM   21  O2  UNL     1      23.785   1.265  53.144  1.00  0.00    -0.348 OA
BRANCH  21  22
HETATM   22  C14 UNL     1      24.619   0.434  53.878  1.00  0.00     0.177 C 
BRANCH  22  23
HETATM   23  C15 UNL     1      25.448  -0.439  52.924  1.00  0.00     0.046 C 
BRANCH  23  24
HETATM   24  C16 UNL     1      26.259   0.417  51.978  1.00  0.00     0.119 C 
BRANCH  24  25
HETATM   25  N4  UNL     1      27.477   0.803  52.640  1.00  0.00    -0.408 N 
HETATM   26  C17 UNL     1      27.536   2.164  53.039  1.00  0.00     0.143 C 
HETATM   27  C18 UNL     1      28.876   2.417  53.722  1.00  0.00     0.187 C 
HETATM   28  O3  UNL     1      28.986   1.620  54.848  1.00  0.00    -0.388 OA
HETATM   29  C19 UNL     1      28.962   0.267  54.554  1.00  0.00     0.187 C 
HETATM   30  C20 UNL     1      27.943  -0.169  53.579  1.00  0.00     0.143 C 
ENDBRANCH  24  25
ENDBRANCH  23  24
ENDBRANCH  22  23
ENDBRANCH  21  22
ENDBRANCH   8  21
BRANCH   1  31
HETATM   31  O1  UNL     1      21.312  -0.084  54.485  1.00  0.00    -0.353 OA
HETATM   32  C1  UNL     1      21.466  -1.501  54.488  1.00  0.00     0.210 C 
ENDBRANCH   1  31
TORSDOF 8
ENDMDL
MODEL 4
REMARK VINA RESULT:      -7.9      2.418      6.148
REMARK  8 active torsions:
REMARK  status: ('A' for Active; 'I' for Inactive)
REMARK    1  A    between atoms: O1_2  and  C2_3 
REMARK    2  A    between atoms: C5_8  and  N3_9 
REMARK    3  A    between atoms: N3_9  and  C6_10 
REMARK    4  A    between atoms: C13_19  and  O2_20 
REMARK    5  A    between atoms: O2_20  and  C14_21 
REMARK    6  A    between atoms: C14_21  and  C15_22 
REMARK    7  A    between atoms: C15_22  and  C16_23 
REMARK    8  A    between atoms: C16_23  and  N4_24 
ROOT
HETATM    1  C2  UNL     1      20.764   0.814  53.190  1.00  0.00     0.103 C 
HETATM    2  C3  UNL     1      20.338  -0.320  53.805  1.00  0.00     0.068 C 
HETATM    3  C4  UNL     1      21.494  -1.151  54.135  1.00  0.00     0.061 C 
HETATM    4  N1  UNL     1      22.170  -1.761  55.100  1.00  0.00    -0.182 NA
HETATM    5  N2  UNL     1      23.506  -1.081  55.282  1.00  0.00    -0.286 N 
HETATM    6  C5  UNL     1      24.134  -0.191  54.189  1.00  0.00     0.233 C 
HETATM    7  C12 UNL     1      22.970   0.109  53.316  1.00  0.00     0.005 C 
HETATM    8  C13 UNL     1      22.207   1.101  52.904  1.00  0.00     0.108 C 
HETATM    9  C21 UNL     1      22.468  -1.314  52.931  1.00  0.00     0.102 C 
HETATM   10  H5  UNL     1      23.915  -1.271  56.201  1.00  0.00     0.185 HD
ENDROOT
BRANCH   6  11
HETATM   11  N3  UNL     1      25.080  -0.947  53.438  1.00  0.00    -0.364 N 
HETATM   12  H7  UNL     1      24.736  -1.686  52.752  1.00  0.00     0.162 HD
BRANCH  11  13
HETATM   13  C6  UNL     1      26.497  -0.878  53.447  1.00  0.00     0.031 A 
HETATM   14  C7  UNL     1      27.346  -1.892  53.007  1.00  0.00     0.032 A 
HETATM   15  C8  UNL     1      28.717  -1.768  53.030  1.00  0.00     0.046 A 
HETATM   16  C9  UNL     1      29.328  -0.626  53.493  1.00  0.00     0.138 A 
HETATM   17  F1  UNL     1      30.681  -0.588  53.480  1.00  0.00    -0.204 F 
HETATM   18  C10 UNL     1      28.521   0.399  53.936  1.00  0.00     0.074 A 
HETATM   19 CL1  UNL     1      29.333   1.835  54.518  1.00  0.00    -0.081 Cl
HETATM   20  C11 UNL     1      27.156   0.243  53.900  1.00  0.00     0.056 A 
ENDBRANCH  11  13
ENDBRANCH   6  11
BRANCH   8  21
HETATM   21  O2  UNL     1      22.922   2.074  52.364  1.00  0.00    -0.348 OA
BRANCH  21  22
HETATM   22  C14 UNL     1      23.819   2.098  51.305  1.00  0.00     0.177 C 
BRANCH  22  23
HETATM   23  C15 UNL     1      23.071   2.421  50.002  1.00  0.00     0.046 C 
BRANCH  23  24
HETATM   24  C16 UNL     1      22.614   3.862  49.986  1.00  0.00     0.119 C 
BRANCH  24  25
HETATM   25  N4  UNL     1      23.748   4.706  50.254  1.00  0.00    -0.408 N 
HETATM   26  C17 UNL     1      24.583   4.958  49.135  1.00  0.00     0.143 C 
HETATM   27  C18 UNL     1      25.731   5.862  49.574  1.00  0.00     0.187 C 
HETATM   28  O3  UNL     1      25.228   7.067  50.032  1.00  0.00    -0.388 OA
HETATM   29  C19 UNL     1      24.414   6.924  51.144  1.00  0.00     0.187 C 
HETATM   30  C20 UNL     1      23.437   5.820  51.095  1.00  0.00     0.143 C 
ENDBRANCH  24  25
ENDBRANCH  23  24
ENDBRANCH  22  23
ENDBRANCH  21  22
ENDBRANCH   8  21
BRANCH   1  31
HETATM   31  O1  UNL     1      19.853   1.744  52.813  1.00  0.00    -0.353 OA
HETATM   32  C1  UNL     1      18.962   1.398  51.754  1.00  0.00     0.210 C 
ENDBRANCH   1  31
TORSDOF 8
ENDMDL
MODEL 5
REMARK VINA RESULT:      -7.9      2.362      5.646
REMARK  8 active torsions:
REMARK  status: ('A' for Active; 'I' for Inactive)
REMARK    1  A    between atoms: O1_2  and  C2_3 
REMARK    2  A    between atoms: C5_8  and  N3_9 
REMARK    3  A    between atoms: N3_9  and  C6_10 
REMARK    4  A    between atoms: C13_19  and  O2_20 
REMARK    5  A    between atoms: O2_20  and  C14_21 
REMARK    6  A    between atoms: C14_21  and  C15_22 
REMARK    7  A    between atoms: C15_22  and  C16_23 
REMARK    8  A    between atoms: C16_23  and  N4_24 
ROOT
HETATM    1  C2  UNL     1      20.032   2.483  52.181  1.00  0.00     0.103 C 
HETATM    2  C3  UNL     1      19.594   1.204  52.317  1.00  0.00     0.068 C 
HETATM    3  C4  UNL     1      20.744   0.317  52.482  1.00  0.00     0.061 C 
HETATM    4  N1  UNL     1      21.337  -0.582  53.257  1.00  0.00    -0.182 NA
HETATM    5  N2  UNL     1      22.610   0.003  53.819  1.00  0.00    -0.286 N 
HETATM    6  C5  UNL     1      23.313   1.218  53.178  1.00  0.00     0.233 C 
HETATM    7  C12 UNL     1      22.240   1.791  52.325  1.00  0.00     0.005 C 
HETATM    8  C13 UNL     1      21.482   2.859  52.186  1.00  0.00     0.108 C 
HETATM    9  C21 UNL     1      21.853   0.583  51.422  1.00  0.00     0.102 C 
HETATM   10  H5  UNL     1      22.923  -0.488  54.661  1.00  0.00     0.185 HD
ENDROOT
BRANCH   6  11
HETATM   11  N3  UNL     1      24.372   0.771  52.335  1.00  0.00    -0.364 N 
HETATM   12  H7  UNL     1      24.193   0.637  51.294  1.00  0.00     0.162 HD
BRANCH  11  13
HETATM   13  C6  UNL     1      25.714   0.454  52.668  1.00  0.00     0.031 A 
HETATM   14  C7  UNL     1      26.264  -0.826  52.625  1.00  0.00     0.032 A 
HETATM   15  C8  UNL     1      27.578  -1.076  52.951  1.00  0.00     0.046 A 
HETATM   16  C9  UNL     1      28.426  -0.066  53.340  1.00  0.00     0.138 A 
HETATM   17  F1  UNL     1      29.704  -0.399  53.642  1.00  0.00    -0.204 F 
HETATM   18  C10 UNL     1      27.919   1.214  53.394  1.00  0.00     0.074 A 
HETATM   19 CL1  UNL     1      29.027   2.473  53.893  1.00  0.00    -0.081 Cl
HETATM   20  C11 UNL     1      26.603   1.429  53.063  1.00  0.00     0.056 A 
ENDBRANCH  11  13
ENDBRANCH   6  11
BRANCH   8  21
HETATM   21  O2  UNL     1      22.206   3.963  52.098  1.00  0.00    -0.348 OA
BRANCH  21  22
HETATM   22  C14 UNL     1      21.873   5.280  51.812  1.00  0.00     0.177 C 
BRANCH  22  23
HETATM   23  C15 UNL     1      23.080   5.995  51.187  1.00  0.00     0.046 C 
BRANCH  23  24
HETATM   24  C16 UNL     1      23.483   5.337  49.887  1.00  0.00     0.119 C 
BRANCH  24  25
HETATM   25  N4  UNL     1      24.877   4.986  49.963  1.00  0.00    -0.408 N 
HETATM   26  C17 UNL     1      25.138   3.597  50.088  1.00  0.00     0.143 C 
HETATM   27  C18 UNL     1      26.647   3.385  50.154  1.00  0.00     0.187 C 
HETATM   28  O3  UNL     1      27.236   3.844  48.989  1.00  0.00    -0.388 OA
HETATM   29  C19 UNL     1      27.053   5.202  48.792  1.00  0.00     0.187 C 
HETATM   30  C20 UNL     1      25.695   5.719  49.049  1.00  0.00     0.143 C 
ENDBRANCH  24  25
ENDBRANCH  23  24
ENDBRANCH  22  23
ENDBRANCH  21  22
ENDBRANCH   8  21
BRANCH   1  31
HETATM   31  O1  UNL     1      19.125   3.480  52.034  1.00  0.00    -0.353 OA
HETATM   32  C1  UNL     1      18.638   3.736  50.718  1.00  0.00     0.210 C 
ENDBRANCH   1  31
TORSDOF 8
ENDMDL
MODEL 6
REMARK VINA RESULT:      -7.7      3.539      6.706
REMARK  8 active torsions:
REMARK  status: ('A' for Active; 'I' for Inactive)
REMARK    1  A    between atoms: O1_2  and  C2_3 
REMARK    2  A    between atoms: C5_8  and  N3_9 
REMARK    3  A    between atoms: N3_9  and  C6_10 
REMARK    4  A    between atoms: C13_19  and  O2_20 
REMARK    5  A    between atoms: O2_20  and  C14_21 
REMARK    6  A    between atoms: C14_21  and  C15_22 
REMARK    7  A    between atoms: C15_22  and  C16_23 
REMARK    8  A    between atoms: C16_23  and  N4_24 
ROOT
HETATM    1  C2  UNL     1      26.858   2.318  51.909  1.00  0.00     0.103 C 
HETATM    2  C3  UNL     1      27.798   2.088  52.863  1.00  0.00     0.068 C 
HETATM    3  C4  UNL     1      27.308   1.062  53.782  1.00  0.00     0.061 C 
HETATM    4  N1  UNL     1      27.532  -0.131  54.317  1.00  0.00    -0.182 NA
HETATM    5  N2  UNL     1      26.503  -1.111  53.805  1.00  0.00    -0.286 N 
HETATM    6  C5  UNL     1      25.163  -0.654  53.193  1.00  0.00     0.233 C 
HETATM    7  C12 UNL     1      25.427   0.773  52.879  1.00  0.00     0.005 C 
HETATM    8  C13 UNL     1      25.537   1.613  51.870  1.00  0.00     0.108 C 
HETATM    9  C21 UNL     1      25.855   1.344  54.264  1.00  0.00     0.102 C 
HETATM   10  H5  UNL     1      26.813  -2.082  53.902  1.00  0.00     0.185 HD
ENDROOT
BRANCH   6  11
HETATM   11  N3  UNL     1      24.137  -0.718  54.180  1.00  0.00    -0.364 N 
HETATM   12  H7  UNL     1      24.402  -0.793  55.209  1.00  0.00     0.162 HD
BRANCH  11  13
HETATM   13  C6  UNL     1      22.727  -0.698  54.015  1.00  0.00     0.031 A 
HETATM   14  C7  UNL     1      21.868  -1.733  54.381  1.00  0.00     0.032 A 
HETATM   15  C8  UNL     1      20.505  -1.656  54.207  1.00  0.00     0.046 A 
HETATM   16  C9  UNL     1      19.912  -0.544  53.658  1.00  0.00     0.138 A 
HETATM   17  F1  UNL     1      18.565  -0.551  53.522  1.00  0.00    -0.204 F 
HETATM   18  C10 UNL     1      20.729   0.500  53.284  1.00  0.00     0.074 A 
HETATM   19 CL1  UNL     1      19.940   1.899  52.588  1.00  0.00    -0.081 Cl
HETATM   20  C11 UNL     1      22.086   0.392  53.471  1.00  0.00     0.056 A 
ENDBRANCH  11  13
ENDBRANCH   6  11
BRANCH   8  21
HETATM   21  O2  UNL     1      24.460   1.596  51.101  1.00  0.00    -0.348 OA
BRANCH  21  22
HETATM   22  C14 UNL     1      23.356   2.432  51.020  1.00  0.00     0.177 C 
BRANCH  22  23
HETATM   23  C15 UNL     1      23.526   3.609  51.992  1.00  0.00     0.046 C 
BRANCH  23  24
HETATM   24  C16 UNL     1      22.377   4.584  51.864  1.00  0.00     0.119 C 
BRANCH  24  25
HETATM   25  N4  UNL     1      22.793   5.674  51.022  1.00  0.00    -0.408 N 
HETATM   26  C17 UNL     1      21.905   6.780  50.993  1.00  0.00     0.143 C 
HETATM   27  C18 UNL     1      22.479   7.846  50.066  1.00  0.00     0.187 C 
HETATM   28  O3  UNL     1      23.704   8.275  50.547  1.00  0.00    -0.388 OA
HETATM   29  C19 UNL     1      24.649   7.263  50.591  1.00  0.00     0.187 C 
HETATM   30  C20 UNL     1      24.189   5.967  51.125  1.00  0.00     0.143 C 
ENDBRANCH  24  25
ENDBRANCH  23  24
ENDBRANCH  22  23
ENDBRANCH  21  22
ENDBRANCH   8  21
BRANCH   1  31
HETATM   31  O1  UNL     1      27.114   3.227  50.935  1.00  0.00    -0.353 OA
HETATM   32  C1  UNL     1      26.632   2.938  49.625  1.00  0.00     0.210 C 
ENDBRANCH   1  31
TORSDOF 8
ENDMDL
MODEL 7
REMARK VINA RESULT:      -7.7      1.255      1.793
REMARK  8 active torsions:
REMARK  status: ('A' for Active; 'I' for Inactive)
REMARK    1  A    between atoms: O1_2  and  C2_3 
REMARK    2  A    between atoms: C5_8  and  N3_9 
REMARK    3  A    between atoms: N3_9  and  C6_10 
REMARK    4  A    between atoms: C13_19  and  O2_20 
REMARK    5  A    between atoms: O2_20  and  C14_21 
REMARK    6  A    between atoms: C14_21  and  C15_22 
REMARK    7  A    between atoms: C15_22  and  C16_23 
REMARK    8  A    between atoms: C16_23  and  N4_24 
ROOT
HETATM    1  C2  UNL     1      23.500   5.751  48.243  1.00  0.00     0.103 C 
HETATM    2  C3  UNL     1      24.489   6.671  48.092  1.00  0.00     0.068 C 
HETATM    3  C4  UNL     1      25.679   6.217  48.809  1.00  0.00     0.061 C 
HETATM    4  N1  UNL     1      26.965   5.902  48.715  1.00  0.00    -0.182 NA
HETATM    5  N2  UNL     1      27.135   4.419  48.944  1.00  0.00    -0.286 N 
HETATM    6  C5  UNL     1      26.066   3.567  49.659  1.00  0.00     0.233 C 
HETATM    7  C12 UNL     1      24.863   4.435  49.579  1.00  0.00     0.005 C 
HETATM    8  C13 UNL     1      23.659   4.497  49.048  1.00  0.00     0.108 C 
HETATM    9  C21 UNL     1      25.355   5.748  50.257  1.00  0.00     0.102 C 
HETATM   10  H5  UNL     1      28.016   4.067  48.560  1.00  0.00     0.185 HD
ENDROOT
BRANCH   6  11
HETATM   11  N3  UNL     1      26.418   3.404  51.030  1.00  0.00    -0.364 N 
HETATM   12  H7  UNL     1      26.362   4.240  51.688  1.00  0.00     0.162 HD
BRANCH  11  13
HETATM   13  C6  UNL     1      26.858   2.242  51.714  1.00  0.00     0.031 A 
HETATM   14  C7  UNL     1      26.406   0.949  51.460  1.00  0.00     0.032 A 
HETATM   15  C8  UNL     1      26.875  -0.146  52.150  1.00  0.00     0.046 A 
HETATM   16  C9  UNL     1      27.825  -0.020  53.137  1.00  0.00     0.138 A 
HETATM   17  F1  UNL     1      28.232  -1.149  53.765  1.00  0.00    -0.204 F 
HETATM   18  C10 UNL     1      28.297   1.243  53.416  1.00  0.00     0.074 A 
HETATM   19 CL1  UNL     1      29.504   1.364  54.677  1.00  0.00    -0.081 Cl
HETATM   20  C11 UNL     1      27.808   2.315  52.710  1.00  0.00     0.056 A 
ENDBRANCH  11  13
ENDBRANCH   6  11
BRANCH   8  21
HETATM   21  O2  UNL     1      22.931   3.438  49.363  1.00  0.00    -0.348 OA
BRANCH  21  22
HETATM   22  C14 UNL     1      22.258   3.077  50.521  1.00  0.00     0.177 C 
BRANCH  22  23
HETATM   23  C15 UNL     1      22.336   1.555  50.712  1.00  0.00     0.046 C 
BRANCH  23  24
HETATM   24  C16 UNL     1      23.178   1.206  51.918  1.00  0.00     0.119 C 
BRANCH  24  25
HETATM   25  N4  UNL     1      22.436   0.292  52.746  1.00  0.00    -0.408 N 
HETATM   26  C17 UNL     1      23.229  -0.531  53.588  1.00  0.00     0.143 C 
HETATM   27  C18 UNL     1      22.306  -1.435  54.399  1.00  0.00     0.187 C 
HETATM   28  O3  UNL     1      21.472  -0.664  55.190  1.00  0.00    -0.388 OA
HETATM   29  C19 UNL     1      20.639   0.160  54.452  1.00  0.00     0.187 C 
HETATM   30  C20 UNL     1      21.267   0.877  53.326  1.00  0.00     0.143 C 
ENDBRANCH  24  25
ENDBRANCH  23  24
ENDBRANCH  22  23
ENDBRANCH  21  22
ENDBRANCH   8  21
BRANCH   1  31
HETATM   31  O1  UNL     1      22.303   5.962  47.640  1.00  0.00    -0.353 OA
HETATM   32  C1  UNL     1      21.281   6.588  48.412  1.00  0.00     0.210 C 
ENDBRANCH   1  31
TORSDOF 8
ENDMDL
MODEL 8
REMARK VINA RESULT:      -7.7      1.354      1.551
REMARK  8 active torsions:
REMARK  status: ('A' for Active; 'I' for Inactive)
REMARK    1  A    between atoms: O1_2  and  C2_3 
REMARK    2  A    between atoms: C5_8  and  N3_9 
REMARK    3  A    between atoms: N3_9  and  C6_10 
REMARK    4  A    between atoms: C13_19  and  O2_20 
REMARK    5  A    between atoms: O2_20  and  C14_21 
REMARK    6  A    between atoms: C14_21  and  C15_22 
REMARK    7  A    between atoms: C15_22  and  C16_23 
REMARK    8  A    between atoms: C16_23  and  N4_24 
ROOT
HETATM    1  C2  UNL     1      23.348   4.899  48.439  1.00  0.00     0.103 C 
HETATM    2  C3  UNL     1      24.093   6.032  48.337  1.00  0.00     0.068 C 
HETATM    3  C4  UNL     1      25.361   5.837  49.037  1.00  0.00     0.061 C 
HETATM    4  N1  UNL     1      26.685   5.838  48.935  1.00  0.00    -0.182 NA
HETATM    5  N2  UNL     1      27.200   4.427  49.093  1.00  0.00    -0.286 N 
HETATM    6  C5  UNL     1      26.365   3.314  49.761  1.00  0.00     0.233 C 
HETATM    7  C12 UNL     1      24.992   3.878  49.717  1.00  0.00     0.005 C 
HETATM    8  C13 UNL     1      23.803   3.681  49.184  1.00  0.00     0.108 C 
HETATM    9  C21 UNL     1      25.166   5.236  50.460  1.00  0.00     0.102 C 
HETATM   10  H5  UNL     1      28.136   4.311  48.697  1.00  0.00     0.185 HD
ENDROOT
BRANCH   6  11
HETATM   11  N3  UNL     1      26.754   3.174  51.124  1.00  0.00    -0.364 N 
HETATM   12  H7  UNL     1      27.379   3.913  51.570  1.00  0.00     0.162 HD
BRANCH  11  13
HETATM   13  C6  UNL     1      26.430   2.151  52.052  1.00  0.00     0.031 A 
HETATM   14  C7  UNL     1      25.823   2.361  53.289  1.00  0.00     0.032 A 
HETATM   15  C8  UNL     1      25.523   1.328  54.148  1.00  0.00     0.046 A 
HETATM   16  C9  UNL     1      25.807   0.021  53.828  1.00  0.00     0.138 A 
HETATM   17  F1  UNL     1      25.478  -0.933  54.730  1.00  0.00    -0.204 F 
HETATM   18  C10 UNL     1      26.407  -0.226  52.613  1.00  0.00     0.074 A 
HETATM   19 CL1  UNL     1      26.755  -1.900  52.240  1.00  0.00    -0.081 Cl
HETATM   20  C11 UNL     1      26.695   0.827  51.779  1.00  0.00     0.056 A 
ENDBRANCH  11  13
ENDBRANCH   6  11
BRANCH   8  21
HETATM   21  O2  UNL     1      23.347   2.467  49.444  1.00  0.00    -0.348 OA
BRANCH  21  22
HETATM   22  C14 UNL     1      23.151   1.776  50.631  1.00  0.00     0.177 C 
BRANCH  22  23
HETATM   23  C15 UNL     1      21.653   1.491  50.823  1.00  0.00     0.046 C 
BRANCH  23  24
HETATM   24  C16 UNL     1      21.133   2.160  52.075  1.00  0.00     0.119 C 
BRANCH  24  25
HETATM   25  N4  UNL     1      20.637   1.144  52.965  1.00  0.00    -0.408 N 
HETATM   26  C17 UNL     1      19.734   0.222  52.376  1.00  0.00     0.143 C 
HETATM   27  C18 UNL     1      19.301  -0.787  53.435  1.00  0.00     0.187 C 
HETATM   28  O3  UNL     1      20.405  -1.482  53.898  1.00  0.00    -0.388 OA
HETATM   29  C19 UNL     1      21.338  -0.663  54.514  1.00  0.00     0.187 C 
HETATM   30  C20 UNL     1      21.644   0.605  53.825  1.00  0.00     0.143 C 
ENDBRANCH  24  25
ENDBRANCH  23  24
ENDBRANCH  22  23
ENDBRANCH  21  22
ENDBRANCH   8  21
BRANCH   1  31
HETATM   31  O1  UNL     1      22.132   4.852  47.841  1.00  0.00    -0.353 OA
HETATM   32  C1  UNL     1      21.932   5.675  46.694  1.00  0.00     0.210 C 
ENDBRANCH   1  31
TORSDOF 8
ENDMDL
MODEL 9
REMARK VINA RESULT:      -7.6      3.219      5.083
REMARK  8 active torsions:
REMARK  status: ('A' for Active; 'I' for Inactive)
REMARK    1  A    between atoms: O1_2  and  C2_3 
REMARK    2  A    between atoms: C5_8  and  N3_9 
REMARK    3  A    between atoms: N3_9  and  C6_10 
REMARK    4  A    between atoms: C13_19  and  O2_20 
REMARK    5  A    between atoms: O2_20  and  C14_21 
REMARK    6  A    between atoms: C14_21  and  C15_22 
REMARK    7  A    between atoms: C15_22  and  C16_23 
REMARK    8  A    between atoms: C16_23  and  N4_24 
ROOT
HETATM    1  C2  UNL     1      26.566   6.569  48.508  1.00  0.00     0.103 C 
HETATM    2  C3  UNL     1      25.889   7.709  48.213  1.00  0.00     0.068 C 
HETATM    3  C4  UNL     1      24.654   7.749  48.994  1.00  0.00     0.061 C 
HETATM    4  N1  UNL     1      23.936   8.426  49.882  1.00  0.00    -0.182 NA
HETATM    5  N2  UNL     1      23.890   7.656  51.180  1.00  0.00    -0.286 N 
HETATM    6  C5  UNL     1      24.191   6.144  51.253  1.00  0.00     0.233 C 
HETATM    7  C12 UNL     1      24.895   5.898  49.969  1.00  0.00     0.005 C 
HETATM    8  C13 UNL     1      26.063   5.541  49.476  1.00  0.00     0.108 C 
HETATM    9  C21 UNL     1      23.864   6.411  48.920  1.00  0.00     0.102 C 
HETATM   10  H5  UNL     1      23.658   8.255  51.977  1.00  0.00     0.185 HD
ENDROOT
BRANCH   6  11
HETATM   11  N3  UNL     1      22.969   5.411  51.248  1.00  0.00    -0.364 N 
HETATM   12  H7  UNL     1      22.045   5.931  51.143  1.00  0.00     0.162 HD
BRANCH  11  13
HETATM   13  C6  UNL     1      22.758   4.012  51.365  1.00  0.00     0.031 A 
HETATM   14  C7  UNL     1      22.943   3.275  52.533  1.00  0.00     0.032 A 
HETATM   15  C8  UNL     1      22.714   1.919  52.593  1.00  0.00     0.046 A 
HETATM   16  C9  UNL     1      22.287   1.213  51.493  1.00  0.00     0.138 A 
HETATM   17  F1  UNL     1      22.086  -0.118  51.639  1.00  0.00    -0.204 F 
HETATM   18  C10 UNL     1      22.093   1.908  50.320  1.00  0.00     0.074 A 
HETATM   19 CL1  UNL     1      21.550   0.977  48.942  1.00  0.00    -0.081 Cl
HETATM   20  C11 UNL     1      22.330   3.261  50.293  1.00  0.00     0.056 A 
ENDBRANCH  11  13
ENDBRANCH   6  11
BRANCH   8  21
HETATM   21  O2  UNL     1      26.471   4.385  49.974  1.00  0.00    -0.348 OA
BRANCH  21  22
HETATM   22  C14 UNL     1      26.220   3.070  49.611  1.00  0.00     0.177 C 
BRANCH  22  23
HETATM   23  C15 UNL     1      26.020   2.214  50.871  1.00  0.00     0.046 C 
BRANCH  23  24
HETATM   24  C16 UNL     1      27.134   2.452  51.866  1.00  0.00     0.119 C 
BRANCH  24  25
HETATM   25  N4  UNL     1      27.304   1.261  52.656  1.00  0.00    -0.408 N 
HETATM   26  C17 UNL     1      28.506   1.209  53.409  1.00  0.00     0.143 C 
HETATM   27  C18 UNL     1      28.540  -0.101  54.189  1.00  0.00     0.187 C 
HETATM   28  O3  UNL     1      27.468  -0.153  55.063  1.00  0.00    -0.388 OA
HETATM   29  C19 UNL     1      26.244  -0.130  54.416  1.00  0.00     0.187 C 
HETATM   30  C20 UNL     1      26.106   0.847  53.319  1.00  0.00     0.143 C 
ENDBRANCH  24  25
ENDBRANCH  23  24
ENDBRANCH  22  23
ENDBRANCH  21  22
ENDBRANCH   8  21
BRANCH   1  31
HETATM   31  O1  UNL     1      27.759   6.334  47.907  1.00  0.00    -0.353 OA
HETATM   32  C1  UNL     1      28.898   7.026  48.416  1.00  0.00     0.210 C 
ENDBRANCH   1  31
TORSDOF 8
ENDMDL
