MODEL 1
REMARK VINA RESULT:      -9.4      0.000      0.000
REMARK  3 active torsions:
REMARK  status: ('A' for Active; 'I' for Inactive)
REMARK    1  A    between atoms: C3_3  and  C4_4 
REMARK    2  A    between atoms: C4_4  and  C5_5 
REMARK    3  A    between atoms: C18_21  and  O3_22 
ROOT
HETATM    1  C5  UNL     1      24.295   3.751  51.468  1.00  0.00     0.042 C 
HETATM    2  C6  UNL     1      23.298   4.902  51.719  1.00  0.00     0.256 C 
HETATM    3  O1  UNL     1      22.641   4.963  52.735  1.00  0.00    -0.267 OA
HETATM    4  N1  UNL     1      23.464   5.692  50.501  1.00  0.00    -0.316 N 
HETATM    5  C7  UNL     1      23.433   4.623  49.435  1.00  0.00     0.168 C 
HETATM    6  C8  UNL     1      24.785   4.209  50.117  1.00  0.00    -0.024 C 
HETATM    7  C9  UNL     1      26.086   4.365  49.730  1.00  0.00     0.010 C 
HETATM    8  C10 UNL     1      26.619   5.654  49.099  1.00  0.00     0.004 C 
HETATM    9  C11 UNL     1      26.055   6.917  49.152  1.00  0.00    -0.066 C 
HETATM   10  C12 UNL     1      26.876   7.060  47.894  1.00  0.00     0.061 C 
HETATM   11  C13 UNL     1      28.061   7.872  48.290  1.00  0.00    -0.024 C 
HETATM   12  C14 UNL     1      28.355   8.759  49.265  1.00  0.00    -0.005 C 
HETATM   13  C15 UNL     1      27.383   9.192  50.343  1.00  0.00     0.194 C 
HETATM   14  O2  UNL     1      26.250   9.634  49.741  1.00  0.00    -0.387 OA
HETATM   15  C16 UNL     1      25.084   8.988  49.937  1.00  0.00     0.181 C 
HETATM   16  C17 UNL     1      25.134   7.502  50.152  1.00  0.00     0.087 C 
HETATM   17  C18 UNL     1      23.731   7.046  50.329  1.00  0.00     0.233 C 
ENDROOT
BRANCH   1  18
HETATM   18  C4  UNL     1      24.890   2.718  51.922  1.00  0.00     0.047 C 
BRANCH  18  19
HETATM   19  C3  UNL     1      25.465   1.610  52.609  1.00  0.00     0.034 C 
HETATM   20  C2  UNL     1      26.724   1.317  52.859  1.00  0.00    -0.023 C 
HETATM   21  C1  UNL     1      27.736   2.282  52.358  1.00  0.00     0.049 C 
HETATM   22  C21 UNL     1      26.981   0.085  53.586  1.00  0.00     0.089 C 
HETATM   23  C20 UNL     1      26.076  -1.080  53.265  1.00  0.00     0.062 C 
HETATM   24  C22 UNL     1      28.430  -0.359  53.605  1.00  0.00     0.069 C 
HETATM   25  O4  UNL     1      27.049   0.304  54.950  1.00  0.00    -0.375 OA
HETATM   26  C19 UNL     1      24.628  -0.697  53.328  1.00  0.00     0.123 C 
HETATM   27  N2  UNL     1      24.516   0.728  53.141  1.00  0.00    -0.390 N 
HETATM   28  H20 UNL     1      23.572   1.044  53.482  1.00  0.00     0.159 HD
HETATM   29  C23 UNL     1      28.468   0.287  54.950  1.00  0.00     0.172 C 
ENDBRANCH  18  19
ENDBRANCH   1  18
BRANCH  17  30
HETATM   30  O3  UNL     1      22.964   7.519  49.271  1.00  0.00    -0.376 OA
HETATM   31  H19 UNL     1      22.131   7.972  49.540  1.00  0.00     0.212 HD
ENDBRANCH  17  30
TORSDOF 3
ENDMDL
MODEL 2
REMARK VINA RESULT:      -8.8      2.066      2.744
REMARK  3 active torsions:
REMARK  status: ('A' for Active; 'I' for Inactive)
REMARK    1  A    between atoms: C3_3  and  C4_4 
REMARK    2  A    between atoms: C4_4  and  C5_5 
REMARK    3  A    between atoms: C18_21  and  O3_22 
ROOT
HETATM    1  C5  UNL     1      23.748   1.735  51.571  1.00  0.00     0.042 C 
HETATM    2  C6  UNL     1      22.313   2.172  51.932  1.00  0.00     0.256 C 
HETATM    3  O1  UNL     1      21.787   1.831  52.969  1.00  0.00    -0.267 OA
HETATM    4  N1  UNL     1      21.962   2.983  50.769  1.00  0.00    -0.316 N 
HETATM    5  C7  UNL     1      22.431   2.108  49.631  1.00  0.00     0.168 C 
HETATM    6  C8  UNL     1      23.838   2.442  50.242  1.00  0.00    -0.024 C 
HETATM    7  C9  UNL     1      24.836   3.279  49.829  1.00  0.00     0.010 C 
HETATM    8  C10 UNL     1      24.571   4.681  49.274  1.00  0.00     0.004 C 
HETATM    9  C11 UNL     1      23.432   5.451  49.433  1.00  0.00    -0.066 C 
HETATM   10  C12 UNL     1      23.974   6.062  48.164  1.00  0.00     0.061 C 
HETATM   11  C13 UNL     1      24.577   7.359  48.580  1.00  0.00    -0.024 C 
HETATM   12  C14 UNL     1      24.421   8.223  49.607  1.00  0.00    -0.005 C 
HETATM   13  C15 UNL     1      23.437   8.029  50.741  1.00  0.00     0.194 C 
HETATM   14  O2  UNL     1      22.205   7.831  50.206  1.00  0.00    -0.387 OA
HETATM   15  C16 UNL     1      21.569   6.658  50.390  1.00  0.00     0.181 C 
HETATM   16  C17 UNL     1      22.406   5.416  50.498  1.00  0.00     0.087 C 
HETATM   17  C18 UNL     1      21.466   4.280  50.685  1.00  0.00     0.233 C 
ENDROOT
BRANCH   1  18
HETATM   18  C4  UNL     1      24.825   1.154  51.933  1.00  0.00     0.047 C 
BRANCH  18  19
HETATM   19  C3  UNL     1      25.918   0.435  52.498  1.00  0.00     0.034 C 
HETATM   20  C2  UNL     1      27.113   0.846  52.870  1.00  0.00    -0.023 C 
HETATM   21  C1  UNL     1      27.397   2.292  52.684  1.00  0.00     0.049 C 
HETATM   22  C21 UNL     1      28.015  -0.158  53.408  1.00  0.00     0.089 C 
HETATM   23  C20 UNL     1      27.948  -1.525  52.773  1.00  0.00     0.062 C 
HETATM   24  C22 UNL     1      29.456   0.289  53.555  1.00  0.00     0.069 C 
HETATM   25  O4  UNL     1      27.920  -0.241  54.785  1.00  0.00    -0.375 OA
HETATM   26  C19 UNL     1      26.541  -2.037  52.695  1.00  0.00     0.123 C 
HETATM   27  N2  UNL     1      25.636  -0.916  52.736  1.00  0.00    -0.390 N 
HETATM   28  H20 UNL     1      24.675  -1.262  52.990  1.00  0.00     0.159 HD
HETATM   29  C23 UNL     1      29.091   0.535  54.981  1.00  0.00     0.172 C 
ENDBRANCH  18  19
ENDBRANCH   1  18
BRANCH  17  30
HETATM   30  O3  UNL     1      20.501   4.322  49.687  1.00  0.00    -0.376 OA
HETATM   31  H19 UNL     1      20.054   5.195  49.586  1.00  0.00     0.212 HD
ENDBRANCH  17  30
TORSDOF 3
ENDMDL
MODEL 3
REMARK VINA RESULT:      -8.6      2.555      4.666
REMARK  3 active torsions:
REMARK  status: ('A' for Active; 'I' for Inactive)
REMARK    1  A    between atoms: C3_3  and  C4_4 
REMARK    2  A    between atoms: C4_4  and  C5_5 
REMARK    3  A    between atoms: C18_21  and  O3_22 
ROOT
HETATM    1  C5  UNL     1      25.719   6.884  49.601  1.00  0.00     0.042 C 
HETATM    2  C6  UNL     1      26.058   8.389  49.570  1.00  0.00     0.256 C 
HETATM    3  O1  UNL     1      25.521   9.177  50.317  1.00  0.00    -0.267 OA
HETATM    4  N1  UNL     1      27.067   8.431  48.514  1.00  0.00    -0.316 N 
HETATM    5  C7  UNL     1      26.429   7.578  47.445  1.00  0.00     0.168 C 
HETATM    6  C8  UNL     1      26.665   6.449  48.509  1.00  0.00    -0.024 C 
HETATM    7  C9  UNL     1      27.580   5.437  48.578  1.00  0.00     0.010 C 
HETATM    8  C10 UNL     1      29.057   5.624  48.222  1.00  0.00     0.004 C 
HETATM    9  C11 UNL     1      29.766   6.811  48.150  1.00  0.00    -0.066 C 
HETATM   10  C12 UNL     1      30.612   5.956  47.239  1.00  0.00     0.061 C 
HETATM   11  C13 UNL     1      31.818   5.604  48.041  1.00  0.00    -0.024 C 
HETATM   12  C14 UNL     1      32.471   6.125  49.102  1.00  0.00    -0.005 C 
HETATM   13  C15 UNL     1      32.052   7.388  49.823  1.00  0.00     0.194 C 
HETATM   14  O2  UNL     1      31.939   8.384  48.906  1.00  0.00    -0.387 OA
HETATM   15  C16 UNL     1      30.742   8.958  48.677  1.00  0.00     0.181 C 
HETATM   16  C17 UNL     1      29.514   8.105  48.822  1.00  0.00     0.087 C 
HETATM   17  C18 UNL     1      28.349   8.972  48.507  1.00  0.00     0.233 C 
ENDROOT
BRANCH   1  18
HETATM   18  C4  UNL     1      25.097   5.928  50.173  1.00  0.00     0.047 C 
BRANCH  18  19
HETATM   19  C3  UNL     1      24.431   4.966  50.986  1.00  0.00     0.034 C 
HETATM   20  C2  UNL     1      24.623   3.668  51.109  1.00  0.00    -0.023 C 
HETATM   21  C1  UNL     1      25.706   3.083  50.278  1.00  0.00     0.049 C 
HETATM   22  C21 UNL     1      23.753   2.959  52.031  1.00  0.00     0.089 C 
HETATM   23  C20 UNL     1      22.321   3.430  52.093  1.00  0.00     0.062 C 
HETATM   24  C22 UNL     1      23.811   1.447  51.935  1.00  0.00     0.069 C 
HETATM   25  O4  UNL     1      24.308   2.881  53.295  1.00  0.00    -0.375 OA
HETATM   26  C19 UNL     1      22.227   4.915  52.281  1.00  0.00     0.123 C 
HETATM   27  N2  UNL     1      23.452   5.519  51.820  1.00  0.00    -0.390 N 
HETATM   28  H20 UNL     1      23.526   6.489  52.219  1.00  0.00     0.159 HD
HETATM   29  C23 UNL     1      24.743   1.545  53.096  1.00  0.00     0.172 C 
ENDBRANCH  18  19
ENDBRANCH   1  18
BRANCH  17  30
HETATM   30  O3  UNL     1      28.563   9.591  47.282  1.00  0.00    -0.376 OA
HETATM   31  H19 UNL     1      27.758   9.994  46.881  1.00  0.00     0.212 HD
ENDBRANCH  17  30
TORSDOF 3
ENDMDL
MODEL 4
REMARK VINA RESULT:      -8.2      4.945      8.197
REMARK  3 active torsions:
REMARK  status: ('A' for Active; 'I' for Inactive)
REMARK    1  A    between atoms: C3_3  and  C4_4 
REMARK    2  A    between atoms: C4_4  and  C5_5 
REMARK    3  A    between atoms: C18_21  and  O3_22 
ROOT
HETATM    1  C5  UNL     1      29.515   8.215  48.261  1.00  0.00     0.042 C 
HETATM    2  C6  UNL     1      30.526   9.304  48.676  1.00  0.00     0.256 C 
HETATM    3  O1  UNL     1      30.285  10.089  49.567  1.00  0.00    -0.267 OA
HETATM    4  N1  UNL     1      31.630   9.031  47.759  1.00  0.00    -0.316 N 
HETATM    5  C7  UNL     1      30.903   8.858  46.446  1.00  0.00     0.168 C 
HETATM    6  C8  UNL     1      30.345   7.583  47.172  1.00  0.00    -0.024 C 
HETATM    7  C9  UNL     1      30.632   6.255  47.031  1.00  0.00     0.010 C 
HETATM    8  C10 UNL     1      32.058   5.724  46.860  1.00  0.00     0.004 C 
HETATM    9  C11 UNL     1      33.242   6.366  47.178  1.00  0.00    -0.066 C 
HETATM   10  C12 UNL     1      33.751   5.399  46.137  1.00  0.00     0.061 C 
HETATM   11  C13 UNL     1      34.445   4.327  46.904  1.00  0.00    -0.024 C 
HETATM   12  C14 UNL     1      35.029   4.217  48.117  1.00  0.00    -0.005 C 
HETATM   13  C15 UNL     1      35.120   5.343  49.124  1.00  0.00     0.194 C 
HETATM   14  O2  UNL     1      35.688   6.415  48.513  1.00  0.00    -0.387 OA
HETATM   15  C16 UNL     1      34.986   7.554  48.357  1.00  0.00     0.181 C 
HETATM   16  C17 UNL     1      33.501   7.442  48.160  1.00  0.00     0.087 C 
HETATM   17  C18 UNL     1      32.983   8.826  48.005  1.00  0.00     0.233 C 
ENDROOT
BRANCH   1  18
HETATM   18  C4  UNL     1      28.409   7.622  48.493  1.00  0.00     0.047 C 
BRANCH  18  19
HETATM   19  C3  UNL     1      27.098   7.147  48.786  1.00  0.00     0.034 C 
HETATM   20  C2  UNL     1      26.636   5.919  48.898  1.00  0.00    -0.023 C 
HETATM   21  C1  UNL     1      27.622   4.826  48.693  1.00  0.00     0.049 C 
HETATM   22  C21 UNL     1      25.223   5.772  49.199  1.00  0.00     0.089 C 
HETATM   23  C20 UNL     1      24.296   6.776  48.558  1.00  0.00     0.062 C 
HETATM   24  C22 UNL     1      24.675   4.367  49.040  1.00  0.00     0.069 C 
HETATM   25  O4  UNL     1      25.000   5.684  50.561  1.00  0.00    -0.375 OA
HETATM   26  C19 UNL     1      24.761   8.185  48.776  1.00  0.00     0.123 C 
HETATM   27  N2  UNL     1      26.177   8.170  49.044  1.00  0.00    -0.390 N 
HETATM   28  H20 UNL     1      26.449   9.082  49.493  1.00  0.00     0.159 HD
HETATM   29  C23 UNL     1      24.865   4.272  50.517  1.00  0.00     0.172 C 
ENDBRANCH  18  19
ENDBRANCH   1  18
BRANCH  17  30
HETATM   30  O3  UNL     1      33.717   9.477  47.021  1.00  0.00    -0.376 OA
HETATM   31  H19 UNL     1      33.215   9.665  46.194  1.00  0.00     0.212 HD
ENDBRANCH  17  30
TORSDOF 3
ENDMDL
MODEL 5
REMARK VINA RESULT:      -8.1      3.845      5.952
REMARK  3 active torsions:
REMARK  status: ('A' for Active; 'I' for Inactive)
REMARK    1  A    between atoms: C3_3  and  C4_4 
REMARK    2  A    between atoms: C4_4  and  C5_5 
REMARK    3  A    between atoms: C18_21  and  O3_22 
ROOT
HETATM    1  C5  UNL     1      26.343   7.733  49.785  1.00  0.00     0.042 C 
HETATM    2  C6  UNL     1      27.130   9.028  50.075  1.00  0.00     0.256 C 
HETATM    3  O1  UNL     1      26.862   9.737  51.020  1.00  0.00    -0.267 OA
HETATM    4  N1  UNL     1      28.104   9.018  48.985  1.00  0.00    -0.316 N 
HETATM    5  C7  UNL     1      27.233   8.680  47.799  1.00  0.00     0.168 C 
HETATM    6  C8  UNL     1      27.108   7.310  48.556  1.00  0.00    -0.024 C 
HETATM    7  C9  UNL     1      27.666   6.085  48.323  1.00  0.00     0.010 C 
HETATM    8  C10 UNL     1      29.129   5.901  47.911  1.00  0.00     0.004 C 
HETATM    9  C11 UNL     1      30.170   6.801  48.061  1.00  0.00    -0.066 C 
HETATM   10  C12 UNL     1      30.711   5.978  46.918  1.00  0.00     0.061 C 
HETATM   11  C13 UNL     1      31.748   5.098  47.526  1.00  0.00    -0.024 C 
HETATM   12  C14 UNL     1      32.530   5.127  48.627  1.00  0.00    -0.005 C 
HETATM   13  C15 UNL     1      32.521   6.245  49.648  1.00  0.00     0.194 C 
HETATM   14  O2  UNL     1      32.722   7.419  48.995  1.00  0.00    -0.387 OA
HETATM   15  C16 UNL     1      31.761   8.363  48.993  1.00  0.00     0.181 C 
HETATM   16  C17 UNL     1      30.330   7.909  49.028  1.00  0.00     0.087 C 
HETATM   17  C18 UNL     1      29.490   9.135  49.008  1.00  0.00     0.233 C 
ENDROOT
BRANCH   1  18
HETATM   18  C4  UNL     1      25.456   6.899  50.166  1.00  0.00     0.047 C 
BRANCH  18  19
HETATM   19  C3  UNL     1      24.487   5.882  50.407  1.00  0.00     0.034 C 
HETATM   20  C2  UNL     1      23.651   5.283  49.583  1.00  0.00    -0.023 C 
HETATM   21  C1  UNL     1      23.705   5.717  48.163  1.00  0.00     0.049 C 
HETATM   22  C21 UNL     1      22.771   4.279  50.154  1.00  0.00     0.089 C 
HETATM   23  C20 UNL     1      22.252   4.559  51.543  1.00  0.00     0.062 C 
HETATM   24  C22 UNL     1      21.644   3.824  49.248  1.00  0.00     0.069 C 
HETATM   25  O4  UNL     1      23.322   3.014  50.072  1.00  0.00    -0.375 OA
HETATM   26  C19 UNL     1      23.355   4.924  52.490  1.00  0.00     0.123 C 
HETATM   27  N2  UNL     1      24.474   5.422  51.729  1.00  0.00    -0.390 N 
HETATM   28  H20 UNL     1      25.337   5.388  52.329  1.00  0.00     0.159 HD
HETATM   29  C23 UNL     1      22.540   2.672  48.939  1.00  0.00     0.172 C 
ENDBRANCH  18  19
ENDBRANCH   1  18
BRANCH  17  30
HETATM   30  O3  UNL     1      29.885   9.937  47.945  1.00  0.00    -0.376 OA
HETATM   31  H19 UNL     1      30.842  10.173  47.944  1.00  0.00     0.212 HD
ENDBRANCH  17  30
TORSDOF 3
ENDMDL
MODEL 6
REMARK VINA RESULT:      -8.0      2.149      3.108
REMARK  3 active torsions:
REMARK  status: ('A' for Active; 'I' for Inactive)
REMARK    1  A    between atoms: C3_3  and  C4_4 
REMARK    2  A    between atoms: C4_4  and  C5_5 
REMARK    3  A    between atoms: C18_21  and  O3_22 
ROOT
HETATM    1  C5  UNL     1      22.673   3.336  50.343  1.00  0.00     0.042 C 
HETATM    2  C6  UNL     1      21.633   4.390  49.909  1.00  0.00     0.256 C 
HETATM    3  O1  UNL     1      20.552   4.476  50.449  1.00  0.00    -0.267 OA
HETATM    4  N1  UNL     1      22.353   5.075  48.838  1.00  0.00    -0.316 N 
HETATM    5  C7  UNL     1      22.913   3.913  48.053  1.00  0.00     0.168 C 
HETATM    6  C8  UNL     1      23.755   3.714  49.363  1.00  0.00    -0.024 C 
HETATM    7  C9  UNL     1      25.065   3.973  49.653  1.00  0.00     0.010 C 
HETATM    8  C10 UNL     1      25.783   5.247  49.198  1.00  0.00     0.004 C 
HETATM    9  C11 UNL     1      25.212   6.441  48.793  1.00  0.00    -0.066 C 
HETATM   10  C12 UNL     1      26.547   6.552  48.099  1.00  0.00     0.061 C 
HETATM   11  C13 UNL     1      27.332   7.521  48.914  1.00  0.00    -0.024 C 
HETATM   12  C14 UNL     1      27.053   8.523  49.775  1.00  0.00    -0.005 C 
HETATM   13  C15 UNL     1      25.652   8.948  50.162  1.00  0.00     0.194 C 
HETATM   14  O2  UNL     1      24.957   9.206  49.025  1.00  0.00    -0.387 OA
HETATM   15  C16 UNL     1      23.883   8.458  48.705  1.00  0.00     0.181 C 
HETATM   16  C17 UNL     1      23.887   7.013  49.117  1.00  0.00     0.087 C 
HETATM   17  C18 UNL     1      22.607   6.427  48.638  1.00  0.00     0.233 C 
ENDROOT
BRANCH   1  18
HETATM   18  C4  UNL     1      23.006   2.421  51.168  1.00  0.00     0.047 C 
BRANCH  18  19
HETATM   19  C3  UNL     1      23.186   1.326  52.062  1.00  0.00     0.034 C 
HETATM   20  C2  UNL     1      22.365   0.797  52.946  1.00  0.00    -0.023 C 
HETATM   21  C1  UNL     1      21.021   1.422  53.050  1.00  0.00     0.049 C 
HETATM   22  C21 UNL     1      22.866  -0.325  53.720  1.00  0.00     0.089 C 
HETATM   23  C20 UNL     1      24.322  -0.267  54.114  1.00  0.00     0.062 C 
HETATM   24  C22 UNL     1      22.011  -0.718  54.908  1.00  0.00     0.069 C 
HETATM   25  O4  UNL     1      22.558  -1.533  53.123  1.00  0.00    -0.375 OA
HETATM   26  C19 UNL     1      25.208   0.030  52.941  1.00  0.00     0.123 C 
HETATM   27  N2  UNL     1      24.426   0.690  51.925  1.00  0.00    -0.390 N 
HETATM   28  H20 UNL     1      24.936   0.626  51.007  1.00  0.00     0.159 HD
HETATM   29  C23 UNL     1      21.463  -1.763  53.995  1.00  0.00     0.172 C 
ENDBRANCH  18  19
ENDBRANCH   1  18
BRANCH  17  30
HETATM   30  O3  UNL     1      22.457   6.712  47.287  1.00  0.00    -0.376 OA
HETATM   31  H19 UNL     1      21.570   6.491  46.918  1.00  0.00     0.212 HD
ENDBRANCH  17  30
TORSDOF 3
ENDMDL
MODEL 7
REMARK VINA RESULT:      -8.0      4.825      8.066
REMARK  3 active torsions:
REMARK  status: ('A' for Active; 'I' for Inactive)
REMARK    1  A    between atoms: C3_3  and  C4_4 
REMARK    2  A    between atoms: C4_4  and  C5_5 
REMARK    3  A    between atoms: C18_21  and  O3_22 
ROOT
HETATM    1  C5  UNL     1      29.825   6.293  48.271  1.00  0.00     0.042 C 
HETATM    2  C6  UNL     1      31.112   5.513  47.929  1.00  0.00     0.256 C 
HETATM    3  O1  UNL     1      31.077   4.358  47.565  1.00  0.00    -0.267 OA
HETATM    4  N1  UNL     1      32.132   6.531  48.167  1.00  0.00    -0.316 N 
HETATM    5  C7  UNL     1      31.691   7.103  49.493  1.00  0.00     0.168 C 
HETATM    6  C8  UNL     1      30.480   7.603  48.629  1.00  0.00    -0.024 C 
HETATM    7  C9  UNL     1      30.155   8.838  48.143  1.00  0.00     0.010 C 
HETATM    8  C10 UNL     1      31.186   9.790  47.530  1.00  0.00     0.004 C 
HETATM    9  C11 UNL     1      32.440   9.475  47.036  1.00  0.00    -0.066 C 
HETATM   10  C12 UNL     1      32.655  10.934  47.356  1.00  0.00     0.061 C 
HETATM   11  C13 UNL     1      32.614  11.632  46.040  1.00  0.00    -0.024 C 
HETATM   12  C14 UNL     1      32.822  11.295  44.749  1.00  0.00    -0.005 C 
HETATM   13  C15 UNL     1      33.207   9.907  44.283  1.00  0.00     0.194 C 
HETATM   14  O2  UNL     1      34.311   9.518  44.972  1.00  0.00    -0.387 OA
HETATM   15  C16 UNL     1      34.251   8.458  45.800  1.00  0.00     0.181 C 
HETATM   16  C17 UNL     1      32.953   8.192  46.507  1.00  0.00     0.087 C 
HETATM   17  C18 UNL     1      33.163   6.988  47.353  1.00  0.00     0.233 C 
ENDROOT
BRANCH   1  18
HETATM   18  C4  UNL     1      28.549   6.319  48.289  1.00  0.00     0.047 C 
BRANCH  18  19
HETATM   19  C3  UNL     1      27.142   6.326  48.513  1.00  0.00     0.034 C 
HETATM   20  C2  UNL     1      26.337   5.372  48.935  1.00  0.00    -0.023 C 
HETATM   21  C1  UNL     1      26.971   4.063  49.237  1.00  0.00     0.049 C 
HETATM   22  C21 UNL     1      24.927   5.704  49.048  1.00  0.00     0.089 C 
HETATM   23  C20 UNL     1      24.372   6.626  47.991  1.00  0.00     0.062 C 
HETATM   24  C22 UNL     1      24.004   4.520  49.258  1.00  0.00     0.069 C 
HETATM   25  O4  UNL     1      24.611   6.152  50.318  1.00  0.00    -0.375 OA
HETATM   26  C19 UNL     1      25.213   7.856  47.822  1.00  0.00     0.123 C 
HETATM   27  N2  UNL     1      26.546   7.574  48.293  1.00  0.00    -0.390 N 
HETATM   28  H20 UNL     1      27.046   8.483  48.467  1.00  0.00     0.159 HD
HETATM   29  C23 UNL     1      24.073   4.896  50.701  1.00  0.00     0.172 C 
ENDBRANCH  18  19
ENDBRANCH   1  18
BRANCH  17  30
HETATM   30  O3  UNL     1      34.296   7.177  48.136  1.00  0.00    -0.376 OA
HETATM   31  H19 UNL     1      34.333   8.046  48.599  1.00  0.00     0.212 HD
ENDBRANCH  17  30
TORSDOF 3
ENDMDL
MODEL 8
REMARK VINA RESULT:      -7.9      8.728     11.343
REMARK  3 active torsions:
REMARK  status: ('A' for Active; 'I' for Inactive)
REMARK    1  A    between atoms: C3_3  and  C4_4 
REMARK    2  A    between atoms: C4_4  and  C5_5 
REMARK    3  A    between atoms: C18_21  and  O3_22 
ROOT
HETATM    1  C5  UNL     1      16.553  -0.517  52.056  1.00  0.00     0.042 C 
HETATM    2  C6  UNL     1      15.318  -1.444  52.057  1.00  0.00     0.256 C 
HETATM    3  O1  UNL     1      15.381  -2.585  52.460  1.00  0.00    -0.267 OA
HETATM    4  N1  UNL     1      14.297  -0.557  51.505  1.00  0.00    -0.316 N 
HETATM    5  C7  UNL     1      15.024   0.058  50.333  1.00  0.00     0.168 C 
HETATM    6  C8  UNL     1      15.879   0.704  51.480  1.00  0.00    -0.024 C 
HETATM    7  C9  UNL     1      15.912   1.971  51.990  1.00  0.00     0.010 C 
HETATM    8  C10 UNL     1      14.650   2.796  52.254  1.00  0.00     0.004 C 
HETATM    9  C11 UNL     1      13.352   2.335  52.393  1.00  0.00    -0.066 C 
HETATM   10  C12 UNL     1      13.071   3.756  51.970  1.00  0.00     0.061 C 
HETATM   11  C13 UNL     1      12.662   4.461  53.217  1.00  0.00    -0.024 C 
HETATM   12  C14 UNL     1      12.139   4.108  54.412  1.00  0.00    -0.005 C 
HETATM   13  C15 UNL     1      11.800   2.686  54.805  1.00  0.00     0.194 C 
HETATM   14  O2  UNL     1      10.985   2.164  53.853  1.00  0.00    -0.387 OA
HETATM   15  C16 UNL     1      11.394   1.114  53.115  1.00  0.00     0.181 C 
HETATM   16  C17 UNL     1      12.861   1.002  52.807  1.00  0.00     0.087 C 
HETATM   17  C18 UNL     1      13.034  -0.222  51.982  1.00  0.00     0.233 C 
ENDROOT
BRANCH   1  18
HETATM   18  C4  UNL     1      17.770  -0.338  52.392  1.00  0.00     0.047 C 
BRANCH  18  19
HETATM   19  C3  UNL     1      19.172  -0.149  52.565  1.00  0.00     0.034 C 
HETATM   20  C2  UNL     1      20.059   0.443  51.792  1.00  0.00    -0.023 C 
HETATM   21  C1  UNL     1      19.543   1.021  50.525  1.00  0.00     0.049 C 
HETATM   22  C21 UNL     1      21.434   0.456  52.259  1.00  0.00     0.089 C 
HETATM   23  C20 UNL     1      21.904  -0.780  52.986  1.00  0.00     0.062 C 
HETATM   24  C22 UNL     1      22.458   0.886  51.227  1.00  0.00     0.069 C 
HETATM   25  O4  UNL     1      21.713   1.599  52.985  1.00  0.00    -0.375 OA
HETATM   26  C19 UNL     1      20.957  -1.181  54.078  1.00  0.00     0.123 C 
HETATM   27  N2  UNL     1      19.655  -0.634  53.787  1.00  0.00    -0.390 N 
HETATM   28  H20 UNL     1      19.078  -0.641  54.666  1.00  0.00     0.159 HD
HETATM   29  C23 UNL     1      22.360   2.222  51.886  1.00  0.00     0.172 C 
ENDBRANCH  18  19
ENDBRANCH   1  18
BRANCH  17  30
HETATM   30  O3  UNL     1      12.153  -0.174  50.910  1.00  0.00    -0.376 OA
HETATM   31  H19 UNL     1      12.345  -0.822  50.192  1.00  0.00     0.212 HD
ENDBRANCH  17  30
TORSDOF 3
ENDMDL
MODEL 9
REMARK VINA RESULT:      -7.8      5.617      8.846
REMARK  3 active torsions:
REMARK  status: ('A' for Active; 'I' for Inactive)
REMARK    1  A    between atoms: C3_3  and  C4_4 
REMARK    2  A    between atoms: C4_4  and  C5_5 
REMARK    3  A    between atoms: C18_21  and  O3_22 
ROOT
HETATM    1  C5  UNL     1      30.317   6.543  47.999  1.00  0.00     0.042 C 
HETATM    2  C6  UNL     1      31.650   5.880  48.407  1.00  0.00     0.256 C 
HETATM    3  O1  UNL     1      31.693   5.000  49.239  1.00  0.00    -0.267 OA
HETATM    4  N1  UNL     1      32.596   6.595  47.554  1.00  0.00    -0.316 N 
HETATM    5  C7  UNL     1      32.152   8.027  47.736  1.00  0.00     0.168 C 
HETATM    6  C8  UNL     1      30.881   7.501  46.979  1.00  0.00    -0.024 C 
HETATM    7  C9  UNL     1      30.448   7.673  45.695  1.00  0.00     0.010 C 
HETATM    8  C10 UNL     1      31.384   7.613  44.485  1.00  0.00     0.004 C 
HETATM    9  C11 UNL     1      32.643   7.042  44.418  1.00  0.00    -0.066 C 
HETATM   10  C12 UNL     1      32.755   8.033  43.285  1.00  0.00     0.061 C 
HETATM   11  C13 UNL     1      32.623   7.223  42.042  1.00  0.00    -0.024 C 
HETATM   12  C14 UNL     1      32.818   5.933  41.692  1.00  0.00    -0.005 C 
HETATM   13  C15 UNL     1      33.294   4.856  42.642  1.00  0.00     0.194 C 
HETATM   14  O2  UNL     1      34.444   5.281  43.226  1.00  0.00    -0.387 OA
HETATM   15  C16 UNL     1      34.490   5.489  44.556  1.00  0.00     0.181 C 
HETATM   16  C17 UNL     1      33.237   5.962  45.236  1.00  0.00     0.087 C 
HETATM   17  C18 UNL     1      33.564   6.119  46.677  1.00  0.00     0.233 C 
ENDROOT
BRANCH   1  18
HETATM   18  C4  UNL     1      29.045   6.557  48.089  1.00  0.00     0.047 C 
BRANCH  18  19
HETATM   19  C3  UNL     1      27.650   6.709  48.342  1.00  0.00     0.034 C 
HETATM   20  C2  UNL     1      26.745   5.823  48.705  1.00  0.00    -0.023 C 
HETATM   21  C1  UNL     1      27.226   4.430  48.892  1.00  0.00     0.049 C 
HETATM   22  C21 UNL     1      25.385   6.305  48.872  1.00  0.00     0.089 C 
HETATM   23  C20 UNL     1      24.928   7.366  47.901  1.00  0.00     0.062 C 
HETATM   24  C22 UNL     1      24.332   5.222  49.008  1.00  0.00     0.069 C 
HETATM   25  O4  UNL     1      25.137   6.684  50.179  1.00  0.00    -0.375 OA
HETATM   26  C19 UNL     1      25.905   8.500  47.810  1.00  0.00     0.123 C 
HETATM   27  N2  UNL     1      27.201   8.030  48.231  1.00  0.00    -0.390 N 
HETATM   28  H20 UNL     1      27.805   8.859  48.465  1.00  0.00     0.159 HD
HETATM   29  C23 UNL     1      24.461   5.472  50.474  1.00  0.00     0.172 C 
ENDBRANCH  18  19
ENDBRANCH   1  18
BRANCH  17  30
HETATM   30  O3  UNL     1      34.701   6.907  46.801  1.00  0.00    -0.376 OA
HETATM   31  H19 UNL     1      34.733   7.679  46.189  1.00  0.00     0.212 HD
ENDBRANCH  17  30
TORSDOF 3
ENDMDL
