MODEL 1
REMARK VINA RESULT:      -7.7      0.000      0.000
REMARK  5 active torsions:
REMARK  status: ('A' for Active; 'I' for Inactive)
REMARK    1  A    between atoms: C2_2  and  C3_4 
REMARK    2  A    between atoms: C3_4  and  C4_5 
REMARK    3  A    between atoms: C4_5  and  C5_6 
REMARK    4  A    between atoms: C6_7  and  C7_8 
REMARK    5  A    between atoms: C7_8  and  C8_9 
ROOT
HETATM    1  C7  UNL     1      26.277   0.666  52.834  1.00  0.00     0.203 C 
HETATM    2  C14 UNL     1      25.887   1.815  53.880  1.00  0.00     0.091 C 
HETATM    3  C15 UNL     1      25.717   0.774  54.989  1.00  0.00     0.258 A 
HETATM    4  C16 UNL     1      25.544  -0.609  54.742  1.00  0.00     0.282 A 
HETATM    5  N1  UNL     1      25.160   0.046  53.603  1.00  0.00     0.044 N 
HETATM    6  N2  UNL     1      24.205   0.636  52.772  1.00  0.00    -0.037 NA
HETATM    7  C17 UNL     1      24.502   1.942  53.240  1.00  0.00     0.138 C 
ENDROOT
BRANCH   1   8
HETATM    8  C6  UNL     1      25.974   1.050  51.488  1.00  0.00     0.019 C 
HETATM    9  C5  UNL     1      26.619   2.185  51.373  1.00  0.00    -0.004 C 
BRANCH   9  10
HETATM   10  C4  UNL     1      26.646   3.028  50.160  1.00  0.00    -0.015 C 
BRANCH  10  11
HETATM   11  C3  UNL     1      26.635   4.033  49.321  1.00  0.00     0.079 C 
BRANCH  11  12
HETATM   12  C2  UNL     1      27.708   4.731  48.644  1.00  0.00     0.064 A 
HETATM   13  C1  UNL     1      27.316   6.000  48.447  1.00  0.00     0.246 A 
HETATM   14  F1  UNL     1      28.623   5.470  48.024  1.00  0.00    -0.370 F 
ENDBRANCH  11  12
ENDBRANCH  10  11
ENDBRANCH   9  10
ENDBRANCH   1   8
BRANCH   1  15
HETATM   15  C8  UNL     1      27.586   0.129  53.111  1.00  0.00     0.006 A 
HETATM   16  C9  UNL     1      28.571   0.931  53.674  1.00  0.00     0.012 A 
HETATM   17  C10 UNL     1      29.846   0.451  53.956  1.00  0.00     0.001 A 
HETATM   18  C11 UNL     1      30.118  -0.883  53.654  1.00  0.00     0.002 A 
HETATM   19  C12 UNL     1      29.167  -1.715  53.093  1.00  0.00     0.024 A 
HETATM   20  C13 UNL     1      27.899  -1.187  52.828  1.00  0.00     0.043 A 
HETATM   21 CL1  UNL     1      26.656  -2.219  52.111  1.00  0.00    -0.084 Cl
ENDBRANCH   1  15
TORSDOF 5
ENDMDL
MODEL 2
REMARK VINA RESULT:      -7.3      3.575      6.242
REMARK  5 active torsions:
REMARK  status: ('A' for Active; 'I' for Inactive)
REMARK    1  A    between atoms: C2_2  and  C3_4 
REMARK    2  A    between atoms: C3_4  and  C4_5 
REMARK    3  A    between atoms: C4_5  and  C5_6 
REMARK    4  A    between atoms: C6_7  and  C7_8 
REMARK    5  A    between atoms: C7_8  and  C8_9 
ROOT
HETATM    1  C7  UNL     1      22.793   1.354  52.156  1.00  0.00     0.203 C 
HETATM    2  C14 UNL     1      21.803   0.245  51.558  1.00  0.00     0.091 C 
HETATM    3  C15 UNL     1      20.653   1.255  51.538  1.00  0.00     0.258 A 
HETATM    4  C16 UNL     1      20.654   2.454  52.290  1.00  0.00     0.282 A 
HETATM    5  N1  UNL     1      21.528   1.601  52.908  1.00  0.00     0.044 N 
HETATM    6  N2  UNL     1      21.855   0.632  53.859  1.00  0.00    -0.037 NA
HETATM    7  C17 UNL     1      21.714  -0.430  52.929  1.00  0.00     0.138 C 
ENDROOT
BRANCH   1   8
HETATM    8  C6  UNL     1      23.861   0.762  52.904  1.00  0.00     0.019 C 
HETATM    9  C5  UNL     1      24.835   0.745  52.028  1.00  0.00    -0.004 C 
BRANCH   9  10
HETATM   10  C4  UNL     1      26.195   0.225  52.279  1.00  0.00    -0.015 C 
BRANCH  10  11
HETATM   11  C3  UNL     1      27.221  -0.494  52.659  1.00  0.00     0.079 C 
BRANCH  11  12
HETATM   12  C2  UNL     1      28.125  -0.359  53.782  1.00  0.00     0.064 A 
HETATM   13  C1  UNL     1      29.285  -0.950  53.450  1.00  0.00     0.246 A 
HETATM   14  F1  UNL     1      29.038  -0.295  54.747  1.00  0.00    -0.370 F 
ENDBRANCH  11  12
ENDBRANCH  10  11
ENDBRANCH   9  10
ENDBRANCH   1   8
BRANCH   1  15
HETATM   15  C8  UNL     1      23.124   2.348  51.166  1.00  0.00     0.006 A 
HETATM   16  C9  UNL     1      22.963   2.075  49.813  1.00  0.00     0.012 A 
HETATM   17  C10 UNL     1      23.270   3.007  48.828  1.00  0.00     0.001 A 
HETATM   18  C11 UNL     1      23.755   4.249  49.238  1.00  0.00     0.002 A 
HETATM   19  C12 UNL     1      23.930   4.561  50.573  1.00  0.00     0.024 A 
HETATM   20  C13 UNL     1      23.606   3.592  51.528  1.00  0.00     0.043 A 
HETATM   21 CL1  UNL     1      23.815   3.954  53.246  1.00  0.00    -0.084 Cl
ENDBRANCH   1  15
TORSDOF 5
ENDMDL
MODEL 3
REMARK VINA RESULT:      -6.8      3.826      6.410
REMARK  5 active torsions:
REMARK  status: ('A' for Active; 'I' for Inactive)
REMARK    1  A    between atoms: C2_2  and  C3_4 
REMARK    2  A    between atoms: C3_4  and  C4_5 
REMARK    3  A    between atoms: C4_5  and  C5_6 
REMARK    4  A    between atoms: C6_7  and  C7_8 
REMARK    5  A    between atoms: C7_8  and  C8_9 
ROOT
HETATM    1  C7  UNL     1      22.994   2.330  51.601  1.00  0.00     0.203 C 
HETATM    2  C14 UNL     1      23.212   3.582  52.576  1.00  0.00     0.091 C 
HETATM    3  C15 UNL     1      21.895   4.204  52.105  1.00  0.00     0.258 A 
HETATM    4  C16 UNL     1      21.240   3.830  50.907  1.00  0.00     0.282 A 
HETATM    5  N1  UNL     1      22.556   3.483  50.761  1.00  0.00     0.044 N 
HETATM    6  N2  UNL     1      23.865   3.728  50.341  1.00  0.00    -0.037 NA
HETATM    7  C17 UNL     1      24.277   4.146  51.633  1.00  0.00     0.138 C 
ENDROOT
BRANCH   1   8
HETATM    8  C6  UNL     1      24.237   1.723  51.233  1.00  0.00     0.019 C 
HETATM    9  C5  UNL     1      24.495   0.970  52.273  1.00  0.00    -0.004 C 
BRANCH   9  10
HETATM   10  C4  UNL     1      25.685   0.108  52.424  1.00  0.00    -0.015 C 
BRANCH  10  11
HETATM   11  C3  UNL     1      26.892  -0.397  52.375  1.00  0.00     0.079 C 
BRANCH  11  12
HETATM   12  C2  UNL     1      27.986  -0.364  53.324  1.00  0.00     0.064 A 
HETATM   13  C1  UNL     1      27.518   0.145  54.476  1.00  0.00     0.246 A 
HETATM   14  F1  UNL     1      28.913  -0.286  54.275  1.00  0.00    -0.370 F 
ENDBRANCH  11  12
ENDBRANCH  10  11
ENDBRANCH   9  10
ENDBRANCH   1   8
BRANCH   1  15
HETATM   15  C8  UNL     1      21.933   1.477  52.074  1.00  0.00     0.006 A 
HETATM   16  C9  UNL     1      21.644   1.399  53.431  1.00  0.00     0.012 A 
HETATM   17  C10 UNL     1      20.629   0.588  53.927  1.00  0.00     0.001 A 
HETATM   18  C11 UNL     1      19.891  -0.161  53.011  1.00  0.00     0.002 A 
HETATM   19  C12 UNL     1      20.145  -0.113  51.652  1.00  0.00     0.024 A 
HETATM   20  C13 UNL     1      21.176   0.718  51.201  1.00  0.00     0.043 A 
HETATM   21 CL1  UNL     1      21.531   0.808  49.471  1.00  0.00    -0.084 Cl
ENDBRANCH   1  15
TORSDOF 5
ENDMDL
MODEL 4
REMARK VINA RESULT:      -6.7      5.135      7.576
REMARK  5 active torsions:
REMARK  status: ('A' for Active; 'I' for Inactive)
REMARK    1  A    between atoms: C2_2  and  C3_4 
REMARK    2  A    between atoms: C3_4  and  C4_5 
REMARK    3  A    between atoms: C4_5  and  C5_6 
REMARK    4  A    between atoms: C6_7  and  C7_8 
REMARK    5  A    between atoms: C7_8  and  C8_9 
ROOT
HETATM    1  C7  UNL     1      22.169   2.663  50.162  1.00  0.00     0.203 C 
HETATM    2  C14 UNL     1      22.164   1.724  48.864  1.00  0.00     0.091 C 
HETATM    3  C15 UNL     1      21.752   2.908  47.985  1.00  0.00     0.258 A 
HETATM    4  C16 UNL     1      21.183   4.099  48.497  1.00  0.00     0.282 A 
HETATM    5  N1  UNL     1      20.954   3.122  49.428  1.00  0.00     0.044 N 
HETATM    6  N2  UNL     1      20.173   2.124  50.013  1.00  0.00    -0.037 NA
HETATM    7  C17 UNL     1      20.847   1.088  49.315  1.00  0.00     0.138 C 
ENDROOT
BRANCH   1   8
HETATM    8  C6  UNL     1      21.932   1.913  51.358  1.00  0.00     0.019 C 
HETATM    9  C5  UNL     1      23.119   1.423  51.616  1.00  0.00    -0.004 C 
BRANCH   9  10
HETATM   10  C4  UNL     1      23.449   0.554  52.765  1.00  0.00    -0.015 C 
BRANCH  10  11
HETATM   11  C3  UNL     1      23.432  -0.362  53.700  1.00  0.00     0.079 C 
BRANCH  11  12
HETATM   12  C2  UNL     1      22.338  -1.077  54.324  1.00  0.00     0.064 A 
HETATM   13  C1  UNL     1      21.346  -0.199  54.547  1.00  0.00     0.246 A 
HETATM   14  F1  UNL     1      21.273  -1.628  54.899  1.00  0.00    -0.370 F 
ENDBRANCH  11  12
ENDBRANCH  10  11
ENDBRANCH   9  10
ENDBRANCH   1   8
BRANCH   1  15
HETATM   15  C8  UNL     1      23.282   3.579  50.140  1.00  0.00     0.006 A 
HETATM   16  C9  UNL     1      24.422   3.285  49.401  1.00  0.00     0.012 A 
HETATM   17  C10 UNL     1      25.516   4.141  49.355  1.00  0.00     0.001 A 
HETATM   18  C11 UNL     1      25.442   5.328  50.084  1.00  0.00     0.002 A 
HETATM   19  C12 UNL     1      24.328   5.659  50.833  1.00  0.00     0.024 A 
HETATM   20  C13 UNL     1      23.252   4.766  50.847  1.00  0.00     0.043 A 
HETATM   21 CL1  UNL     1      21.808   5.154  51.792  1.00  0.00    -0.084 Cl
ENDBRANCH   1  15
TORSDOF 5
ENDMDL
MODEL 5
REMARK VINA RESULT:      -6.7      4.360      7.027
REMARK  5 active torsions:
REMARK  status: ('A' for Active; 'I' for Inactive)
REMARK    1  A    between atoms: C2_2  and  C3_4 
REMARK    2  A    between atoms: C3_4  and  C4_5 
REMARK    3  A    between atoms: C4_5  and  C5_6 
REMARK    4  A    between atoms: C6_7  and  C7_8 
REMARK    5  A    between atoms: C7_8  and  C8_9 
ROOT
HETATM    1  C7  UNL     1      22.468   2.694  49.872  1.00  0.00     0.203 C 
HETATM    2  C14 UNL     1      22.532   2.061  48.402  1.00  0.00     0.091 C 
HETATM    3  C15 UNL     1      21.794   3.272  47.826  1.00  0.00     0.258 A 
HETATM    4  C16 UNL     1      21.041   4.174  48.616  1.00  0.00     0.282 A 
HETATM    5  N1  UNL     1      21.116   3.003  49.320  1.00  0.00     0.044 N 
HETATM    6  N2  UNL     1      20.625   1.756  49.712  1.00  0.00    -0.037 NA
HETATM    7  C17 UNL     1      21.430   1.064  48.771  1.00  0.00     0.138 C 
ENDROOT
BRANCH   1   8
HETATM    8  C6  UNL     1      22.515   1.684  50.886  1.00  0.00     0.019 C 
HETATM    9  C5  UNL     1      23.749   1.779  51.312  1.00  0.00    -0.004 C 
BRANCH   9  10
HETATM   10  C4  UNL     1      24.346   0.949  52.379  1.00  0.00    -0.015 C 
BRANCH  10  11
HETATM   11  C3  UNL     1      24.711  -0.045  53.149  1.00  0.00     0.079 C 
BRANCH  11  12
HETATM   12  C2  UNL     1      25.997  -0.683  53.349  1.00  0.00     0.064 A 
HETATM   13  C1  UNL     1      26.694  -0.572  52.206  1.00  0.00     0.246 A 
HETATM   14  F1  UNL     1      27.203  -1.238  53.418  1.00  0.00    -0.370 F 
ENDBRANCH  11  12
ENDBRANCH  10  11
ENDBRANCH   9  10
ENDBRANCH   1   8
BRANCH   1  15
HETATM   15  C8  UNL     1      23.355   3.824  49.994  1.00  0.00     0.006 A 
HETATM   16  C9  UNL     1      24.462   3.943  49.162  1.00  0.00     0.012 A 
HETATM   17  C10 UNL     1      25.341   5.017  49.248  1.00  0.00     0.001 A 
HETATM   18  C11 UNL     1      25.080   5.993  50.209  1.00  0.00     0.002 A 
HETATM   19  C12 UNL     1      23.991   5.913  51.057  1.00  0.00     0.024 A 
HETATM   20  C13 UNL     1      23.134   4.815  50.932  1.00  0.00     0.043 A 
HETATM   21 CL1  UNL     1      21.729   4.677  51.996  1.00  0.00    -0.084 Cl
ENDBRANCH   1  15
TORSDOF 5
ENDMDL
MODEL 6
REMARK VINA RESULT:      -6.6      6.182      9.572
REMARK  5 active torsions:
REMARK  status: ('A' for Active; 'I' for Inactive)
REMARK    1  A    between atoms: C2_2  and  C3_4 
REMARK    2  A    between atoms: C3_4  and  C4_5 
REMARK    3  A    between atoms: C4_5  and  C5_6 
REMARK    4  A    between atoms: C6_7  and  C7_8 
REMARK    5  A    between atoms: C7_8  and  C8_9 
ROOT
HETATM    1  C7  UNL     1      31.523   6.515  47.803  1.00  0.00     0.203 C 
HETATM    2  C14 UNL     1      32.534   6.023  48.944  1.00  0.00     0.091 C 
HETATM    3  C15 UNL     1      33.634   6.930  48.387  1.00  0.00     0.258 A 
HETATM    4  C16 UNL     1      33.613   7.470  47.079  1.00  0.00     0.282 A 
HETATM    5  N1  UNL     1      32.808   6.363  47.061  1.00  0.00     0.044 N 
HETATM    6  N2  UNL     1      32.570   5.004  46.845  1.00  0.00    -0.037 NA
HETATM    7  C17 UNL     1      32.718   4.686  48.220  1.00  0.00     0.138 C 
ENDROOT
BRANCH   1   8
HETATM    8  C6  UNL     1      30.519   5.533  47.526  1.00  0.00     0.019 C 
HETATM    9  C5  UNL     1      29.542   5.905  48.315  1.00  0.00    -0.004 C 
BRANCH   9  10
HETATM   10  C4  UNL     1      28.236   5.224  48.432  1.00  0.00    -0.015 C 
BRANCH  10  11
HETATM   11  C3  UNL     1      27.071   4.792  48.843  1.00  0.00     0.079 C 
BRANCH  11  12
HETATM   12  C2  UNL     1      26.688   3.583  49.544  1.00  0.00     0.064 A 
HETATM   13  C1  UNL     1      25.424   3.737  49.971  1.00  0.00     0.246 A 
HETATM   14  F1  UNL     1      26.229   2.525  50.206  1.00  0.00    -0.370 F 
ENDBRANCH  11  12
ENDBRANCH  10  11
ENDBRANCH   9  10
ENDBRANCH   1   8
BRANCH   1  15
HETATM   15  C8  UNL     1      31.101   7.875  48.030  1.00  0.00     0.006 A 
HETATM   16  C9  UNL     1      31.139   8.421  49.307  1.00  0.00     0.012 A 
HETATM   17  C10 UNL     1      30.741   9.728  49.566  1.00  0.00     0.001 A 
HETATM   18  C11 UNL     1      30.293  10.495  48.491  1.00  0.00     0.002 A 
HETATM   19  C12 UNL     1      30.239   9.991  47.205  1.00  0.00     0.024 A 
HETATM   20  C13 UNL     1      30.651   8.671  46.993  1.00  0.00     0.043 A 
HETATM   21 CL1  UNL     1      30.597   7.990  45.362  1.00  0.00    -0.084 Cl
ENDBRANCH   1  15
TORSDOF 5
ENDMDL
MODEL 7
REMARK VINA RESULT:      -6.6      3.868      6.000
REMARK  5 active torsions:
REMARK  status: ('A' for Active; 'I' for Inactive)
REMARK    1  A    between atoms: C2_2  and  C3_4 
REMARK    2  A    between atoms: C3_4  and  C4_5 
REMARK    3  A    between atoms: C4_5  and  C5_6 
REMARK    4  A    between atoms: C6_7  and  C7_8 
REMARK    5  A    between atoms: C7_8  and  C8_9 
ROOT
HETATM    1  C7  UNL     1      23.661   3.192  50.956  1.00  0.00     0.203 C 
HETATM    2  C14 UNL     1      23.877   1.681  51.440  1.00  0.00     0.091 C 
HETATM    3  C15 UNL     1      22.416   1.596  51.891  1.00  0.00     0.258 A 
HETATM    4  C16 UNL     1      21.605   2.732  52.124  1.00  0.00     0.282 A 
HETATM    5  N1  UNL     1      22.904   3.146  52.241  1.00  0.00     0.044 N 
HETATM    6  N2  UNL     1      24.056   3.426  52.978  1.00  0.00    -0.037 NA
HETATM    7  C17 UNL     1      24.644   2.172  52.670  1.00  0.00     0.138 C 
ENDROOT
BRANCH   1   8
HETATM    8  C6  UNL     1      24.885   3.935  50.977  1.00  0.00     0.019 C 
HETATM    9  C5  UNL     1      25.414   3.628  49.818  1.00  0.00    -0.004 C 
BRANCH   9  10
HETATM   10  C4  UNL     1      26.709   4.130  49.315  1.00  0.00    -0.015 C 
BRANCH  10  11
HETATM   11  C3  UNL     1      27.649   4.737  48.636  1.00  0.00     0.079 C 
BRANCH  11  12
HETATM   12  C2  UNL     1      27.883   6.140  48.363  1.00  0.00     0.064 A 
HETATM   13  C1  UNL     1      26.688   6.740  48.235  1.00  0.00     0.246 A 
HETATM   14  F1  UNL     1      27.977   7.442  48.109  1.00  0.00    -0.370 F 
ENDBRANCH  11  12
ENDBRANCH  10  11
ENDBRANCH   9  10
ENDBRANCH   1   8
BRANCH   1  15
HETATM   15  C8  UNL     1      22.849   3.250  49.766  1.00  0.00     0.006 A 
HETATM   16  C9  UNL     1      22.724   2.136  48.945  1.00  0.00     0.012 A 
HETATM   17  C10 UNL     1      21.951   2.151  47.789  1.00  0.00     0.001 A 
HETATM   18  C11 UNL     1      21.290   3.335  47.466  1.00  0.00     0.002 A 
HETATM   19  C12 UNL     1      21.388   4.467  48.255  1.00  0.00     0.024 A 
HETATM   20  C13 UNL     1      22.177   4.403  49.408  1.00  0.00     0.043 A 
HETATM   21 CL1  UNL     1      22.327   5.828  50.444  1.00  0.00    -0.084 Cl
ENDBRANCH   1  15
TORSDOF 5
ENDMDL
MODEL 8
REMARK VINA RESULT:      -6.6      4.440      5.828
REMARK  5 active torsions:
REMARK  status: ('A' for Active; 'I' for Inactive)
REMARK    1  A    between atoms: C2_2  and  C3_4 
REMARK    2  A    between atoms: C3_4  and  C4_5 
REMARK    3  A    between atoms: C4_5  and  C5_6 
REMARK    4  A    between atoms: C6_7  and  C7_8 
REMARK    5  A    between atoms: C7_8  and  C8_9 
ROOT
HETATM    1  C7  UNL     1      23.467   5.132  49.975  1.00  0.00     0.203 C 
HETATM    2  C14 UNL     1      23.276   6.463  50.846  1.00  0.00     0.091 C 
HETATM    3  C15 UNL     1      21.840   6.057  51.189  1.00  0.00     0.258 A 
HETATM    4  C16 UNL     1      21.106   5.094  50.456  1.00  0.00     0.282 A 
HETATM    5  N1  UNL     1      22.083   5.564  49.620  1.00  0.00     0.044 N 
HETATM    6  N2  UNL     1      22.561   6.419  48.626  1.00  0.00    -0.037 NA
HETATM    7  C17 UNL     1      23.158   7.296  49.568  1.00  0.00     0.138 C 
ENDROOT
BRANCH   1   8
HETATM    8  C6  UNL     1      24.458   5.304  48.956  1.00  0.00     0.019 C 
HETATM    9  C5  UNL     1      25.537   4.849  49.542  1.00  0.00    -0.004 C 
BRANCH   9  10
HETATM   10  C4  UNL     1      26.879   4.793  48.925  1.00  0.00    -0.015 C 
BRANCH  10  11
HETATM   11  C3  UNL     1      28.118   5.031  48.576  1.00  0.00     0.079 C 
BRANCH  11  12
HETATM   12  C2  UNL     1      28.720   6.148  47.877  1.00  0.00     0.064 A 
HETATM   13  C1  UNL     1      28.087   7.267  48.265  1.00  0.00     0.246 A 
HETATM   14  F1  UNL     1      29.194   7.245  47.293  1.00  0.00    -0.370 F 
ENDBRANCH  11  12
ENDBRANCH  10  11
ENDBRANCH   9  10
ENDBRANCH   1   8
BRANCH   1  15
HETATM   15  C8  UNL     1      23.549   3.964  50.816  1.00  0.00     0.006 A 
HETATM   16  C9  UNL     1      23.929   4.081  52.148  1.00  0.00     0.012 A 
HETATM   17  C10 UNL     1      24.021   2.979  52.991  1.00  0.00     0.001 A 
HETATM   18  C11 UNL     1      23.717   1.727  52.458  1.00  0.00     0.002 A 
HETATM   19  C12 UNL     1      23.335   1.566  51.139  1.00  0.00     0.024 A 
HETATM   20  C13 UNL     1      23.256   2.704  50.329  1.00  0.00     0.043 A 
HETATM   21 CL1  UNL     1      22.771   2.540  48.637  1.00  0.00    -0.084 Cl
ENDBRANCH   1  15
TORSDOF 5
ENDMDL
MODEL 9
REMARK VINA RESULT:      -6.5      6.268      9.345
REMARK  5 active torsions:
REMARK  status: ('A' for Active; 'I' for Inactive)
REMARK    1  A    between atoms: C2_2  and  C3_4 
REMARK    2  A    between atoms: C3_4  and  C4_5 
REMARK    3  A    between atoms: C4_5  and  C5_6 
REMARK    4  A    between atoms: C6_7  and  C7_8 
REMARK    5  A    between atoms: C7_8  and  C8_9 
ROOT
HETATM    1  C7  UNL     1      31.840   6.717  47.950  1.00  0.00     0.203 C 
HETATM    2  C14 UNL     1      31.908   8.317  47.987  1.00  0.00     0.091 C 
HETATM    3  C15 UNL     1      33.437   8.273  47.942  1.00  0.00     0.258 A 
HETATM    4  C16 UNL     1      34.194   7.120  48.264  1.00  0.00     0.282 A 
HETATM    5  N1  UNL     1      32.979   6.977  48.877  1.00  0.00     0.044 N 
HETATM    6  N2  UNL     1      32.117   7.102  49.968  1.00  0.00    -0.037 NA
HETATM    7  C17 UNL     1      31.555   8.308  49.477  1.00  0.00     0.138 C 
ENDROOT
BRANCH   1   8
HETATM    8  C6  UNL     1      30.639   6.224  48.555  1.00  0.00     0.019 C 
HETATM    9  C5  UNL     1      29.716   6.670  47.740  1.00  0.00    -0.004 C 
BRANCH   9  10
HETATM   10  C4  UNL     1      28.264   6.446  47.896  1.00  0.00    -0.015 C 
BRANCH  10  11
HETATM   11  C3  UNL     1      27.033   6.410  48.341  1.00  0.00     0.079 C 
BRANCH  11  12
HETATM   12  C2  UNL     1      26.270   5.351  48.969  1.00  0.00     0.064 A 
HETATM   13  C1  UNL     1      27.070   4.277  49.082  1.00  0.00     0.246 A 
HETATM   14  F1  UNL     1      25.669   4.310  49.537  1.00  0.00    -0.370 F 
ENDBRANCH  11  12
ENDBRANCH  10  11
ENDBRANCH   9  10
ENDBRANCH   1   8
BRANCH   1  15
HETATM   15  C8  UNL     1      32.207   6.208  46.652  1.00  0.00     0.006 A 
HETATM   16  C9  UNL     1      32.171   7.035  45.535  1.00  0.00     0.012 A 
HETATM   17  C10 UNL     1      32.518   6.582  44.267  1.00  0.00     0.001 A 
HETATM   18  C11 UNL     1      32.911   5.250  44.139  1.00  0.00     0.002 A 
HETATM   19  C12 UNL     1      32.961   4.394  45.223  1.00  0.00     0.024 A 
HETATM   20  C13 UNL     1      32.604   4.895  46.479  1.00  0.00     0.043 A 
HETATM   21 CL1  UNL     1      32.655   3.832  47.891  1.00  0.00    -0.084 Cl
ENDBRANCH   1  15
TORSDOF 5
ENDMDL
