MODEL 1
REMARK VINA RESULT:      -8.4      0.000      0.000
REMARK  4 active torsions:
REMARK  status: ('A' for Active; 'I' for Inactive)
REMARK    1  A    between atoms: C4_4  and  N1_5 
REMARK    2  A    between atoms: N1_5  and  C5_6 
REMARK    3  A    between atoms: C10_11  and  O1_12 
REMARK    4  A    between atoms: O1_12  and  C11_13 
ROOT
HETATM    1  C11 UNL     1      26.445   1.966  52.663  1.00  0.00     0.292 C 
HETATM    2  C12 UNL     1      27.656   2.297  53.415  1.00  0.00     0.085 C 
HETATM    3  N2  UNL     1      28.601   2.551  54.016  1.00  0.00    -0.195 NA
ENDROOT
BRANCH   1   4
HETATM    4  O1  UNL     1      25.342   1.904  53.554  1.00  0.00    -0.361 OA
BRANCH   4   5
HETATM    5  C10 UNL     1      24.095   2.252  53.080  1.00  0.00     0.127 C 
HETATM    6  C9  UNL     1      24.453   3.629  53.083  1.00  0.00     0.081 C 
HETATM    7  C8  UNL     1      23.336   4.606  52.584  1.00  0.00    -0.020 C 
HETATM    8  C7  UNL     1      21.935   4.866  52.601  1.00  0.00    -0.010 C 
HETATM    9  C20 UNL     1      23.800   5.689  51.610  1.00  0.00     0.067 C 
HETATM   10  C6  UNL     1      21.732   5.200  51.195  1.00  0.00    -0.021 C 
HETATM   11  C5  UNL     1      22.880   5.175  50.471  1.00  0.00     0.018 C 
HETATM   12  C19 UNL     1      20.421   5.435  50.480  1.00  0.00     0.163 C 
HETATM   13  N4  UNL     1      19.918   4.169  49.990  1.00  0.00    -0.353 N 
HETATM   14  C18 UNL     1      19.398   2.906  49.486  1.00  0.00     0.241 C 
HETATM   15  H19 UNL     1      19.153   4.782  49.540  1.00  0.00     0.163 HD
HETATM   16  C17 UNL     1      19.690   1.492  49.672  1.00  0.00     0.072 C 
HETATM   17  O2  UNL     1      18.459   3.135  48.675  1.00  0.00    -0.269 OA
HETATM   18  C16 UNL     1      20.343   0.512  50.347  1.00  0.00     0.008 C 
HETATM   19  C15 UNL     1      21.091   1.064  51.359  1.00  0.00     0.299 C 
HETATM   20  N3  UNL     1      22.584   0.973  51.475  1.00  0.00     0.090 NA
HETATM   21  C13 UNL     1      22.803   1.802  52.669  1.00  0.00     0.314 C 
HETATM   22  C14 UNL     1      23.063   1.749  50.293  1.00  0.00     0.310 C 
BRANCH  11  23
HETATM   23  N1  UNL     1      23.339   4.867  49.165  1.00  0.00    -0.359 N 
HETATM   24  H5  UNL     1      22.901   4.541  48.277  1.00  0.00     0.166 HD
BRANCH  23  25
HETATM   25  C4  UNL     1      24.749   5.031  48.991  1.00  0.00     0.032 A 
HETATM   26  C3  UNL     1      25.289   6.215  48.488  1.00  0.00     0.038 A 
HETATM   27  C2  UNL     1      26.640   6.431  48.305  1.00  0.00    -0.038 A 
HETATM   28  C1  UNL     1      27.144   7.733  47.758  1.00  0.00     0.050 C 
HETATM   29  C23 UNL     1      27.523   5.427  48.632  1.00  0.00     0.040 A 
HETATM   30  C22 UNL     1      27.066   4.241  49.130  1.00  0.00     0.026 A 
HETATM   31 CL1  UNL     1      29.257   5.609  48.432  1.00  0.00    -0.084 Cl
HETATM   32  C21 UNL     1      25.706   4.102  49.285  1.00  0.00     0.031 A 
ENDBRANCH  23  25
ENDBRANCH  11  23
ENDBRANCH   4   5
ENDBRANCH   1   4
TORSDOF 4
ENDMDL
MODEL 2
REMARK VINA RESULT:      -8.0      3.401      7.540
REMARK  4 active torsions:
REMARK  status: ('A' for Active; 'I' for Inactive)
REMARK    1  A    between atoms: C4_4  and  N1_5 
REMARK    2  A    between atoms: N1_5  and  C5_6 
REMARK    3  A    between atoms: C10_11  and  O1_12 
REMARK    4  A    between atoms: O1_12  and  C11_13 
ROOT
HETATM    1  C11 UNL     1      20.922   6.844  47.923  1.00  0.00     0.292 C 
HETATM    2  C12 UNL     1      21.828   6.778  46.776  1.00  0.00     0.085 C 
HETATM    3  N2  UNL     1      22.549   6.727  45.884  1.00  0.00    -0.195 NA
ENDROOT
BRANCH   1   4
HETATM    4  O1  UNL     1      21.577   7.495  49.001  1.00  0.00    -0.361 OA
BRANCH   4   5
HETATM    5  C10 UNL     1      22.548   6.803  49.694  1.00  0.00     0.127 C 
HETATM    6  C9  UNL     1      21.612   6.464  50.711  1.00  0.00     0.081 C 
HETATM    7  C8  UNL     1      22.186   5.587  51.875  1.00  0.00    -0.020 C 
HETATM    8  C7  UNL     1      23.323   5.370  52.707  1.00  0.00    -0.010 C 
HETATM    9  C20 UNL     1      21.310   4.410  52.302  1.00  0.00     0.067 C 
HETATM   10  C6  UNL     1      23.388   3.913  52.655  1.00  0.00    -0.021 C 
HETATM   11  C5  UNL     1      22.388   3.361  51.921  1.00  0.00     0.018 C 
HETATM   12  C19 UNL     1      24.472   3.015  53.207  1.00  0.00     0.163 C 
HETATM   13  N4  UNL     1      25.498   2.843  52.201  1.00  0.00    -0.353 N 
HETATM   14  C18 UNL     1      26.538   2.654  51.200  1.00  0.00     0.241 C 
HETATM   15  H19 UNL     1      25.919   2.156  52.918  1.00  0.00     0.163 HD
HETATM   16  C17 UNL     1      26.905   3.259  49.928  1.00  0.00     0.072 C 
HETATM   17  O2  UNL     1      27.295   1.710  51.557  1.00  0.00    -0.269 OA
HETATM   18  C16 UNL     1      26.743   4.251  49.015  1.00  0.00     0.008 C 
HETATM   19  C15 UNL     1      25.804   5.148  49.466  1.00  0.00     0.299 C 
HETATM   20  N3  UNL     1      24.507   5.456  48.778  1.00  0.00     0.090 NA
HETATM   21  C13 UNL     1      23.913   6.388  49.746  1.00  0.00     0.314 C 
HETATM   22  C14 UNL     1      23.759   4.167  48.875  1.00  0.00     0.310 C 
BRANCH  11  23
HETATM   23  N1  UNL     1      22.145   2.255  51.068  1.00  0.00    -0.359 N 
HETATM   24  H5  UNL     1      22.478   1.948  50.129  1.00  0.00     0.166 HD
BRANCH  23  25
HETATM   25  C4  UNL     1      21.214   1.308  51.597  1.00  0.00     0.032 A 
HETATM   26  C3  UNL     1      21.501   0.562  52.741  1.00  0.00     0.038 A 
HETATM   27  C2  UNL     1      20.638  -0.360  53.299  1.00  0.00    -0.038 A 
HETATM   28  C1  UNL     1      21.020  -1.122  54.532  1.00  0.00     0.050 C 
HETATM   29  C23 UNL     1      19.416  -0.571  52.702  1.00  0.00     0.040 A 
HETATM   30  C22 UNL     1      19.067   0.122  51.579  1.00  0.00     0.026 A 
HETATM   31 CL1  UNL     1      18.255  -1.725  53.337  1.00  0.00    -0.084 Cl
HETATM   32  C21 UNL     1      19.979   1.025  51.083  1.00  0.00     0.031 A 
ENDBRANCH  23  25
ENDBRANCH  11  23
ENDBRANCH   4   5
ENDBRANCH   1   4
TORSDOF 4
ENDMDL
MODEL 3
REMARK VINA RESULT:      -7.9      3.930      6.670
REMARK  4 active torsions:
REMARK  status: ('A' for Active; 'I' for Inactive)
REMARK    1  A    between atoms: C4_4  and  N1_5 
REMARK    2  A    between atoms: N1_5  and  C5_6 
REMARK    3  A    between atoms: C10_11  and  O1_12 
REMARK    4  A    between atoms: O1_12  and  C11_13 
ROOT
HETATM    1  C11 UNL     1      23.790   0.665  53.190  1.00  0.00     0.292 C 
HETATM    2  C12 UNL     1      24.799  -0.169  53.844  1.00  0.00     0.085 C 
HETATM    3  N2  UNL     1      25.597  -0.813  54.362  1.00  0.00    -0.195 NA
ENDROOT
BRANCH   1   4
HETATM    4  O1  UNL     1      24.353   1.933  52.891  1.00  0.00    -0.361 OA
BRANCH   4   5
HETATM    5  C10 UNL     1      23.798   2.672  51.868  1.00  0.00     0.127 C 
HETATM    6  C9  UNL     1      23.385   1.483  51.202  1.00  0.00     0.081 C 
HETATM    7  C8  UNL     1      22.616   1.709  49.857  1.00  0.00    -0.020 C 
HETATM    8  C7  UNL     1      22.557   2.509  48.679  1.00  0.00    -0.010 C 
HETATM    9  C20 UNL     1      21.360   0.858  49.670  1.00  0.00     0.067 C 
HETATM   10  C6  UNL     1      21.115   2.729  48.607  1.00  0.00    -0.021 C 
HETATM   11  C5  UNL     1      20.431   2.098  49.595  1.00  0.00     0.018 C 
HETATM   12  C19 UNL     1      20.365   3.642  47.665  1.00  0.00     0.163 C 
HETATM   13  N4  UNL     1      20.280   4.962  48.254  1.00  0.00    -0.353 N 
HETATM   14  C18 UNL     1      20.181   6.294  48.833  1.00  0.00     0.241 C 
HETATM   15  H19 UNL     1      19.668   5.177  47.393  1.00  0.00     0.163 HD
HETATM   16  C17 UNL     1      20.785   7.011  49.947  1.00  0.00     0.072 C 
HETATM   17  O2  UNL     1      19.341   6.971  48.180  1.00  0.00    -0.269 OA
HETATM   18  C16 UNL     1      21.723   7.074  50.926  1.00  0.00     0.008 C 
HETATM   19  C15 UNL     1      22.520   5.956  50.878  1.00  0.00     0.299 C 
HETATM   20  N3  UNL     1      22.656   4.947  51.980  1.00  0.00     0.090 NA
HETATM   21  C13 UNL     1      23.544   3.971  51.332  1.00  0.00     0.314 C 
HETATM   22  C14 UNL     1      21.294   4.339  52.052  1.00  0.00     0.310 C 
BRANCH  11  23
HETATM   23  N1  UNL     1      19.278   2.269  50.403  1.00  0.00    -0.359 N 
HETATM   24  H5  UNL     1      18.583   3.030  50.562  1.00  0.00     0.166 HD
BRANCH  23  25
HETATM   25  C4  UNL     1      18.966   1.136  51.218  1.00  0.00     0.032 A 
HETATM   26  C3  UNL     1      19.810   0.725  52.251  1.00  0.00     0.038 A 
HETATM   27  C2  UNL     1      19.557  -0.356  53.071  1.00  0.00    -0.038 A 
HETATM   28  C1  UNL     1      20.514  -0.734  54.162  1.00  0.00     0.050 C 
HETATM   29  C23 UNL     1      18.406  -1.085  52.872  1.00  0.00     0.040 A 
HETATM   30  C22 UNL     1      17.534  -0.741  51.880  1.00  0.00     0.026 A 
HETATM   31 CL1  UNL     1      18.001  -2.475  53.864  1.00  0.00    -0.084 Cl
HETATM   32  C21 UNL     1      17.855   0.349  51.105  1.00  0.00     0.031 A 
ENDBRANCH  23  25
ENDBRANCH  11  23
ENDBRANCH   4   5
ENDBRANCH   1   4
TORSDOF 4
ENDMDL
MODEL 4
REMARK VINA RESULT:      -7.8      3.090      6.562
REMARK  4 active torsions:
REMARK  status: ('A' for Active; 'I' for Inactive)
REMARK    1  A    between atoms: C4_4  and  N1_5 
REMARK    2  A    between atoms: N1_5  and  C5_6 
REMARK    3  A    between atoms: C10_11  and  O1_12 
REMARK    4  A    between atoms: O1_12  and  C11_13 
ROOT
HETATM    1  C11 UNL     1      16.439   0.472  50.348  1.00  0.00     0.292 C 
HETATM    2  C12 UNL     1      15.968   1.176  49.156  1.00  0.00     0.085 C 
HETATM    3  N2  UNL     1      15.608   1.723  48.213  1.00  0.00    -0.195 NA
ENDROOT
BRANCH   1   4
HETATM    4  O1  UNL     1      17.824   0.192  50.211  1.00  0.00    -0.361 OA
BRANCH   4   5
HETATM    5  C10 UNL     1      18.712   1.246  50.242  1.00  0.00     0.127 C 
HETATM    6  C9  UNL     1      19.000   0.994  51.613  1.00  0.00     0.081 C 
HETATM    7  C8  UNL     1      20.053   1.956  52.258  1.00  0.00    -0.020 C 
HETATM    8  C7  UNL     1      20.511   3.305  52.305  1.00  0.00    -0.010 C 
HETATM    9  C20 UNL     1      21.121   1.278  53.116  1.00  0.00     0.067 C 
HETATM   10  C6  UNL     1      21.951   3.075  52.240  1.00  0.00    -0.021 C 
HETATM   11  C5  UNL     1      22.280   1.759  52.203  1.00  0.00     0.018 C 
HETATM   12  C19 UNL     1      23.047   4.107  52.092  1.00  0.00     0.163 C 
HETATM   13  N4  UNL     1      23.279   4.350  50.683  1.00  0.00    -0.353 N 
HETATM   14  C18 UNL     1      23.528   4.604  49.272  1.00  0.00     0.241 C 
HETATM   15  H19 UNL     1      24.082   4.971  51.044  1.00  0.00     0.163 HD
HETATM   16  C17 UNL     1      22.872   4.298  48.009  1.00  0.00     0.072 C 
HETATM   17  O2  UNL     1      24.603   5.253  49.149  1.00  0.00    -0.269 OA
HETATM   18  C16 UNL     1      21.789   3.831  47.338  1.00  0.00     0.008 C 
HETATM   19  C15 UNL     1      20.807   3.475  48.231  1.00  0.00     0.299 C 
HETATM   20  N3  UNL     1      20.248   2.092  48.392  1.00  0.00     0.090 NA
HETATM   21  C13 UNL     1      19.329   2.312  49.519  1.00  0.00     0.314 C 
HETATM   22  C14 UNL     1      21.415   1.315  48.908  1.00  0.00     0.310 C 
BRANCH  11  23
HETATM   23  N1  UNL     1      23.256   0.894  51.647  1.00  0.00    -0.359 N 
HETATM   24  H5  UNL     1      23.354   0.347  50.764  1.00  0.00     0.166 HD
BRANCH  23  25
HETATM   25  C4  UNL     1      24.401   0.698  52.480  1.00  0.00     0.032 A 
HETATM   26  C3  UNL     1      25.554   1.470  52.327  1.00  0.00     0.038 A 
HETATM   27  C2  UNL     1      26.686   1.329  53.106  1.00  0.00    -0.038 A 
HETATM   28  C1  UNL     1      27.887   2.198  52.881  1.00  0.00     0.050 C 
HETATM   29  C23 UNL     1      26.695   0.374  54.097  1.00  0.00     0.040 A 
HETATM   30  C22 UNL     1      25.602  -0.418  54.304  1.00  0.00     0.026 A 
HETATM   31 CL1  UNL     1      28.088   0.121  55.135  1.00  0.00    -0.084 Cl
HETATM   32  C21 UNL     1      24.512  -0.217  53.488  1.00  0.00     0.031 A 
ENDBRANCH  23  25
ENDBRANCH  11  23
ENDBRANCH   4   5
ENDBRANCH   1   4
TORSDOF 4
ENDMDL
MODEL 5
REMARK VINA RESULT:      -7.7      6.111     10.751
REMARK  4 active torsions:
REMARK  status: ('A' for Active; 'I' for Inactive)
REMARK    1  A    between atoms: C4_4  and  N1_5 
REMARK    2  A    between atoms: N1_5  and  C5_6 
REMARK    3  A    between atoms: C10_11  and  O1_12 
REMARK    4  A    between atoms: O1_12  and  C11_13 
ROOT
HETATM    1  C11 UNL     1      31.710  11.797  44.721  1.00  0.00     0.292 C 
HETATM    2  C12 UNL     1      30.402  11.223  44.406  1.00  0.00     0.085 C 
HETATM    3  N2  UNL     1      29.372  10.773  44.171  1.00  0.00    -0.195 NA
ENDROOT
BRANCH   1   4
HETATM    4  O1  UNL     1      32.025  11.528  46.079  1.00  0.00    -0.361 OA
BRANCH   4   5
HETATM    5  C10 UNL     1      32.333  10.233  46.436  1.00  0.00     0.127 C 
HETATM    6  C9  UNL     1      31.575  10.359  47.634  1.00  0.00     0.081 C 
HETATM    7  C8  UNL     1      31.539   9.079  48.535  1.00  0.00    -0.020 C 
HETATM    8  C7  UNL     1      32.311   7.984  49.020  1.00  0.00    -0.010 C 
HETATM    9  C20 UNL     1      30.162   8.703  49.084  1.00  0.00     0.067 C 
HETATM   10  C6  UNL     1      31.345   6.905  48.840  1.00  0.00    -0.021 C 
HETATM   11  C5  UNL     1      30.152   7.334  48.353  1.00  0.00     0.018 C 
HETATM   12  C19 UNL     1      31.571   5.421  49.017  1.00  0.00     0.163 C 
HETATM   13  N4  UNL     1      32.043   4.864  47.766  1.00  0.00    -0.353 N 
HETATM   14  C18 UNL     1      32.513   4.286  46.516  1.00  0.00     0.241 C 
HETATM   15  H19 UNL     1      31.966   3.926  48.292  1.00  0.00     0.163 HD
HETATM   16  C17 UNL     1      33.016   4.782  45.243  1.00  0.00     0.072 C 
HETATM   17  O2  UNL     1      32.448   3.028  46.587  1.00  0.00    -0.269 OA
HETATM   18  C16 UNL     1      33.458   5.817  44.484  1.00  0.00     0.008 C 
HETATM   19  C15 UNL     1      33.473   6.969  45.234  1.00  0.00     0.299 C 
HETATM   20  N3  UNL     1      32.669   8.200  44.936  1.00  0.00     0.090 NA
HETATM   21  C13 UNL     1      33.024   9.030  46.096  1.00  0.00     0.314 C 
HETATM   22  C14 UNL     1      31.261   7.738  45.127  1.00  0.00     0.310 C 
BRANCH  11  23
HETATM   23  N1  UNL     1      29.098   6.898  47.511  1.00  0.00    -0.359 N 
HETATM   24  H5  UNL     1      28.940   6.839  46.482  1.00  0.00     0.166 HD
BRANCH  23  25
HETATM   25  C4  UNL     1      27.951   6.418  48.217  1.00  0.00     0.032 A 
HETATM   26  C3  UNL     1      27.812   5.070  48.551  1.00  0.00     0.038 A 
HETATM   27  C2  UNL     1      26.730   4.553  49.236  1.00  0.00    -0.038 A 
HETATM   28  C1  UNL     1      26.653   3.091  49.560  1.00  0.00     0.050 C 
HETATM   29  C23 UNL     1      25.718   5.404  49.620  1.00  0.00     0.040 A 
HETATM   30  C22 UNL     1      25.787   6.736  49.327  1.00  0.00     0.026 A 
HETATM   31 CL1  UNL     1      24.304   4.837  50.492  1.00  0.00    -0.084 Cl
HETATM   32  C21 UNL     1      26.897   7.176  48.642  1.00  0.00     0.031 A 
ENDBRANCH  23  25
ENDBRANCH  11  23
ENDBRANCH   4   5
ENDBRANCH   1   4
TORSDOF 4
ENDMDL
MODEL 6
REMARK VINA RESULT:      -7.4      3.137      5.909
REMARK  4 active torsions:
REMARK  status: ('A' for Active; 'I' for Inactive)
REMARK    1  A    between atoms: C4_4  and  N1_5 
REMARK    2  A    between atoms: N1_5  and  C5_6 
REMARK    3  A    between atoms: C10_11  and  O1_12 
REMARK    4  A    between atoms: O1_12  and  C11_13 
ROOT
HETATM    1  C11 UNL     1      22.575   8.135  50.161  1.00  0.00     0.292 C 
HETATM    2  C12 UNL     1      21.270   8.721  49.858  1.00  0.00     0.085 C 
HETATM    3  N2  UNL     1      20.241   9.170  49.613  1.00  0.00    -0.195 NA
ENDROOT
BRANCH   1   4
HETATM    4  O1  UNL     1      22.933   7.228  49.130  1.00  0.00    -0.361 OA
BRANCH   4   5
HETATM    5  C10 UNL     1      22.226   6.050  49.018  1.00  0.00     0.127 C 
HETATM    6  C9  UNL     1      23.436   5.308  48.906  1.00  0.00     0.081 C 
HETATM    7  C8  UNL     1      23.253   3.761  48.754  1.00  0.00    -0.020 C 
HETATM    8  C7  UNL     1      22.456   2.743  48.154  1.00  0.00    -0.010 C 
HETATM    9  C20 UNL     1      24.176   2.904  49.622  1.00  0.00     0.067 C 
HETATM   10  C6  UNL     1      22.321   1.837  49.290  1.00  0.00    -0.021 C 
HETATM   11  C5  UNL     1      22.992   2.261  50.392  1.00  0.00     0.018 C 
HETATM   12  C19 UNL     1      21.452   0.604  49.392  1.00  0.00     0.163 C 
HETATM   13  N4  UNL     1      20.140   0.990  49.869  1.00  0.00    -0.353 N 
HETATM   14  C18 UNL     1      18.817   1.359  50.351  1.00  0.00     0.241 C 
HETATM   15  H19 UNL     1      19.959  -0.073  49.872  1.00  0.00     0.163 HD
HETATM   16  C17 UNL     1      18.067   2.591  50.547  1.00  0.00     0.072 C 
HETATM   17  O2  UNL     1      18.189   0.317  50.683  1.00  0.00    -0.269 OA
HETATM   18  C16 UNL     1      17.951   3.930  50.362  1.00  0.00     0.008 C 
HETATM   19  C15 UNL     1      19.021   4.393  49.634  1.00  0.00     0.299 C 
HETATM   20  N3  UNL     1      20.022   5.401  50.119  1.00  0.00     0.090 NA
HETATM   21  C13 UNL     1      20.943   5.424  48.974  1.00  0.00     0.314 C 
HETATM   22  C14 UNL     1      20.708   4.685  51.235  1.00  0.00     0.310 C 
BRANCH  11  23
HETATM   23  N1  UNL     1      22.890   2.239  51.806  1.00  0.00    -0.359 N 
HETATM   24  H5  UNL     1      22.143   2.442  52.504  1.00  0.00     0.166 HD
BRANCH  23  25
HETATM   25  C4  UNL     1      24.096   1.849  52.469  1.00  0.00     0.032 A 
HETATM   26  C3  UNL     1      24.619   0.562  52.334  1.00  0.00     0.038 A 
HETATM   27  C2  UNL     1      25.781   0.134  52.945  1.00  0.00    -0.038 A 
HETATM   28  C1  UNL     1      26.280  -1.267  52.751  1.00  0.00     0.050 C 
HETATM   29  C23 UNL     1      26.477   1.015  53.741  1.00  0.00     0.040 A 
HETATM   30  C22 UNL     1      26.024   2.291  53.919  1.00  0.00     0.026 A 
HETATM   31 CL1  UNL     1      27.961   0.560  54.559  1.00  0.00    -0.084 Cl
HETATM   32  C21 UNL     1      24.860   2.644  53.276  1.00  0.00     0.031 A 
ENDBRANCH  23  25
ENDBRANCH  11  23
ENDBRANCH   4   5
ENDBRANCH   1   4
TORSDOF 4
ENDMDL
MODEL 7
REMARK VINA RESULT:      -7.3      6.762     11.063
REMARK  4 active torsions:
REMARK  status: ('A' for Active; 'I' for Inactive)
REMARK    1  A    between atoms: C4_4  and  N1_5 
REMARK    2  A    between atoms: N1_5  and  C5_6 
REMARK    3  A    between atoms: C10_11  and  O1_12 
REMARK    4  A    between atoms: O1_12  and  C11_13 
ROOT
HETATM    1  C11 UNL     1      29.472  10.974  47.891  1.00  0.00     0.292 C 
HETATM    2  C12 UNL     1      28.807  12.028  48.658  1.00  0.00     0.085 C 
HETATM    3  N2  UNL     1      28.294  12.864  49.256  1.00  0.00    -0.195 NA
ENDROOT
BRANCH   1   4
HETATM    4  O1  UNL     1      30.857  11.268  47.794  1.00  0.00    -0.361 OA
BRANCH   4   5
HETATM    5  C10 UNL     1      31.728  10.236  47.518  1.00  0.00     0.127 C 
HETATM    6  C9  UNL     1      31.362   9.573  48.723  1.00  0.00     0.081 C 
HETATM    7  C8  UNL     1      32.085   8.207  48.974  1.00  0.00    -0.020 C 
HETATM    8  C7  UNL     1      33.324   7.513  48.850  1.00  0.00    -0.010 C 
HETATM    9  C20 UNL     1      31.183   7.066  49.446  1.00  0.00     0.067 C 
HETATM   10  C6  UNL     1      32.839   6.242  48.321  1.00  0.00    -0.021 C 
HETATM   11  C5  UNL     1      31.488   6.197  48.197  1.00  0.00     0.018 C 
HETATM   12  C19 UNL     1      33.660   5.080  47.808  1.00  0.00     0.163 C 
HETATM   13  N4  UNL     1      33.924   5.276  46.398  1.00  0.00    -0.353 N 
HETATM   14  C18 UNL     1      34.196   5.453  44.980  1.00  0.00     0.241 C 
HETATM   15  H19 UNL     1      34.371   4.297  46.468  1.00  0.00     0.163 HD
HETATM   16  C17 UNL     1      34.077   6.528  44.005  1.00  0.00     0.072 C 
HETATM   17  O2  UNL     1      34.644   4.375  44.503  1.00  0.00    -0.269 OA
HETATM   18  C16 UNL     1      33.847   7.837  43.731  1.00  0.00     0.008 C 
HETATM   19  C15 UNL     1      33.633   8.526  44.901  1.00  0.00     0.299 C 
HETATM   20  N3  UNL     1      32.369   9.251  45.256  1.00  0.00     0.090 NA
HETATM   21  C13 UNL     1      32.698   9.698  46.617  1.00  0.00     0.314 C 
HETATM   22  C14 UNL     1      31.368   8.149  45.373  1.00  0.00     0.310 C 
BRANCH  11  23
HETATM   23  N1  UNL     1      30.488   5.634  47.365  1.00  0.00    -0.359 N 
HETATM   24  H5  UNL     1      30.476   5.058  46.496  1.00  0.00     0.166 HD
BRANCH  23  25
HETATM   25  C4  UNL     1      29.152   5.910  47.794  1.00  0.00     0.032 A 
HETATM   26  C3  UNL     1      28.522   7.118  47.488  1.00  0.00     0.038 A 
HETATM   27  C2  UNL     1      27.234   7.435  47.869  1.00  0.00    -0.038 A 
HETATM   28  C1  UNL     1      26.626   8.756  47.501  1.00  0.00     0.050 C 
HETATM   29  C23 UNL     1      26.512   6.517  48.598  1.00  0.00     0.040 A 
HETATM   30  C22 UNL     1      27.064   5.314  48.934  1.00  0.00     0.026 A 
HETATM   31 CL1  UNL     1      24.869   6.833  49.129  1.00  0.00    -0.084 Cl
HETATM   32  C21 UNL     1      28.352   5.070  48.516  1.00  0.00     0.031 A 
ENDBRANCH  23  25
ENDBRANCH  11  23
ENDBRANCH   4   5
ENDBRANCH   1   4
TORSDOF 4
ENDMDL
MODEL 8
REMARK VINA RESULT:      -7.1      5.383      9.302
REMARK  4 active torsions:
REMARK  status: ('A' for Active; 'I' for Inactive)
REMARK    1  A    between atoms: C4_4  and  N1_5 
REMARK    2  A    between atoms: N1_5  and  C5_6 
REMARK    3  A    between atoms: C10_11  and  O1_12 
REMARK    4  A    between atoms: O1_12  and  C11_13 
ROOT
HETATM    1  C11 UNL     1      33.892   7.182  47.950  1.00  0.00     0.292 C 
HETATM    2  C12 UNL     1      33.934   6.470  46.672  1.00  0.00     0.085 C 
HETATM    3  N2  UNL     1      33.954   5.913  45.668  1.00  0.00    -0.195 NA
ENDROOT
BRANCH   1   4
HETATM    4  O1  UNL     1      32.601   7.042  48.522  1.00  0.00    -0.361 OA
BRANCH   4   5
HETATM    5  C10 UNL     1      31.583   7.842  48.048  1.00  0.00     0.127 C 
HETATM    6  C9  UNL     1      30.759   6.703  47.828  1.00  0.00     0.081 C 
HETATM    7  C8  UNL     1      29.336   7.015  47.254  1.00  0.00    -0.020 C 
HETATM    8  C7  UNL     1      28.610   7.841  46.348  1.00  0.00    -0.010 C 
HETATM    9  C20 UNL     1      28.182   6.268  47.923  1.00  0.00     0.067 C 
HETATM   10  C6  UNL     1      27.463   8.173  47.187  1.00  0.00    -0.021 C 
HETATM   11  C5  UNL     1      27.505   7.578  48.406  1.00  0.00     0.018 C 
HETATM   12  C19 UNL     1      26.356   9.160  46.892  1.00  0.00     0.163 C 
HETATM   13  N4  UNL     1      26.756  10.470  47.361  1.00  0.00    -0.353 N 
HETATM   14  C18 UNL     1      27.139  11.794  47.830  1.00  0.00     0.241 C 
HETATM   15  H19 UNL     1      25.757  10.750  47.067  1.00  0.00     0.163 HD
HETATM   16  C17 UNL     1      28.358  12.440  48.295  1.00  0.00     0.072 C 
HETATM   17  O2  UNL     1      26.128  12.547  47.825  1.00  0.00    -0.269 OA
HETATM   18  C16 UNL     1      29.704  12.411  48.469  1.00  0.00     0.008 C 
HETATM   19  C15 UNL     1      30.211  11.235  47.969  1.00  0.00     0.299 C 
HETATM   20  N3  UNL     1      30.934  10.197  48.776  1.00  0.00     0.090 NA
HETATM   21  C13 UNL     1      31.145   9.168  47.747  1.00  0.00     0.314 C 
HETATM   22  C14 UNL     1      29.878   9.695  49.705  1.00  0.00     0.310 C 
BRANCH  11  23
HETATM   23  N1  UNL     1      27.129   7.821  49.752  1.00  0.00    -0.359 N 
HETATM   24  H5  UNL     1      27.572   8.271  50.581  1.00  0.00     0.166 HD
BRANCH  23  25
HETATM   25  C4  UNL     1      25.826   7.337  50.088  1.00  0.00     0.032 A 
HETATM   26  C3  UNL     1      25.485   5.993  49.934  1.00  0.00     0.038 A 
HETATM   27  C2  UNL     1      24.246   5.470  50.248  1.00  0.00    -0.038 A 
HETATM   28  C1  UNL     1      23.955   4.012  50.055  1.00  0.00     0.050 C 
HETATM   29  C23 UNL     1      23.276   6.312  50.743  1.00  0.00     0.040 A 
HETATM   30  C22 UNL     1      23.539   7.640  50.920  1.00  0.00     0.026 A 
HETATM   31 CL1  UNL     1      21.673   5.739  51.168  1.00  0.00    -0.084 Cl
HETATM   32  C21 UNL     1      24.797   8.086  50.586  1.00  0.00     0.031 A 
ENDBRANCH  23  25
ENDBRANCH  11  23
ENDBRANCH   4   5
ENDBRANCH   1   4
TORSDOF 4
ENDMDL
MODEL 9
REMARK VINA RESULT:      -7.0      2.813      6.797
REMARK  4 active torsions:
REMARK  status: ('A' for Active; 'I' for Inactive)
REMARK    1  A    between atoms: C4_4  and  N1_5 
REMARK    2  A    between atoms: N1_5  and  C5_6 
REMARK    3  A    between atoms: C10_11  and  O1_12 
REMARK    4  A    between atoms: O1_12  and  C11_13 
ROOT
HETATM    1  C11 UNL     1      17.866   3.528  46.744  1.00  0.00     0.292 C 
HETATM    2  C12 UNL     1      18.696   3.544  45.540  1.00  0.00     0.085 C 
HETATM    3  N2  UNL     1      19.354   3.547  44.599  1.00  0.00    -0.195 NA
ENDROOT
BRANCH   1   4
HETATM    4  O1  UNL     1      18.613   2.983  47.821  1.00  0.00    -0.361 OA
BRANCH   4   5
HETATM    5  C10 UNL     1      19.533   3.789  48.456  1.00  0.00     0.127 C 
HETATM    6  C9  UNL     1      19.431   3.011  49.643  1.00  0.00     0.081 C 
HETATM    7  C8  UNL     1      20.342   3.482  50.826  1.00  0.00    -0.020 C 
HETATM    8  C7  UNL     1      20.865   4.624  51.499  1.00  0.00    -0.010 C 
HETATM    9  C20 UNL     1      21.095   2.370  51.556  1.00  0.00     0.067 C 
HETATM   10  C6  UNL     1      22.251   4.198  51.661  1.00  0.00    -0.021 C 
HETATM   11  C5  UNL     1      22.484   2.950  51.180  1.00  0.00     0.018 C 
HETATM   12  C19 UNL     1      23.416   5.014  52.173  1.00  0.00     0.163 C 
HETATM   13  N4  UNL     1      24.028   5.712  51.060  1.00  0.00    -0.353 N 
HETATM   14  C18 UNL     1      24.658   6.417  49.954  1.00  0.00     0.241 C 
HETATM   15  H19 UNL     1      24.749   6.015  51.801  1.00  0.00     0.163 HD
HETATM   16  C17 UNL     1      24.338   6.707  48.564  1.00  0.00     0.072 C 
HETATM   17  O2  UNL     1      25.769   6.877  50.332  1.00  0.00    -0.269 OA
HETATM   18  C16 UNL     1      23.440   6.703  47.546  1.00  0.00     0.008 C 
HETATM   19  C15 UNL     1      22.234   6.216  47.991  1.00  0.00     0.299 C 
HETATM   20  N3  UNL     1      21.558   4.983  47.469  1.00  0.00     0.090 NA
HETATM   21  C13 UNL     1      20.392   4.927  48.363  1.00  0.00     0.314 C 
HETATM   22  C14 UNL     1      22.490   3.888  47.875  1.00  0.00     0.310 C 
BRANCH  11  23
HETATM   23  N1  UNL     1      23.510   2.198  50.552  1.00  0.00    -0.359 N 
HETATM   24  H5  UNL     1      23.710   1.871  49.583  1.00  0.00     0.166 HD
BRANCH  23  25
HETATM   25  C4  UNL     1      24.538   1.760  51.444  1.00  0.00     0.032 A 
HETATM   26  C3  UNL     1      24.287   0.813  52.439  1.00  0.00     0.038 A 
HETATM   27  C2  UNL     1      25.241   0.350  53.322  1.00  0.00    -0.038 A 
HETATM   28  C1  UNL     1      24.894  -0.670  54.364  1.00  0.00     0.050 C 
HETATM   29  C23 UNL     1      26.524   0.843  53.232  1.00  0.00     0.040 A 
HETATM   30  C22 UNL     1      26.842   1.772  52.284  1.00  0.00     0.026 A 
HETATM   31 CL1  UNL     1      27.803   0.315  54.313  1.00  0.00    -0.084 Cl
HETATM   32  C21 UNL     1      25.837   2.183  51.439  1.00  0.00     0.031 A 
ENDBRANCH  23  25
ENDBRANCH  11  23
ENDBRANCH   4   5
ENDBRANCH   1   4
TORSDOF 4
ENDMDL
