MODEL 1
REMARK VINA RESULT:      -8.5      0.000      0.000
REMARK  4 active torsions:
REMARK  status: ('A' for Active; 'I' for Inactive)
REMARK    1  A    between atoms: C5_5  and  C6_6 
REMARK    2  A    between atoms: C6_6  and  C7_7 
REMARK    3  A    between atoms: C7_7  and  N1_8 
REMARK    4  A    between atoms: N1_8  and  C8_9 
ROOT
HETATM    1  C8  UNL     1      22.691   4.961  51.667  1.00  0.00     0.046 A 
HETATM    2  C9  UNL     1      21.637   4.142  51.295  1.00  0.00     0.148 A 
HETATM    3  N2  UNL     1      21.719   2.795  51.394  1.00  0.00    -0.241 NA
HETATM    4  C10 UNL     1      22.818   2.176  51.857  1.00  0.00     0.133 A 
HETATM    5  C11 UNL     1      23.903   2.902  52.249  1.00  0.00    -0.005 A 
HETATM    6  C12 UNL     1      23.800   4.258  52.139  1.00  0.00     0.042 A 
HETATM    7  C13 UNL     1      25.155   2.325  52.769  1.00  0.00     0.089 C 
HETATM    8  C14 UNL     1      25.577   1.115  52.017  1.00  0.00     0.094 C 
HETATM    9  N3  UNL     1      26.058  -0.032  52.362  1.00  0.00    -0.275 NA
HETATM   10  C15 UNL     1      26.281  -0.325  53.735  1.00  0.00     0.135 C 
HETATM   11  C16 UNL     1      25.479  -0.569  54.738  1.00  0.00     0.135 C 
HETATM   12  N4  UNL     1      24.223  -0.472  54.120  1.00  0.00    -0.270 NA
HETATM   13  C17 UNL     1      23.154  -1.056  54.477  1.00  0.00     0.141 C 
HETATM   14  C18 UNL     1      21.915  -0.862  53.738  1.00  0.00     0.066 C 
HETATM   15 CL1  UNL     1      20.422  -1.646  54.195  1.00  0.00    -0.081 Cl
HETATM   16  C19 UNL     1      21.845  -0.092  52.690  1.00  0.00     0.115 C 
HETATM   17  N5  UNL     1      22.595   0.768  51.841  1.00  0.00    -0.349 N 
HETATM   18  H20 UNL     1      23.160   0.546  50.993  1.00  0.00     0.167 HD
ENDROOT
BRANCH   1  19
HETATM   19  N1  UNL     1      22.667   6.385  51.587  1.00  0.00    -0.388 N 
HETATM   20  H10 UNL     1      21.828   6.850  51.949  1.00  0.00     0.159 HD
BRANCH  19  21
HETATM   21  C7  UNL     1      23.845   6.989  50.997  1.00  0.00     0.124 C 
BRANCH  21  22
HETATM   22  C6  UNL     1      24.044   6.564  49.568  1.00  0.00     0.059 C 
BRANCH  22  23
HETATM   23  C5  UNL     1      25.397   6.153  49.215  1.00  0.00    -0.039 A 
HETATM   24  C4  UNL     1      25.920   4.876  49.244  1.00  0.00     0.010 A 
HETATM   25  C3  UNL     1      27.221   4.582  48.889  1.00  0.00     0.027 A 
HETATM   26  C2  UNL     1      28.016   5.661  48.486  1.00  0.00     0.030 A 
HETATM   27  C1  UNL     1      29.441   5.430  48.084  1.00  0.00     0.070 C 
HETATM   28  N6  UNL     1      27.539   6.926  48.444  1.00  0.00    -0.265 NA
HETATM   29  C20 UNL     1      26.261   7.143  48.803  1.00  0.00     0.124 A 
ENDBRANCH  22  23
ENDBRANCH  21  22
ENDBRANCH  19  21
ENDBRANCH   1  19
TORSDOF 4
ENDMDL
MODEL 2
REMARK VINA RESULT:      -8.3      3.673      8.518
REMARK  4 active torsions:
REMARK  status: ('A' for Active; 'I' for Inactive)
REMARK    1  A    between atoms: C5_5  and  C6_6 
REMARK    2  A    between atoms: C6_6  and  C7_7 
REMARK    3  A    between atoms: C7_7  and  N1_8 
REMARK    4  A    between atoms: N1_8  and  C8_9 
ROOT
HETATM    1  C8  UNL     1      25.325   4.156  49.955  1.00  0.00     0.046 A 
HETATM    2  C9  UNL     1      26.441   3.423  49.588  1.00  0.00     0.148 A 
HETATM    3  N2  UNL     1      27.490   3.999  48.956  1.00  0.00    -0.241 NA
HETATM    4  C10 UNL     1      27.511   5.307  48.648  1.00  0.00     0.133 A 
HETATM    5  C11 UNL     1      26.455   6.107  48.972  1.00  0.00    -0.005 A 
HETATM    6  C12 UNL     1      25.408   5.505  49.608  1.00  0.00     0.042 A 
HETATM    7  C13 UNL     1      26.375   7.549  48.681  1.00  0.00     0.089 C 
HETATM    8  C14 UNL     1      26.891   7.884  47.329  1.00  0.00     0.094 C 
HETATM    9  N3  UNL     1      27.633   8.832  46.863  1.00  0.00    -0.275 NA
HETATM   10  C15 UNL     1      28.128   9.841  47.733  1.00  0.00     0.135 C 
HETATM   11  C16 UNL     1      29.038   9.844  48.671  1.00  0.00     0.135 C 
HETATM   12  N4  UNL     1      29.473   8.509  48.641  1.00  0.00    -0.270 NA
HETATM   13  C17 UNL     1      30.616   8.076  48.980  1.00  0.00     0.141 C 
HETATM   14  C18 UNL     1      30.930   6.657  48.897  1.00  0.00     0.066 C 
HETATM   15 CL1  UNL     1      32.491   6.018  49.354  1.00  0.00    -0.081 Cl
HETATM   16  C19 UNL     1      30.066   5.777  48.477  1.00  0.00     0.115 C 
HETATM   17  N5  UNL     1      28.740   5.606  47.993  1.00  0.00    -0.349 N 
HETATM   18  H20 UNL     1      28.371   5.663  47.019  1.00  0.00     0.167 HD
ENDROOT
BRANCH   1  19
HETATM   19  N1  UNL     1      24.189   3.608  50.622  1.00  0.00    -0.388 N 
HETATM   20  H10 UNL     1      23.427   3.269  50.026  1.00  0.00     0.159 HD
BRANCH  19  21
HETATM   21  C7  UNL     1      24.268   3.603  52.070  1.00  0.00     0.124 C 
BRANCH  21  22
HETATM   22  C6  UNL     1      24.158   2.214  52.638  1.00  0.00     0.059 C 
BRANCH  22  23
HETATM   23  C5  UNL     1      25.421   1.527  52.871  1.00  0.00    -0.039 A 
HETATM   24  C4  UNL     1      25.878   0.379  52.255  1.00  0.00     0.010 A 
HETATM   25  C3  UNL     1      27.097  -0.202  52.542  1.00  0.00     0.027 A 
HETATM   26  C2  UNL     1      27.877   0.436  53.514  1.00  0.00     0.030 A 
HETATM   27  C1  UNL     1      29.214  -0.129  53.887  1.00  0.00     0.070 C 
HETATM   28  N6  UNL     1      27.464   1.562  54.140  1.00  0.00    -0.265 NA
HETATM   29  C20 UNL     1      26.265   2.076  53.811  1.00  0.00     0.124 A 
ENDBRANCH  22  23
ENDBRANCH  21  22
ENDBRANCH  19  21
ENDBRANCH   1  19
TORSDOF 4
ENDMDL
MODEL 3
REMARK VINA RESULT:      -8.0      4.600      7.593
REMARK  4 active torsions:
REMARK  status: ('A' for Active; 'I' for Inactive)
REMARK    1  A    between atoms: C5_5  and  C6_6 
REMARK    2  A    between atoms: C6_6  and  C7_7 
REMARK    3  A    between atoms: C7_7  and  N1_8 
REMARK    4  A    between atoms: N1_8  and  C8_9 
ROOT
HETATM    1  C8  UNL     1      21.037   2.034  52.362  1.00  0.00     0.046 A 
HETATM    2  C9  UNL     1      20.438   3.278  52.247  1.00  0.00     0.148 A 
HETATM    3  N2  UNL     1      19.134   3.407  51.909  1.00  0.00    -0.241 NA
HETATM    4  C10 UNL     1      18.348   2.345  51.667  1.00  0.00     0.133 A 
HETATM    5  C11 UNL     1      18.852   1.081  51.758  1.00  0.00    -0.005 A 
HETATM    6  C12 UNL     1      20.168   0.974  52.098  1.00  0.00     0.042 A 
HETATM    7  C13 UNL     1      18.079  -0.150  51.514  1.00  0.00     0.089 C 
HETATM    8  C14 UNL     1      17.177  -0.029  50.340  1.00  0.00     0.094 C 
HETATM    9  N3  UNL     1      15.961  -0.391  50.104  1.00  0.00    -0.275 NA
HETATM   10  C15 UNL     1      15.212  -1.066  51.106  1.00  0.00     0.135 C 
HETATM   11  C16 UNL     1      14.680  -0.679  52.236  1.00  0.00     0.135 C 
HETATM   12  N4  UNL     1      15.034   0.680  52.259  1.00  0.00    -0.270 NA
HETATM   13  C17 UNL     1      14.411   1.616  52.846  1.00  0.00     0.141 C 
HETATM   14  C18 UNL     1      14.897   2.987  52.786  1.00  0.00     0.066 C 
HETATM   15 CL1  UNL     1      14.070   4.306  53.580  1.00  0.00    -0.081 Cl
HETATM   16  C19 UNL     1      15.977   3.314  52.136  1.00  0.00     0.115 C 
HETATM   17  N5  UNL     1      17.040   2.805  51.340  1.00  0.00    -0.349 N 
HETATM   18  H20 UNL     1      17.091   2.656  50.309  1.00  0.00     0.167 HD
ENDROOT
BRANCH   1  19
HETATM   19  N1  UNL     1      22.405   1.832  52.714  1.00  0.00    -0.388 N 
HETATM   20  H10 UNL     1      22.891   2.629  53.138  1.00  0.00     0.159 HD
BRANCH  19  21
HETATM   21  C7  UNL     1      22.928   0.512  52.421  1.00  0.00     0.124 C 
BRANCH  21  22
HETATM   22  C6  UNL     1      23.616  -0.100  53.611  1.00  0.00     0.059 C 
BRANCH  22  23
HETATM   23  C5  UNL     1      25.071  -0.154  53.538  1.00  0.00    -0.039 A 
HETATM   24  C4  UNL     1      25.860  -0.025  52.412  1.00  0.00     0.010 A 
HETATM   25  C3  UNL     1      27.239  -0.090  52.441  1.00  0.00     0.027 A 
HETATM   26  C2  UNL     1      27.826  -0.299  53.694  1.00  0.00     0.030 A 
HETATM   27  C1  UNL     1      29.317  -0.383  53.815  1.00  0.00     0.070 C 
HETATM   28  N6  UNL     1      27.087  -0.431  54.819  1.00  0.00    -0.265 NA
HETATM   29  C20 UNL     1      25.747  -0.357  54.720  1.00  0.00     0.124 A 
ENDBRANCH  22  23
ENDBRANCH  21  22
ENDBRANCH  19  21
ENDBRANCH   1  19
TORSDOF 4
ENDMDL
MODEL 4
REMARK VINA RESULT:      -7.9      4.415      9.327
REMARK  4 active torsions:
REMARK  status: ('A' for Active; 'I' for Inactive)
REMARK    1  A    between atoms: C5_5  and  C6_6 
REMARK    2  A    between atoms: C6_6  and  C7_7 
REMARK    3  A    between atoms: C7_7  and  N1_8 
REMARK    4  A    between atoms: N1_8  and  C8_9 
ROOT
HETATM    1  C8  UNL     1      26.389   5.119  49.112  1.00  0.00     0.046 A 
HETATM    2  C9  UNL     1      26.123   6.473  49.230  1.00  0.00     0.148 A 
HETATM    3  N2  UNL     1      27.059   7.406  48.942  1.00  0.00    -0.241 NA
HETATM    4  C10 UNL     1      28.294   7.078  48.526  1.00  0.00     0.133 A 
HETATM    5  C11 UNL     1      28.645   5.768  48.379  1.00  0.00    -0.005 A 
HETATM    6  C12 UNL     1      27.686   4.845  48.676  1.00  0.00     0.042 A 
HETATM    7  C13 UNL     1      29.968   5.299  47.931  1.00  0.00     0.089 C 
HETATM    8  C14 UNL     1      31.080   6.074  48.540  1.00  0.00     0.094 C 
HETATM    9  N3  UNL     1      32.188   6.556  48.088  1.00  0.00    -0.275 NA
HETATM   10  C15 UNL     1      32.540   6.371  46.723  1.00  0.00     0.135 C 
HETATM   11  C16 UNL     1      32.082   6.874  45.607  1.00  0.00     0.135 C 
HETATM   12  N4  UNL     1      31.068   7.722  46.078  1.00  0.00    -0.270 NA
HETATM   13  C17 UNL     1      30.634   8.772  45.514  1.00  0.00     0.141 C 
HETATM   14  C18 UNL     1      29.571   9.560  46.121  1.00  0.00     0.066 C 
HETATM   15 CL1  UNL     1      28.943  11.011  45.377  1.00  0.00    -0.081 Cl
HETATM   16  C19 UNL     1      29.024   9.231  47.256  1.00  0.00     0.115 C 
HETATM   17  N5  UNL     1      29.039   8.272  48.306  1.00  0.00    -0.349 N 
HETATM   18  H20 UNL     1      29.619   8.238  49.173  1.00  0.00     0.167 HD
ENDROOT
BRANCH   1  19
HETATM   19  N1  UNL     1      25.445   4.088  49.400  1.00  0.00    -0.388 N 
HETATM   20  H10 UNL     1      24.956   3.678  48.597  1.00  0.00     0.159 HD
BRANCH  19  21
HETATM   21  C7  UNL     1      25.304   3.756  50.804  1.00  0.00     0.124 C 
BRANCH  21  22
HETATM   22  C6  UNL     1      25.083   2.283  51.017  1.00  0.00     0.059 C 
BRANCH  22  23
HETATM   23  C5  UNL     1      26.129   1.590  51.759  1.00  0.00    -0.039 A 
HETATM   24  C4  UNL     1      26.159   0.258  52.118  1.00  0.00     0.010 A 
HETATM   25  C3  UNL     1      27.200  -0.313  52.824  1.00  0.00     0.027 A 
HETATM   26  C2  UNL     1      28.256   0.537  53.173  1.00  0.00     0.030 A 
HETATM   27  C1  UNL     1      29.425  -0.002  53.941  1.00  0.00     0.070 C 
HETATM   28  N6  UNL     1      28.262   1.847  52.839  1.00  0.00    -0.265 NA
HETATM   29  C20 UNL     1      27.216   2.339  52.150  1.00  0.00     0.124 A 
ENDBRANCH  22  23
ENDBRANCH  21  22
ENDBRANCH  19  21
ENDBRANCH   1  19
TORSDOF 4
ENDMDL
MODEL 5
REMARK VINA RESULT:      -7.7      3.609      9.269
REMARK  4 active torsions:
REMARK  status: ('A' for Active; 'I' for Inactive)
REMARK    1  A    between atoms: C5_5  and  C6_6 
REMARK    2  A    between atoms: C6_6  and  C7_7 
REMARK    3  A    between atoms: C7_7  and  N1_8 
REMARK    4  A    between atoms: N1_8  and  C8_9 
ROOT
HETATM    1  C8  UNL     1      25.512   4.697  49.801  1.00  0.00     0.046 A 
HETATM    2  C9  UNL     1      26.568   3.903  49.387  1.00  0.00     0.148 A 
HETATM    3  N2  UNL     1      27.656   4.433  48.781  1.00  0.00    -0.241 NA
HETATM    4  C10 UNL     1      27.776   5.750  48.547  1.00  0.00     0.133 A 
HETATM    5  C11 UNL     1      26.784   6.608  48.922  1.00  0.00    -0.005 A 
HETATM    6  C12 UNL     1      25.697   6.053  49.530  1.00  0.00     0.042 A 
HETATM    7  C13 UNL     1      26.813   8.067  48.714  1.00  0.00     0.089 C 
HETATM    8  C14 UNL     1      27.350   8.438  47.379  1.00  0.00     0.094 C 
HETATM    9  N3  UNL     1      28.161   9.351  46.961  1.00  0.00    -0.275 NA
HETATM   10  C15 UNL     1      28.733  10.269  47.883  1.00  0.00     0.135 C 
HETATM   11  C16 UNL     1      29.643  10.150  48.814  1.00  0.00     0.135 C 
HETATM   12  N4  UNL     1      29.975   8.791  48.707  1.00  0.00    -0.270 NA
HETATM   13  C17 UNL     1      31.083   8.253  49.013  1.00  0.00     0.141 C 
HETATM   14  C18 UNL     1      31.288   6.822  48.849  1.00  0.00     0.066 C 
HETATM   15 CL1  UNL     1      32.798   6.042  49.258  1.00  0.00    -0.081 Cl
HETATM   16  C19 UNL     1      30.359   6.035  48.386  1.00  0.00     0.115 C 
HETATM   17  N5  UNL     1      29.023   5.993  47.902  1.00  0.00    -0.349 N 
HETATM   18  H20 UNL     1      28.657   6.133  46.935  1.00  0.00     0.167 HD
ENDROOT
BRANCH   1  19
HETATM   19  N1  UNL     1      24.339   4.199  50.445  1.00  0.00    -0.388 N 
HETATM   20  H10 UNL     1      23.646   4.897  50.737  1.00  0.00     0.159 HD
BRANCH  19  21
HETATM   21  C7  UNL     1      24.285   2.759  50.600  1.00  0.00     0.124 C 
BRANCH  21  22
HETATM   22  C6  UNL     1      24.685   2.324  51.983  1.00  0.00     0.059 C 
BRANCH  22  23
HETATM   23  C5  UNL     1      23.792   1.369  52.627  1.00  0.00    -0.039 A 
HETATM   24  C4  UNL     1      22.413   1.413  52.676  1.00  0.00     0.010 A 
HETATM   25  C3  UNL     1      21.646   0.456  53.312  1.00  0.00     0.027 A 
HETATM   26  C2  UNL     1      22.342  -0.592  53.925  1.00  0.00     0.030 A 
HETATM   27  C1  UNL     1      21.587  -1.673  54.638  1.00  0.00     0.070 C 
HETATM   28  N6  UNL     1      23.692  -0.670  53.898  1.00  0.00    -0.265 NA
HETATM   29  C20 UNL     1      24.378   0.296  53.260  1.00  0.00     0.124 A 
ENDBRANCH  22  23
ENDBRANCH  21  22
ENDBRANCH  19  21
ENDBRANCH   1  19
TORSDOF 4
ENDMDL
MODEL 6
REMARK VINA RESULT:      -7.7      2.812      6.841
REMARK  4 active torsions:
REMARK  status: ('A' for Active; 'I' for Inactive)
REMARK    1  A    between atoms: C5_5  and  C6_6 
REMARK    2  A    between atoms: C6_6  and  C7_7 
REMARK    3  A    between atoms: C7_7  and  N1_8 
REMARK    4  A    between atoms: N1_8  and  C8_9 
ROOT
HETATM    1  C8  UNL     1      21.417   1.268  52.985  1.00  0.00     0.046 A 
HETATM    2  C9  UNL     1      20.245   1.771  52.443  1.00  0.00     0.148 A 
HETATM    3  N2  UNL     1      20.234   2.912  51.716  1.00  0.00    -0.241 NA
HETATM    4  C10 UNL     1      21.351   3.620  51.478  1.00  0.00     0.133 A 
HETATM    5  C11 UNL     1      22.551   3.200  51.971  1.00  0.00    -0.005 A 
HETATM    6  C12 UNL     1      22.539   2.049  52.701  1.00  0.00     0.042 A 
HETATM    7  C13 UNL     1      23.832   3.900  51.769  1.00  0.00     0.089 C 
HETATM    8  C14 UNL     1      23.699   5.374  51.899  1.00  0.00     0.094 C 
HETATM    9  N3  UNL     1      24.174   6.378  51.241  1.00  0.00    -0.275 NA
HETATM   10  C15 UNL     1      25.027   6.158  50.126  1.00  0.00     0.135 C 
HETATM   11  C16 UNL     1      24.818   5.704  48.918  1.00  0.00     0.135 C 
HETATM   12  N4  UNL     1      23.437   5.453  48.949  1.00  0.00    -0.270 NA
HETATM   13  C17 UNL     1      22.642   5.459  47.960  1.00  0.00     0.141 C 
HETATM   14  C18 UNL     1      21.225   5.179  48.141  1.00  0.00     0.066 C 
HETATM   15 CL1  UNL     1      20.096   5.178  46.808  1.00  0.00    -0.081 Cl
HETATM   16  C19 UNL     1      20.713   4.913  49.309  1.00  0.00     0.115 C 
HETATM   17  N5  UNL     1      21.014   4.759  50.690  1.00  0.00    -0.349 N 
HETATM   18  H20 UNL     1      21.052   5.473  51.450  1.00  0.00     0.167 HD
ENDROOT
BRANCH   1  19
HETATM   19  N1  UNL     1      21.494   0.072  53.759  1.00  0.00    -0.388 N 
HETATM   20  H10 UNL     1      20.777  -0.053  54.481  1.00  0.00     0.159 HD
BRANCH  19  21
HETATM   21  C7  UNL     1      22.588  -0.815  53.416  1.00  0.00     0.124 C 
BRANCH  21  22
HETATM   22  C6  UNL     1      23.610  -0.904  54.517  1.00  0.00     0.059 C 
BRANCH  22  23
HETATM   23  C5  UNL     1      24.976  -0.567  54.137  1.00  0.00    -0.039 A 
HETATM   24  C4  UNL     1      25.465  -0.357  52.864  1.00  0.00     0.010 A 
HETATM   25  C3  UNL     1      26.783  -0.039  52.600  1.00  0.00     0.027 A 
HETATM   26  C2  UNL     1      27.632   0.065  53.709  1.00  0.00     0.030 A 
HETATM   27  C1  UNL     1      29.078   0.405  53.512  1.00  0.00     0.070 C 
HETATM   28  N6  UNL     1      27.190  -0.134  54.971  1.00  0.00    -0.265 NA
HETATM   29  C20 UNL     1      25.893  -0.441  55.157  1.00  0.00     0.124 A 
ENDBRANCH  22  23
ENDBRANCH  21  22
ENDBRANCH  19  21
ENDBRANCH   1  19
TORSDOF 4
ENDMDL
MODEL 7
REMARK VINA RESULT:      -7.7      4.861      9.911
REMARK  4 active torsions:
REMARK  status: ('A' for Active; 'I' for Inactive)
REMARK    1  A    between atoms: C5_5  and  C6_6 
REMARK    2  A    between atoms: C6_6  and  C7_7 
REMARK    3  A    between atoms: C7_7  and  N1_8 
REMARK    4  A    between atoms: N1_8  and  C8_9 
ROOT
HETATM    1  C8  UNL     1      27.353   6.848  48.588  1.00  0.00     0.046 A 
HETATM    2  C9  UNL     1      27.710   8.126  48.986  1.00  0.00     0.148 A 
HETATM    3  N2  UNL     1      29.003   8.522  49.015  1.00  0.00    -0.241 NA
HETATM    4  C10 UNL     1      30.011   7.707  48.661  1.00  0.00     0.133 A 
HETATM    5  C11 UNL     1      29.754   6.431  48.254  1.00  0.00    -0.005 A 
HETATM    6  C12 UNL     1      28.443   6.052  48.234  1.00  0.00     0.042 A 
HETATM    7  C13 UNL     1      30.781   5.457  47.846  1.00  0.00     0.089 C 
HETATM    8  C14 UNL     1      31.979   5.495  48.725  1.00  0.00     0.094 C 
HETATM    9  N3  UNL     1      33.250   5.445  48.509  1.00  0.00    -0.275 NA
HETATM   10  C15 UNL     1      33.742   5.326  47.181  1.00  0.00     0.135 C 
HETATM   11  C16 UNL     1      33.791   6.152  46.169  1.00  0.00     0.135 C 
HETATM   12  N4  UNL     1      33.199   7.301  46.718  1.00  0.00    -0.270 NA
HETATM   13  C17 UNL     1      33.407   8.503  46.369  1.00  0.00     0.141 C 
HETATM   14  C18 UNL     1      32.718   9.601  47.030  1.00  0.00     0.066 C 
HETATM   15 CL1  UNL     1      32.975  11.270  46.580  1.00  0.00    -0.081 Cl
HETATM   16  C19 UNL     1      31.870   9.407  47.999  1.00  0.00     0.115 C 
HETATM   17  N5  UNL     1      31.243   8.411  48.798  1.00  0.00    -0.349 N 
HETATM   18  H20 UNL     1      31.561   7.968  49.687  1.00  0.00     0.167 HD
ENDROOT
BRANCH   1  19
HETATM   19  N1  UNL     1      26.009   6.370  48.535  1.00  0.00    -0.388 N 
HETATM   20  H10 UNL     1      25.476   6.595  47.689  1.00  0.00     0.159 HD
BRANCH  19  21
HETATM   21  C7  UNL     1      25.576   5.622  49.699  1.00  0.00     0.124 C 
BRANCH  21  22
HETATM   22  C6  UNL     1      24.975   4.294  49.326  1.00  0.00     0.059 C 
BRANCH  22  23
HETATM   23  C5  UNL     1      25.247   3.198  50.247  1.00  0.00    -0.039 A 
HETATM   24  C4  UNL     1      26.481   2.724  50.644  1.00  0.00     0.010 A 
HETATM   25  C3  UNL     1      26.642   1.675  51.527  1.00  0.00     0.027 A 
HETATM   26  C2  UNL     1      25.469   1.091  52.020  1.00  0.00     0.030 A 
HETATM   27  C1  UNL     1      25.553  -0.054  52.983  1.00  0.00     0.070 C 
HETATM   28  N6  UNL     1      24.242   1.528  51.655  1.00  0.00    -0.265 NA
HETATM   29  C20 UNL     1      24.158   2.556  50.791  1.00  0.00     0.124 A 
ENDBRANCH  22  23
ENDBRANCH  21  22
ENDBRANCH  19  21
ENDBRANCH   1  19
TORSDOF 4
ENDMDL
MODEL 8
REMARK VINA RESULT:      -7.4      4.216      9.645
REMARK  4 active torsions:
REMARK  status: ('A' for Active; 'I' for Inactive)
REMARK    1  A    between atoms: C5_5  and  C6_6 
REMARK    2  A    between atoms: C6_6  and  C7_7 
REMARK    3  A    between atoms: C7_7  and  N1_8 
REMARK    4  A    between atoms: N1_8  and  C8_9 
ROOT
HETATM    1  C8  UNL     1      26.497   5.076  49.117  1.00  0.00     0.046 A 
HETATM    2  C9  UNL     1      26.138   6.407  49.247  1.00  0.00     0.148 A 
HETATM    3  N2  UNL     1      26.994   7.405  48.929  1.00  0.00    -0.241 NA
HETATM    4  C10 UNL     1      28.235   7.166  48.472  1.00  0.00     0.133 A 
HETATM    5  C11 UNL     1      28.674   5.886  48.311  1.00  0.00    -0.005 A 
HETATM    6  C12 UNL     1      27.795   4.895  48.638  1.00  0.00     0.042 A 
HETATM    7  C13 UNL     1      30.012   5.513  47.818  1.00  0.00     0.089 C 
HETATM    8  C14 UNL     1      31.085   6.367  48.390  1.00  0.00     0.094 C 
HETATM    9  N3  UNL     1      32.140   6.928  47.902  1.00  0.00    -0.275 NA
HETATM   10  C15 UNL     1      32.458   6.768  46.526  1.00  0.00     0.135 C 
HETATM   11  C16 UNL     1      31.928   7.235  45.427  1.00  0.00     0.135 C 
HETATM   12  N4  UNL     1      30.872   8.009  45.933  1.00  0.00    -0.270 NA
HETATM   13  C17 UNL     1      30.344   9.024  45.386  1.00  0.00     0.141 C 
HETATM   14  C18 UNL     1      29.248   9.733  46.030  1.00  0.00     0.066 C 
HETATM   15 CL1  UNL     1      28.492  11.135  45.310  1.00  0.00    -0.081 Cl
HETATM   16  C19 UNL     1      28.764   9.366  47.182  1.00  0.00     0.115 C 
HETATM   17  N5  UNL     1      28.884   8.412  48.229  1.00  0.00    -0.349 N 
HETATM   18  H20 UNL     1      29.493   8.420  49.076  1.00  0.00     0.167 HD
ENDROOT
BRANCH   1  19
HETATM   19  N1  UNL     1      25.640   3.979  49.435  1.00  0.00    -0.388 N 
HETATM   20  H10 UNL     1      24.631   4.156  49.382  1.00  0.00     0.159 HD
BRANCH  19  21
HETATM   21  C7  UNL     1      26.320   2.750  49.792  1.00  0.00     0.124 C 
BRANCH  21  22
HETATM   22  C6  UNL     1      26.582   2.657  51.270  1.00  0.00     0.059 C 
BRANCH  22  23
HETATM   23  C5  UNL     1      25.767   1.692  51.996  1.00  0.00    -0.039 A 
HETATM   24  C4  UNL     1      26.109   0.402  52.349  1.00  0.00     0.010 A 
HETATM   25  C3  UNL     1      25.266  -0.444  53.041  1.00  0.00     0.027 A 
HETATM   26  C2  UNL     1      24.010   0.072  53.382  1.00  0.00     0.030 A 
HETATM   27  C1  UNL     1      23.032  -0.781  54.133  1.00  0.00     0.070 C 
HETATM   28  N6  UNL     1      23.638   1.330  53.053  1.00  0.00    -0.265 NA
HETATM   29  C20 UNL     1      24.509   2.101  52.379  1.00  0.00     0.124 A 
ENDBRANCH  22  23
ENDBRANCH  21  22
ENDBRANCH  19  21
ENDBRANCH   1  19
TORSDOF 4
ENDMDL
MODEL 9
REMARK VINA RESULT:      -7.4      4.738      7.548
REMARK  4 active torsions:
REMARK  status: ('A' for Active; 'I' for Inactive)
REMARK    1  A    between atoms: C5_5  and  C6_6 
REMARK    2  A    between atoms: C6_6  and  C7_7 
REMARK    3  A    between atoms: C7_7  and  N1_8 
REMARK    4  A    between atoms: N1_8  and  C8_9 
ROOT
HETATM    1  C8  UNL     1      20.651   0.139  52.174  1.00  0.00     0.046 A 
HETATM    2  C9  UNL     1      20.494  -0.617  53.323  1.00  0.00     0.148 A 
HETATM    3  N2  UNL     1      19.299  -1.154  53.660  1.00  0.00    -0.241 NA
HETATM    4  C10 UNL     1      18.200  -0.986  52.905  1.00  0.00     0.133 A 
HETATM    5  C11 UNL     1      18.261  -0.256  51.754  1.00  0.00    -0.005 A 
HETATM    6  C12 UNL     1      19.475   0.276  51.435  1.00  0.00     0.042 A 
HETATM    7  C13 UNL     1      17.119  -0.010  50.855  1.00  0.00     0.089 C 
HETATM    8  C14 UNL     1      15.867   0.285  51.598  1.00  0.00     0.094 C 
HETATM    9  N3  UNL     1      14.635  -0.076  51.458  1.00  0.00    -0.275 NA
HETATM   10  C15 UNL     1      14.266  -0.944  50.395  1.00  0.00     0.135 C 
HETATM   11  C16 UNL     1      14.469  -2.216  50.169  1.00  0.00     0.135 C 
HETATM   12  N4  UNL     1      15.202  -2.587  51.307  1.00  0.00    -0.270 NA
HETATM   13  C17 UNL     1      15.253  -3.741  51.834  1.00  0.00     0.141 C 
HETATM   14  C18 UNL     1      16.060  -3.983  53.021  1.00  0.00     0.066 C 
HETATM   15 CL1  UNL     1      16.158  -5.555  53.778  1.00  0.00    -0.081 Cl
HETATM   16  C19 UNL     1      16.758  -3.043  53.591  1.00  0.00     0.115 C 
HETATM   17  N5  UNL     1      17.110  -1.667  53.520  1.00  0.00    -0.349 N 
HETATM   18  H20 UNL     1      16.629  -0.832  53.919  1.00  0.00     0.167 HD
ENDROOT
BRANCH   1  19
HETATM   19  N1  UNL     1      21.884   0.731  51.764  1.00  0.00    -0.388 N 
HETATM   20  H10 UNL     1      22.027   0.837  50.754  1.00  0.00     0.159 HD
BRANCH  19  21
HETATM   21  C7  UNL     1      22.776   1.106  52.843  1.00  0.00     0.124 C 
BRANCH  21  22
HETATM   22  C6  UNL     1      23.941   1.923  52.356  1.00  0.00     0.059 C 
BRANCH  22  23
HETATM   23  C5  UNL     1      25.260   1.415  52.712  1.00  0.00    -0.039 A 
HETATM   24  C4  UNL     1      25.914   0.327  52.169  1.00  0.00     0.010 A 
HETATM   25  C3  UNL     1      27.170  -0.081  52.572  1.00  0.00     0.027 A 
HETATM   26  C2  UNL     1      27.774   0.674  53.585  1.00  0.00     0.030 A 
HETATM   27  C1  UNL     1      29.137   0.299  54.083  1.00  0.00     0.070 C 
HETATM   28  N6  UNL     1      27.165   1.745  54.142  1.00  0.00    -0.265 NA
HETATM   29  C20 UNL     1      25.941   2.088  53.701  1.00  0.00     0.124 A 
ENDBRANCH  22  23
ENDBRANCH  21  22
ENDBRANCH  19  21
ENDBRANCH   1  19
TORSDOF 4
ENDMDL
