MODEL 1
REMARK VINA RESULT:      -8.8      0.000      0.000
REMARK  3 active torsions:
REMARK  status: ('A' for Active; 'I' for Inactive)
REMARK    1  A    between atoms: O1_2  and  C2_3 
REMARK    2  A    between atoms: C2_3  and  N1_4 
REMARK    3  A    between atoms: N1_4  and  C3_5 
ROOT
HETATM    1  C3  UNL     1      23.722   2.614  52.830  1.00  0.00     0.141 A 
HETATM    2  N2  UNL     1      24.099   3.776  52.316  1.00  0.00    -0.224 NA
HETATM    3  C4  UNL     1      23.419   4.641  51.608  1.00  0.00     0.236 A 
HETATM    4  N3  UNL     1      22.162   4.235  51.407  1.00  0.00    -0.234 NA
HETATM    5  C5  UNL     1      21.718   3.101  51.882  1.00  0.00     0.114 A 
HETATM    6  S1  UNL     1      20.081   2.337  51.746  1.00  0.00    -0.072 SA
HETATM    7  C6  UNL     1      20.510   0.828  52.726  1.00  0.00     0.011 A 
HETATM    8  C7  UNL     1      21.843   1.011  53.079  1.00  0.00    -0.014 A 
HETATM    9  C8  UNL     1      22.451   2.157  52.651  1.00  0.00     0.054 A 
HETATM   10  C9  UNL     1      22.349  -0.119  53.892  1.00  0.00     0.109 C 
HETATM   11  C10 UNL     1      23.187  -1.078  53.064  1.00  0.00     0.025 C 
HETATM   12  C11 UNL     1      21.176  -0.954  54.345  1.00  0.00     0.226 C 
HETATM   13  O2  UNL     1      21.688  -1.888  55.064  1.00  0.00    -0.273 OA
HETATM   14  N4  UNL     1      19.769  -0.956  54.182  1.00  0.00    -0.356 N 
HETATM   15  C12 UNL     1      19.533  -0.179  52.958  1.00  0.00     0.169 C 
HETATM   16  H10 UNL     1      19.220  -1.458  54.892  1.00  0.00     0.162 HD
ENDROOT
BRANCH   1  17
HETATM   17  N1  UNL     1      24.763   1.966  53.525  1.00  0.00    -0.342 N 
HETATM   18  H4  UNL     1      24.813   1.746  54.527  1.00  0.00     0.164 HD
BRANCH  17  19
HETATM   19  C2  UNL     1      25.981   1.448  52.975  1.00  0.00     0.141 C 
HETATM   20  C13 UNL     1      27.175   2.276  53.493  1.00  0.00     0.088 C 
HETATM   21  C14 UNL     1      28.348   1.404  53.607  1.00  0.00    -0.026 C 
HETATM   22  C15 UNL     1      28.672   0.112  53.387  1.00  0.00    -0.030 C 
HETATM   23  C16 UNL     1      27.434  -0.584  52.877  1.00  0.00     0.036 C 
HETATM   24  C17 UNL     1      26.230   0.035  53.539  1.00  0.00     0.041 C 
HETATM   25  C18 UNL     1      26.318   0.046  55.024  1.00  0.00     0.015 C 
BRANCH  19  26
HETATM   26  O1  UNL     1      26.070   1.313  51.636  1.00  0.00    -0.365 OA
HETATM   27  C1  UNL     1      26.584   2.256  50.833  1.00  0.00     0.204 C 
ENDBRANCH  19  26
ENDBRANCH  17  19
ENDBRANCH   1  17
TORSDOF 3
ENDMDL
MODEL 2
REMARK VINA RESULT:      -8.3      2.495      5.852
REMARK  3 active torsions:
REMARK  status: ('A' for Active; 'I' for Inactive)
REMARK    1  A    between atoms: O1_2  and  C2_3 
REMARK    2  A    between atoms: C2_3  and  N1_4 
REMARK    3  A    between atoms: N1_4  and  C3_5 
ROOT
HETATM    1  C3  UNL     1      23.165   0.726  52.342  1.00  0.00     0.141 A 
HETATM    2  N2  UNL     1      21.916   0.285  52.404  1.00  0.00    -0.224 NA
HETATM    3  C4  UNL     1      21.358  -0.540  53.253  1.00  0.00     0.236 A 
HETATM    4  N3  UNL     1      22.229  -0.968  54.170  1.00  0.00    -0.234 NA
HETATM    5  C5  UNL     1      23.477  -0.577  54.173  1.00  0.00     0.114 A 
HETATM    6  S1  UNL     1      24.835  -1.010  55.292  1.00  0.00    -0.072 SA
HETATM    7  C6  UNL     1      26.100   0.040  54.445  1.00  0.00     0.011 A 
HETATM    8  C7  UNL     1      25.412   0.632  53.392  1.00  0.00    -0.014 A 
HETATM    9  C8  UNL     1      24.089   0.318  53.255  1.00  0.00     0.054 A 
HETATM   10  C9  UNL     1      26.289   1.529  52.606  1.00  0.00     0.109 C 
HETATM   11  C10 UNL     1      26.755   0.875  51.316  1.00  0.00     0.025 C 
HETATM   12  C11 UNL     1      27.564   1.762  53.381  1.00  0.00     0.226 C 
HETATM   13  O2  UNL     1      28.254   2.568  52.656  1.00  0.00    -0.273 OA
HETATM   14  N4  UNL     1      28.133   1.341  54.608  1.00  0.00    -0.356 N 
HETATM   15  C12 UNL     1      27.435   0.092  54.936  1.00  0.00     0.169 C 
HETATM   16  H10 UNL     1      28.867   1.940  55.009  1.00  0.00     0.162 HD
ENDROOT
BRANCH   1  17
HETATM   17  N1  UNL     1      23.376   1.605  51.261  1.00  0.00    -0.342 N 
HETATM   18  H4  UNL     1      23.884   1.422  50.387  1.00  0.00     0.164 HD
BRANCH  17  19
HETATM   19  C2  UNL     1      22.904   2.953  51.135  1.00  0.00     0.141 C 
HETATM   20  C13 UNL     1      23.532   3.826  52.240  1.00  0.00     0.088 C 
HETATM   21  C14 UNL     1      23.709   5.189  51.730  1.00  0.00    -0.026 C 
HETATM   22  C15 UNL     1      23.477   5.882  50.595  1.00  0.00    -0.030 C 
HETATM   23  C16 UNL     1      22.857   4.928  49.603  1.00  0.00     0.036 C 
HETATM   24  C17 UNL     1      23.444   3.558  49.824  1.00  0.00     0.041 C 
HETATM   25  C18 UNL     1      24.932   3.545  49.788  1.00  0.00     0.015 C 
BRANCH  19  26
HETATM   26  O1  UNL     1      21.572   3.161  51.096  1.00  0.00    -0.365 OA
HETATM   27  C1  UNL     1      20.843   3.475  52.176  1.00  0.00     0.204 C 
ENDBRANCH  19  26
ENDBRANCH  17  19
ENDBRANCH   1  17
TORSDOF 3
ENDMDL
MODEL 3
REMARK VINA RESULT:      -8.3      2.340      3.914
REMARK  3 active torsions:
REMARK  status: ('A' for Active; 'I' for Inactive)
REMARK    1  A    between atoms: O1_2  and  C2_3 
REMARK    2  A    between atoms: C2_3  and  N1_4 
REMARK    3  A    between atoms: N1_4  and  C3_5 
ROOT
HETATM    1  C3  UNL     1      23.254  -0.362  53.127  1.00  0.00     0.141 A 
HETATM    2  N2  UNL     1      23.611  -0.949  54.261  1.00  0.00    -0.224 NA
HETATM    3  C4  UNL     1      22.872  -1.419  55.232  1.00  0.00     0.236 A 
HETATM    4  N3  UNL     1      21.569  -1.252  54.986  1.00  0.00    -0.234 NA
HETATM    5  C5  UNL     1      21.141  -0.682  53.890  1.00  0.00     0.114 A 
HETATM    6  S1  UNL     1      19.451  -0.341  53.333  1.00  0.00    -0.072 SA
HETATM    7  C6  UNL     1      19.949   0.451  51.738  1.00  0.00     0.011 A 
HETATM    8  C7  UNL     1      21.339   0.401  51.745  1.00  0.00    -0.014 A 
HETATM    9  C8  UNL     1      21.938  -0.169  52.832  1.00  0.00     0.054 A 
HETATM   10  C9  UNL     1      21.909   0.992  50.513  1.00  0.00     0.109 C 
HETATM   11  C10 UNL     1      22.427   2.400  50.750  1.00  0.00     0.025 C 
HETATM   12  C11 UNL     1      20.801   1.173  49.504  1.00  0.00     0.226 C 
HETATM   13  O2  UNL     1      21.374   1.657  48.460  1.00  0.00    -0.273 OA
HETATM   14  N4  UNL     1      19.403   0.959  49.437  1.00  0.00    -0.356 N 
HETATM   15  C12 UNL     1      18.960   0.935  50.837  1.00  0.00     0.169 C 
HETATM   16  H10 UNL     1      18.991   0.865  48.499  1.00  0.00     0.162 HD
ENDROOT
BRANCH   1  17
HETATM   17  N1  UNL     1      24.361   0.016  52.341  1.00  0.00    -0.342 N 
HETATM   18  H4  UNL     1      24.393   0.166  51.325  1.00  0.00     0.164 HD
BRANCH  17  19
HETATM   19  C2  UNL     1      25.691   0.295  52.795  1.00  0.00     0.141 C 
HETATM   20  C13 UNL     1      26.493   0.970  51.664  1.00  0.00     0.088 C 
HETATM   21  C14 UNL     1      27.463   1.898  52.253  1.00  0.00    -0.026 C 
HETATM   22  C15 UNL     1      27.849   2.314  53.478  1.00  0.00    -0.030 C 
HETATM   23  C16 UNL     1      27.004   1.579  54.491  1.00  0.00     0.036 C 
HETATM   24  C17 UNL     1      25.633   1.363  53.904  1.00  0.00     0.041 C 
HETATM   25  C18 UNL     1      24.997   2.619  53.423  1.00  0.00     0.015 C 
BRANCH  19  26
HETATM   26  O1  UNL     1      26.412  -0.718  53.319  1.00  0.00    -0.365 OA
HETATM   27  C1  UNL     1      26.795  -1.792  52.614  1.00  0.00     0.204 C 
ENDBRANCH  19  26
ENDBRANCH  17  19
ENDBRANCH   1  17
TORSDOF 3
ENDMDL
MODEL 4
REMARK VINA RESULT:      -8.0      2.584      5.514
REMARK  3 active torsions:
REMARK  status: ('A' for Active; 'I' for Inactive)
REMARK    1  A    between atoms: O1_2  and  C2_3 
REMARK    2  A    between atoms: C2_3  and  N1_4 
REMARK    3  A    between atoms: N1_4  and  C3_5 
ROOT
HETATM    1  C3  UNL     1      23.004   1.710  51.077  1.00  0.00     0.141 A 
HETATM    2  N2  UNL     1      21.783   1.506  50.602  1.00  0.00    -0.224 NA
HETATM    3  C4  UNL     1      20.862   0.661  50.988  1.00  0.00     0.236 A 
HETATM    4  N3  UNL     1      21.275  -0.081  52.019  1.00  0.00    -0.234 NA
HETATM    5  C5  UNL     1      22.465   0.063  52.541  1.00  0.00     0.114 A 
HETATM    6  S1  UNL     1      23.250  -0.810  53.922  1.00  0.00    -0.072 SA
HETATM    7  C6  UNL     1      24.846   0.120  53.831  1.00  0.00     0.011 A 
HETATM    8  C7  UNL     1      24.670   1.011  52.778  1.00  0.00    -0.014 A 
HETATM    9  C8  UNL     1      23.469   0.979  52.127  1.00  0.00     0.054 A 
HETATM   10  C9  UNL     1      25.869   1.855  52.575  1.00  0.00     0.109 C 
HETATM   11  C10 UNL     1      26.711   1.369  51.407  1.00  0.00     0.025 C 
HETATM   12  C11 UNL     1      26.778   1.702  53.771  1.00  0.00     0.226 C 
HETATM   13  O2  UNL     1      27.772   2.483  53.538  1.00  0.00    -0.273 OA
HETATM   14  N4  UNL     1      26.797   0.969  54.982  1.00  0.00    -0.356 N 
HETATM   15  C12 UNL     1      25.897  -0.167  54.747  1.00  0.00     0.169 C 
HETATM   16  H10 UNL     1      27.388   1.338  55.740  1.00  0.00     0.162 HD
ENDROOT
BRANCH   1  17
HETATM   17  N1  UNL     1      23.698   2.715  50.373  1.00  0.00    -0.342 N 
HETATM   18  H4  UNL     1      24.511   2.607  49.754  1.00  0.00     0.164 HD
BRANCH  17  19
HETATM   19  C2  UNL     1      23.404   4.117  50.351  1.00  0.00     0.141 C 
HETATM   20  C13 UNL     1      23.729   4.736  51.726  1.00  0.00     0.088 C 
HETATM   21  C14 UNL     1      24.170   6.121  51.535  1.00  0.00    -0.026 C 
HETATM   22  C15 UNL     1      24.362   6.990  50.520  1.00  0.00    -0.030 C 
HETATM   23  C16 UNL     1      24.003   6.276  49.240  1.00  0.00     0.036 C 
HETATM   24  C17 UNL     1      24.375   4.822  49.382  1.00  0.00     0.041 C 
HETATM   25  C18 UNL     1      25.793   4.616  49.782  1.00  0.00     0.015 C 
BRANCH  19  26
HETATM   26  O1  UNL     1      22.173   4.506  49.959  1.00  0.00    -0.365 OA
HETATM   27  C1  UNL     1      21.188   4.807  50.817  1.00  0.00     0.204 C 
ENDBRANCH  19  26
ENDBRANCH  17  19
ENDBRANCH   1  17
TORSDOF 3
ENDMDL
MODEL 5
REMARK VINA RESULT:      -7.5      2.443      4.549
REMARK  3 active torsions:
REMARK  status: ('A' for Active; 'I' for Inactive)
REMARK    1  A    between atoms: O1_2  and  C2_3 
REMARK    2  A    between atoms: C2_3  and  N1_4 
REMARK    3  A    between atoms: N1_4  and  C3_5 
ROOT
HETATM    1  C3  UNL     1      23.816   0.979  52.129  1.00  0.00     0.141 A 
HETATM    2  N2  UNL     1      25.067   0.824  52.540  1.00  0.00    -0.224 NA
HETATM    3  C4  UNL     1      25.543   0.109  53.527  1.00  0.00     0.236 A 
HETATM    4  N3  UNL     1      24.574  -0.539  54.180  1.00  0.00    -0.234 NA
HETATM    5  C5  UNL     1      23.318  -0.434  53.832  1.00  0.00     0.114 A 
HETATM    6  S1  UNL     1      21.839  -1.198  54.549  1.00  0.00    -0.072 SA
HETATM    7  C6  UNL     1      20.650  -0.423  53.362  1.00  0.00     0.011 A 
HETATM    8  C7  UNL     1      21.449   0.346  52.523  1.00  0.00    -0.014 A 
HETATM    9  C8  UNL     1      22.794   0.340  52.762  1.00  0.00     0.054 A 
HETATM   10  C9  UNL     1      20.643   1.034  51.489  1.00  0.00     0.109 C 
HETATM   11  C10 UNL     1      20.413   2.496  51.834  1.00  0.00     0.025 C 
HETATM   12  C11 UNL     1      19.257   0.437  51.476  1.00  0.00     0.226 C 
HETATM   13  O2  UNL     1      18.633   1.059  50.541  1.00  0.00    -0.273 OA
HETATM   14  N4  UNL     1      18.540  -0.557  52.186  1.00  0.00    -0.356 N 
HETATM   15  C12 UNL     1      19.258  -0.697  53.460  1.00  0.00     0.169 C 
HETATM   16  H10 UNL     1      17.720  -0.963  51.717  1.00  0.00     0.162 HD
ENDROOT
BRANCH   1  17
HETATM   17  N1  UNL     1      23.713   1.852  51.026  1.00  0.00    -0.342 N 
HETATM   18  H4  UNL     1      23.174   1.718  50.162  1.00  0.00     0.164 HD
BRANCH  17  19
HETATM   19  C2  UNL     1      24.328   3.138  50.880  1.00  0.00     0.141 C 
HETATM   20  C13 UNL     1      25.699   2.981  50.191  1.00  0.00     0.088 C 
HETATM   21  C14 UNL     1      25.967   4.173  49.381  1.00  0.00    -0.026 C 
HETATM   22  C15 UNL     1      25.369   5.346  49.079  1.00  0.00    -0.030 C 
HETATM   23  C16 UNL     1      24.053   5.384  49.816  1.00  0.00     0.036 C 
HETATM   24  C17 UNL     1      23.503   3.983  49.888  1.00  0.00     0.041 C 
HETATM   25  C18 UNL     1      23.403   3.323  48.558  1.00  0.00     0.015 C 
BRANCH  19  26
HETATM   26  O1  UNL     1      24.458   3.912  51.977  1.00  0.00    -0.365 OA
HETATM   27  C1  UNL     1      23.417   4.333  52.709  1.00  0.00     0.204 C 
ENDBRANCH  19  26
ENDBRANCH  17  19
ENDBRANCH   1  17
TORSDOF 3
ENDMDL
MODEL 6
REMARK VINA RESULT:      -7.4      3.001      4.274
REMARK  3 active torsions:
REMARK  status: ('A' for Active; 'I' for Inactive)
REMARK    1  A    between atoms: O1_2  and  C2_3 
REMARK    2  A    between atoms: C2_3  and  N1_4 
REMARK    3  A    between atoms: N1_4  and  C3_5 
ROOT
HETATM    1  C3  UNL     1      25.371   3.019  50.193  1.00  0.00     0.141 A 
HETATM    2  N2  UNL     1      26.641   3.328  49.969  1.00  0.00    -0.224 NA
HETATM    3  C4  UNL     1      27.157   4.356  49.346  1.00  0.00     0.236 A 
HETATM    4  N3  UNL     1      26.213   5.181  48.888  1.00  0.00    -0.234 NA
HETATM    5  C5  UNL     1      24.940   4.943  49.070  1.00  0.00     0.114 A 
HETATM    6  S1  UNL     1      23.486   5.893  48.552  1.00  0.00    -0.072 SA
HETATM    7  C6  UNL     1      22.248   4.729  49.281  1.00  0.00     0.011 A 
HETATM    8  C7  UNL     1      23.015   3.721  49.855  1.00  0.00    -0.014 A 
HETATM    9  C8  UNL     1      24.372   3.829  49.746  1.00  0.00     0.054 A 
HETATM   10  C9  UNL     1      22.165   2.697  50.504  1.00  0.00     0.109 C 
HETATM   11  C10 UNL     1      22.022   1.453  49.643  1.00  0.00     0.025 C 
HETATM   12  C11 UNL     1      20.758   3.231  50.613  1.00  0.00     0.226 C 
HETATM   13  O2  UNL     1      20.094   2.307  51.211  1.00  0.00    -0.273 OA
HETATM   14  N4  UNL     1      20.054   4.404  50.247  1.00  0.00    -0.356 N 
HETATM   15  C12 UNL     1      20.856   5.002  49.171  1.00  0.00     0.169 C 
HETATM   16  H10 UNL     1      19.185   4.604  50.760  1.00  0.00     0.162 HD
ENDROOT
BRANCH   1  17
HETATM   17  N1  UNL     1      25.225   1.808  50.899  1.00  0.00    -0.342 N 
HETATM   18  H4  UNL     1      25.044   0.871  50.518  1.00  0.00     0.164 HD
BRANCH  17  19
HETATM   19  C2  UNL     1      25.318   1.615  52.316  1.00  0.00     0.141 C 
HETATM   20  C13 UNL     1      24.231   0.623  52.776  1.00  0.00     0.088 C 
HETATM   21  C14 UNL     1      24.734  -0.142  53.921  1.00  0.00    -0.026 C 
HETATM   22  C15 UNL     1      25.853  -0.216  54.674  1.00  0.00    -0.030 C 
HETATM   23  C16 UNL     1      26.828   0.803  54.136  1.00  0.00     0.036 C 
HETATM   24  C17 UNL     1      26.644   0.900  52.643  1.00  0.00     0.041 C 
HETATM   25  C18 UNL     1      26.741  -0.416  51.954  1.00  0.00     0.015 C 
BRANCH  19  26
HETATM   26  O1  UNL     1      25.302   2.705  53.111  1.00  0.00    -0.365 OA
HETATM   27  C1  UNL     1      24.185   3.388  53.402  1.00  0.00     0.204 C 
ENDBRANCH  19  26
ENDBRANCH  17  19
ENDBRANCH   1  17
TORSDOF 3
ENDMDL
MODEL 7
REMARK VINA RESULT:      -7.4      2.572      4.990
REMARK  3 active torsions:
REMARK  status: ('A' for Active; 'I' for Inactive)
REMARK    1  A    between atoms: O1_2  and  C2_3 
REMARK    2  A    between atoms: C2_3  and  N1_4 
REMARK    3  A    between atoms: N1_4  and  C3_5 
ROOT
HETATM    1  C3  UNL     1      24.259   1.526  51.490  1.00  0.00     0.141 A 
HETATM    2  N2  UNL     1      25.523   1.836  51.239  1.00  0.00    -0.224 NA
HETATM    3  C4  UNL     1      26.613   1.501  51.881  1.00  0.00     0.236 A 
HETATM    4  N3  UNL     1      26.345   0.731  52.940  1.00  0.00    -0.234 NA
HETATM    5  C5  UNL     1      25.123   0.384  53.250  1.00  0.00     0.114 A 
HETATM    6  S1  UNL     1      24.508  -0.635  54.616  1.00  0.00    -0.072 SA
HETATM    7  C6  UNL     1      22.724  -0.497  54.147  1.00  0.00     0.011 A 
HETATM    8  C7  UNL     1      22.725   0.299  53.007  1.00  0.00    -0.014 A 
HETATM    9  C8  UNL     1      23.936   0.744  52.557  1.00  0.00     0.054 A 
HETATM   10  C9  UNL     1      21.354   0.501  52.486  1.00  0.00     0.109 C 
HETATM   11  C10 UNL     1      20.801   1.864  52.867  1.00  0.00     0.025 C 
HETATM   12  C11 UNL     1      20.427  -0.475  53.167  1.00  0.00     0.226 C 
HETATM   13  O2  UNL     1      19.273  -0.262  52.644  1.00  0.00    -0.273 OA
HETATM   14  N4  UNL     1      20.515  -1.482  54.160  1.00  0.00    -0.356 N 
HETATM   15  C12 UNL     1      21.726  -1.153  54.921  1.00  0.00     0.169 C 
HETATM   16  H10 UNL     1      19.777  -2.199  54.162  1.00  0.00     0.162 HD
ENDROOT
BRANCH   1  17
HETATM   17  N1  UNL     1      23.367   2.098  50.561  1.00  0.00    -0.342 N 
HETATM   18  H4  UNL     1      22.724   1.615  49.921  1.00  0.00     0.164 HD
BRANCH  17  19
HETATM   19  C2  UNL     1      23.144   3.493  50.318  1.00  0.00     0.141 C 
HETATM   20  C13 UNL     1      24.396   4.110  49.662  1.00  0.00     0.088 C 
HETATM   21  C14 UNL     1      23.981   5.190  48.761  1.00  0.00    -0.026 C 
HETATM   22  C15 UNL     1      22.839   5.788  48.359  1.00  0.00    -0.030 C 
HETATM   23  C16 UNL     1      21.697   5.108  49.074  1.00  0.00     0.036 C 
HETATM   24  C17 UNL     1      22.043   3.652  49.252  1.00  0.00     0.041 C 
HETATM   25  C18 UNL     1      22.412   2.977  47.978  1.00  0.00     0.015 C 
BRANCH  19  26
HETATM   26  O1  UNL     1      22.748   4.265  51.351  1.00  0.00    -0.365 OA
HETATM   27  C1  UNL     1      23.591   4.751  52.274  1.00  0.00     0.204 C 
ENDBRANCH  19  26
ENDBRANCH  17  19
ENDBRANCH   1  17
TORSDOF 3
ENDMDL
MODEL 8
REMARK VINA RESULT:      -7.1      9.940     11.934
REMARK  3 active torsions:
REMARK  status: ('A' for Active; 'I' for Inactive)
REMARK    1  A    between atoms: O1_2  and  C2_3 
REMARK    2  A    between atoms: C2_3  and  N1_4 
REMARK    3  A    between atoms: N1_4  and  C3_5 
ROOT
HETATM    1  C3  UNL     1      32.545   8.219  46.912  1.00  0.00     0.141 A 
HETATM    2  N2  UNL     1      33.771   8.530  46.514  1.00  0.00    -0.224 NA
HETATM    3  C4  UNL     1      34.385   9.685  46.511  1.00  0.00     0.236 A 
HETATM    4  N3  UNL     1      33.608  10.658  46.993  1.00  0.00    -0.234 NA
HETATM    5  C5  UNL     1      32.388  10.428  47.404  1.00  0.00     0.114 A 
HETATM    6  S1  UNL     1      31.151  11.563  48.087  1.00  0.00    -0.072 SA
HETATM    7  C6  UNL     1      29.845  10.274  48.324  1.00  0.00     0.011 A 
HETATM    8  C7  UNL     1      30.433   9.097  47.875  1.00  0.00    -0.014 A 
HETATM    9  C8  UNL     1      31.715   9.177  47.410  1.00  0.00     0.054 A 
HETATM   10  C9  UNL     1      29.513   7.945  48.010  1.00  0.00     0.109 C 
HETATM   11  C10 UNL     1      28.870   7.578  46.683  1.00  0.00     0.025 C 
HETATM   12  C11 UNL     1      28.349   8.353  48.880  1.00  0.00     0.226 C 
HETATM   13  O2  UNL     1      27.617   7.301  48.976  1.00  0.00    -0.273 OA
HETATM   14  N4  UNL     1      27.907   9.516  49.558  1.00  0.00    -0.356 N 
HETATM   15  C12 UNL     1      28.581  10.627  48.873  1.00  0.00     0.169 C 
HETATM   16  H10 UNL     1      27.253   9.377  50.340  1.00  0.00     0.162 HD
ENDROOT
BRANCH   1  17
HETATM   17  N1  UNL     1      32.251   6.851  46.740  1.00  0.00    -0.342 N 
HETATM   18  H4  UNL     1      31.670   6.416  46.014  1.00  0.00     0.164 HD
BRANCH  17  19
HETATM   19  C2  UNL     1      32.720   5.758  47.538  1.00  0.00     0.141 C 
HETATM   20  C13 UNL     1      31.791   4.542  47.349  1.00  0.00     0.088 C 
HETATM   21  C14 UNL     1      32.579   3.312  47.477  1.00  0.00    -0.026 C 
HETATM   22  C15 UNL     1      33.858   2.951  47.715  1.00  0.00    -0.030 C 
HETATM   23  C16 UNL     1      34.659   4.219  47.892  1.00  0.00     0.036 C 
HETATM   24  C17 UNL     1      34.081   5.280  46.992  1.00  0.00     0.041 C 
HETATM   25  C18 UNL     1      33.980   4.853  45.570  1.00  0.00     0.015 C 
BRANCH  19  26
HETATM   26  O1  UNL     1      32.926   5.970  48.855  1.00  0.00    -0.365 OA
HETATM   27  C1  UNL     1      31.936   6.006  49.759  1.00  0.00     0.204 C 
ENDBRANCH  19  26
ENDBRANCH  17  19
ENDBRANCH   1  17
TORSDOF 3
ENDMDL
MODEL 9
REMARK VINA RESULT:      -7.1      3.530      6.102
REMARK  3 active torsions:
REMARK  status: ('A' for Active; 'I' for Inactive)
REMARK    1  A    between atoms: O1_2  and  C2_3 
REMARK    2  A    between atoms: C2_3  and  N1_4 
REMARK    3  A    between atoms: N1_4  and  C3_5 
ROOT
HETATM    1  C3  UNL     1      24.184   3.502  49.987  1.00  0.00     0.141 A 
HETATM    2  N2  UNL     1      25.117   4.218  49.373  1.00  0.00    -0.224 NA
HETATM    3  C4  UNL     1      26.420   4.167  49.480  1.00  0.00     0.236 A 
HETATM    4  N3  UNL     1      26.808   3.235  50.355  1.00  0.00    -0.234 NA
HETATM    5  C5  UNL     1      25.946   2.491  50.998  1.00  0.00     0.114 A 
HETATM    6  S1  UNL     1      26.216   1.179  52.219  1.00  0.00    -0.072 SA
HETATM    7  C6  UNL     1      24.422   0.808  52.475  1.00  0.00     0.011 A 
HETATM    8  C7  UNL     1      23.760   1.691  51.630  1.00  0.00    -0.014 A 
HETATM    9  C8  UNL     1      24.530   2.540  50.887  1.00  0.00     0.054 A 
HETATM   10  C9  UNL     1      22.292   1.515  51.703  1.00  0.00     0.109 C 
HETATM   11  C10 UNL     1      21.638   2.583  52.563  1.00  0.00     0.025 C 
HETATM   12  C11 UNL     1      21.993   0.226  52.430  1.00  0.00     0.226 C 
HETATM   13  O2  UNL     1      20.712   0.128  52.426  1.00  0.00    -0.273 OA
HETATM   14  N4  UNL     1      22.723  -0.811  53.061  1.00  0.00    -0.356 N 
HETATM   15  C12 UNL     1      24.023  -0.211  53.385  1.00  0.00     0.169 C 
HETATM   16  H10 UNL     1      22.246  -1.717  53.165  1.00  0.00     0.162 HD
ENDROOT
BRANCH   1  17
HETATM   17  N1  UNL     1      22.879   3.871  49.604  1.00  0.00    -0.342 N 
HETATM   18  H4  UNL     1      22.248   4.536  50.068  1.00  0.00     0.164 HD
BRANCH  17  19
HETATM   19  C2  UNL     1      22.150   3.410  48.460  1.00  0.00     0.141 C 
HETATM   20  C13 UNL     1      20.637   3.584  48.705  1.00  0.00     0.088 C 
HETATM   21  C14 UNL     1      19.974   3.863  47.428  1.00  0.00    -0.026 C 
HETATM   22  C15 UNL     1      20.304   4.000  46.126  1.00  0.00    -0.030 C 
HETATM   23  C16 UNL     1      21.796   3.799  46.015  1.00  0.00     0.036 C 
HETATM   24  C17 UNL     1      22.446   4.337  47.264  1.00  0.00     0.041 C 
HETATM   25  C18 UNL     1      22.072   5.747  47.558  1.00  0.00     0.015 C 
BRANCH  19  26
HETATM   26  O1  UNL     1      22.394   2.163  48.007  1.00  0.00    -0.365 OA
HETATM   27  C1  UNL     1      21.749   1.077  48.454  1.00  0.00     0.204 C 
ENDBRANCH  19  26
ENDBRANCH  17  19
ENDBRANCH   1  17
TORSDOF 3
ENDMDL
