MODEL 1
REMARK VINA RESULT:      -8.9      0.000      0.000
REMARK  6 active torsions:
REMARK  status: ('A' for Active; 'I' for Inactive)
REMARK    1  A    between atoms: O1_2  and  C2_3 
REMARK    2  A    between atoms: C4_5  and  O2_6 
REMARK    3  A    between atoms: O2_6  and  C5_7 
REMARK    4  A    between atoms: C9_11  and  N1_12 
REMARK       I    between atoms: N1_12  and  C10_13 
REMARK       I    between atoms: C10_13  and  N2_15 
REMARK    5  A    between atoms: C11_16  and  C12_17 
REMARK    6  A    between atoms: C21_26  and  O4_27 
ROOT
HETATM    1  C5  UNL     1      28.829   5.274  48.220  1.00  0.00     0.149 C 
HETATM    2  C6  UNL     1      27.599   5.145  48.694  1.00  0.00    -0.012 A 
HETATM    3  C7  UNL     1      26.589   6.183  48.857  1.00  0.00     0.015 A 
HETATM    4  C8  UNL     1      25.537   5.603  49.356  1.00  0.00     0.030 A 
HETATM    5  C9  UNL     1      25.737   4.175  49.566  1.00  0.00     0.037 A 
HETATM    6  C18 UNL     1      26.963   3.922  49.169  1.00  0.00     0.043 A 
ENDROOT
BRANCH   1   7
HETATM    7  O2  UNL     1      29.233   6.534  47.823  1.00  0.00    -0.325 OA
BRANCH   7   8
HETATM    8  C4  UNL     1      30.554   6.859  47.635  1.00  0.00     0.187 C 
HETATM    9  C3  UNL     1      31.350   5.717  47.045  1.00  0.00     0.075 C 
HETATM   10  C2  UNL     1      32.635   5.341  47.246  1.00  0.00     0.104 C 
HETATM   11  C21 UNL     1      33.517   6.279  48.022  1.00  0.00     0.124 C 
HETATM   12  C20 UNL     1      32.666   7.306  48.318  1.00  0.00     0.051 C 
HETATM   13  C19 UNL     1      31.314   7.018  49.005  1.00  0.00     0.128 C 
HETATM   14  N3  UNL     1      32.890   8.715  47.973  1.00  0.00    -0.352 N 
HETATM   15  C23 UNL     1      31.658   9.018  47.228  1.00  0.00     0.205 C 
HETATM   16  H21 UNL     1      33.816   9.011  48.334  1.00  0.00     0.166 HD
HETATM   17  N4  UNL     1      30.715   8.122  47.022  1.00  0.00    -0.242 NA
BRANCH  10  18
HETATM   18  O1  UNL     1      33.390   4.254  46.905  1.00  0.00    -0.353 OA
HETATM   19  C1  UNL     1      33.228   3.012  47.589  1.00  0.00     0.210 C 
ENDBRANCH  10  18
BRANCH  11  20
HETATM   20  O4  UNL     1      34.771   6.532  48.536  1.00  0.00    -0.351 OA
HETATM   21  C22 UNL     1      35.491   5.591  49.289  1.00  0.00     0.210 C 
ENDBRANCH  11  20
ENDBRANCH   7   8
ENDBRANCH   1   7
BRANCH   5  22
HETATM   22  N1  UNL     1      24.746   3.307  50.098  1.00  0.00    -0.307 N 
HETATM   23  C10 UNL     1      24.910   2.552  51.280  1.00  0.00     0.346 C 
HETATM   24  O3  UNL     1      25.974   2.609  51.946  1.00  0.00    -0.245 OA
HETATM   25  N2  UNL     1      23.877   1.682  51.786  1.00  0.00    -0.206 NA
HETATM   26  C11 UNL     1      23.876   1.240  52.977  1.00  0.00     0.133 C 
HETATM   27  H8  UNL     1      23.834   3.175  49.645  1.00  0.00     0.170 HD
BRANCH  26  28
HETATM   28  C12 UNL     1      22.755   0.368  53.331  1.00  0.00    -0.018 A 
HETATM   29  C13 UNL     1      22.956  -0.720  54.160  1.00  0.00     0.013 A 
HETATM   30  C14 UNL     1      21.929  -1.585  54.532  1.00  0.00     0.001 A 
HETATM   31  C15 UNL     1      20.648  -1.345  54.048  1.00  0.00     0.000 A 
HETATM   32  C16 UNL     1      20.445  -0.262  53.220  1.00  0.00     0.001 A 
HETATM   33  C17 UNL     1      21.465   0.593  52.855  1.00  0.00     0.013 A 
ENDBRANCH  26  28
ENDBRANCH   5  22
TORSDOF 6
ENDMDL
MODEL 2
REMARK VINA RESULT:      -8.7      1.635      2.953
REMARK  6 active torsions:
REMARK  status: ('A' for Active; 'I' for Inactive)
REMARK    1  A    between atoms: O1_2  and  C2_3 
REMARK    2  A    between atoms: C4_5  and  O2_6 
REMARK    3  A    between atoms: O2_6  and  C5_7 
REMARK    4  A    between atoms: C9_11  and  N1_12 
REMARK       I    between atoms: N1_12  and  C10_13 
REMARK       I    between atoms: C10_13  and  N2_15 
REMARK    5  A    between atoms: C11_16  and  C12_17 
REMARK    6  A    between atoms: C21_26  and  O4_27 
ROOT
HETATM    1  C5  UNL     1      28.658   5.228  48.326  1.00  0.00     0.149 C 
HETATM    2  C6  UNL     1      27.412   5.056  48.738  1.00  0.00    -0.012 A 
HETATM    3  C7  UNL     1      26.331   6.034  48.752  1.00  0.00     0.015 A 
HETATM    4  C8  UNL     1      25.288   5.428  49.240  1.00  0.00     0.030 A 
HETATM    5  C9  UNL     1      25.563   4.040  49.585  1.00  0.00     0.037 A 
HETATM    6  C18 UNL     1      26.824   3.837  49.281  1.00  0.00     0.043 A 
ENDROOT
BRANCH   1   7
HETATM    7  O2  UNL     1      29.008   6.475  47.843  1.00  0.00    -0.325 OA
BRANCH   7   8
HETATM    8  C4  UNL     1      30.235   7.040  48.082  1.00  0.00     0.187 C 
HETATM    9  C3  UNL     1      30.127   8.400  48.734  1.00  0.00     0.075 C 
HETATM   10  C2  UNL     1      30.896   9.506  48.599  1.00  0.00     0.104 C 
HETATM   11  C21 UNL     1      32.187   9.364  47.843  1.00  0.00     0.124 C 
HETATM   12  C20 UNL     1      32.175   8.044  47.486  1.00  0.00     0.051 C 
HETATM   13  C19 UNL     1      30.956   7.455  46.746  1.00  0.00     0.128 C 
HETATM   14  N3  UNL     1      33.226   7.072  47.809  1.00  0.00    -0.352 N 
HETATM   15  C23 UNL     1      32.441   6.031  48.491  1.00  0.00     0.205 C 
HETATM   16  H21 UNL     1      34.140   7.438  47.484  1.00  0.00     0.166 HD
HETATM   17  N4  UNL     1      31.140   6.129  48.674  1.00  0.00    -0.242 NA
BRANCH  10  18
HETATM   18  O1  UNL     1      30.794  10.810  48.999  1.00  0.00    -0.353 OA
HETATM   19  C1  UNL     1      30.267  11.801  48.119  1.00  0.00     0.210 C 
ENDBRANCH  10  18
BRANCH  11  20
HETATM   20  O4  UNL     1      33.333   9.975  47.381  1.00  0.00    -0.351 OA
HETATM   21  C22 UNL     1      33.364  10.756  46.214  1.00  0.00     0.210 C 
ENDBRANCH  11  20
ENDBRANCH   7   8
ENDBRANCH   1   7
BRANCH   5  22
HETATM   22  N1  UNL     1      24.597   3.154  50.134  1.00  0.00    -0.307 N 
HETATM   23  C10 UNL     1      24.780   2.430  51.331  1.00  0.00     0.346 C 
HETATM   24  O3  UNL     1      25.840   2.532  51.998  1.00  0.00    -0.245 OA
HETATM   25  N2  UNL     1      23.772   1.541  51.855  1.00  0.00    -0.206 NA
HETATM   26  C11 UNL     1      23.780   1.125  53.054  1.00  0.00     0.133 C 
HETATM   27  H8  UNL     1      23.690   2.986  49.682  1.00  0.00     0.170 HD
BRANCH  26  28
HETATM   28  C12 UNL     1      22.685   0.227  53.425  1.00  0.00    -0.018 A 
HETATM   29  C13 UNL     1      22.916  -0.836  54.278  1.00  0.00     0.013 A 
HETATM   30  C14 UNL     1      21.914  -1.723  54.666  1.00  0.00     0.001 A 
HETATM   31  C15 UNL     1      20.627  -1.531  54.175  1.00  0.00     0.000 A 
HETATM   32  C16 UNL     1      20.395  -0.472  53.324  1.00  0.00     0.001 A 
HETATM   33  C17 UNL     1      21.390   0.405  52.942  1.00  0.00     0.013 A 
ENDBRANCH  26  28
ENDBRANCH   5  22
TORSDOF 6
ENDMDL
MODEL 3
REMARK VINA RESULT:      -8.5      2.190      3.841
REMARK  6 active torsions:
REMARK  status: ('A' for Active; 'I' for Inactive)
REMARK    1  A    between atoms: O1_2  and  C2_3 
REMARK    2  A    between atoms: C4_5  and  O2_6 
REMARK    3  A    between atoms: O2_6  and  C5_7 
REMARK    4  A    between atoms: C9_11  and  N1_12 
REMARK       I    between atoms: N1_12  and  C10_13 
REMARK       I    between atoms: C10_13  and  N2_15 
REMARK    5  A    between atoms: C11_16  and  C12_17 
REMARK    6  A    between atoms: C21_26  and  O4_27 
ROOT
HETATM    1  C5  UNL     1      28.567   5.335  48.315  1.00  0.00     0.149 C 
HETATM    2  C6  UNL     1      27.313   5.108  48.675  1.00  0.00    -0.012 A 
HETATM    3  C7  UNL     1      26.143   5.939  48.417  1.00  0.00     0.015 A 
HETATM    4  C8  UNL     1      25.128   5.327  48.953  1.00  0.00     0.030 A 
HETATM    5  C9  UNL     1      25.508   4.077  49.596  1.00  0.00     0.037 A 
HETATM    6  C18 UNL     1      26.805   3.963  49.421  1.00  0.00     0.043 A 
ENDROOT
BRANCH   1   7
HETATM    7  O2  UNL     1      28.831   6.492  47.607  1.00  0.00    -0.325 OA
BRANCH   7   8
HETATM    8  C4  UNL     1      29.495   7.559  48.159  1.00  0.00     0.187 C 
HETATM    9  C3  UNL     1      28.555   8.553  48.803  1.00  0.00     0.075 C 
HETATM   10  C2  UNL     1      28.626   9.902  48.895  1.00  0.00     0.104 C 
HETATM   11  C21 UNL     1      29.913  10.557  48.478  1.00  0.00     0.124 C 
HETATM   12  C20 UNL     1      30.675   9.490  48.091  1.00  0.00     0.051 C 
HETATM   13  C19 UNL     1      30.129   8.486  47.055  1.00  0.00     0.128 C 
HETATM   14  N3  UNL     1      31.995   9.153  48.636  1.00  0.00    -0.352 N 
HETATM   15  C23 UNL     1      31.769   7.766  49.071  1.00  0.00     0.205 C 
HETATM   16  H21 UNL     1      32.617   9.979  48.558  1.00  0.00     0.166 HD
HETATM   17  N4  UNL     1      30.610   7.157  48.929  1.00  0.00    -0.242 NA
BRANCH  10  18
HETATM   18  O1  UNL     1      27.771  10.891  49.295  1.00  0.00    -0.353 OA
HETATM   19  C1  UNL     1      27.101  11.705  48.335  1.00  0.00     0.210 C 
ENDBRANCH  10  18
BRANCH  11  20
HETATM   20  O4  UNL     1      30.622  11.730  48.332  1.00  0.00    -0.351 OA
HETATM   21  C22 UNL     1      30.761  12.672  49.365  1.00  0.00     0.210 C 
ENDBRANCH  11  20
ENDBRANCH   7   8
ENDBRANCH   1   7
BRANCH   5  22
HETATM   22  N1  UNL     1      24.592   3.214  50.255  1.00  0.00    -0.307 N 
HETATM   23  C10 UNL     1      24.950   2.321  51.287  1.00  0.00     0.346 C 
HETATM   24  O3  UNL     1      26.137   2.238  51.693  1.00  0.00    -0.245 OA
HETATM   25  N2  UNL     1      23.987   1.462  51.931  1.00  0.00    -0.206 NA
HETATM   26  C11 UNL     1      24.214   0.889  53.041  1.00  0.00     0.133 C 
HETATM   27  H8  UNL     1      23.594   3.189  50.013  1.00  0.00     0.170 HD
BRANCH  26  28
HETATM   28  C12 UNL     1      23.131   0.050  53.557  1.00  0.00    -0.018 A 
HETATM   29  C13 UNL     1      21.847   0.190  53.064  1.00  0.00     0.013 A 
HETATM   30  C14 UNL     1      20.777  -0.580  53.516  1.00  0.00     0.001 A 
HETATM   31  C15 UNL     1      21.010  -1.528  54.506  1.00  0.00     0.000 A 
HETATM   32  C16 UNL     1      22.288  -1.669  55.000  1.00  0.00     0.001 A 
HETATM   33  C17 UNL     1      23.346  -0.905  54.549  1.00  0.00     0.013 A 
ENDBRANCH  26  28
ENDBRANCH   5  22
TORSDOF 6
ENDMDL
MODEL 4
REMARK VINA RESULT:      -8.5      2.034      2.584
REMARK  6 active torsions:
REMARK  status: ('A' for Active; 'I' for Inactive)
REMARK    1  A    between atoms: O1_2  and  C2_3 
REMARK    2  A    between atoms: C4_5  and  O2_6 
REMARK    3  A    between atoms: O2_6  and  C5_7 
REMARK    4  A    between atoms: C9_11  and  N1_12 
REMARK       I    between atoms: N1_12  and  C10_13 
REMARK       I    between atoms: C10_13  and  N2_15 
REMARK    5  A    between atoms: C11_16  and  C12_17 
REMARK    6  A    between atoms: C21_26  and  O4_27 
ROOT
HETATM    1  C5  UNL     1      26.734   7.249  48.241  1.00  0.00     0.149 C 
HETATM    2  C6  UNL     1      26.624   6.056  48.804  1.00  0.00    -0.012 A 
HETATM    3  C7  UNL     1      27.473   4.888  48.602  1.00  0.00     0.015 A 
HETATM    4  C8  UNL     1      26.992   3.944  49.357  1.00  0.00     0.030 A 
HETATM    5  C9  UNL     1      25.821   4.375  50.108  1.00  0.00     0.037 A 
HETATM    6  C18 UNL     1      25.618   5.627  49.768  1.00  0.00     0.043 A 
ENDROOT
BRANCH   1   7
HETATM    7  O2  UNL     1      27.770   7.442  47.347  1.00  0.00    -0.325 OA
BRANCH   7   8
HETATM    8  C4  UNL     1      28.879   8.191  47.655  1.00  0.00     0.187 C 
HETATM    9  C3  UNL     1      29.655   8.605  46.425  1.00  0.00     0.075 C 
HETATM   10  C2  UNL     1      30.986   8.765  46.235  1.00  0.00     0.104 C 
HETATM   11  C21 UNL     1      31.868   8.726  47.451  1.00  0.00     0.124 C 
HETATM   12  C20 UNL     1      30.971   8.510  48.460  1.00  0.00     0.051 C 
HETATM   13  C19 UNL     1      29.983   7.329  48.375  1.00  0.00     0.128 C 
HETATM   14  N3  UNL     1      30.802   9.368  49.638  1.00  0.00    -0.352 N 
HETATM   15  C23 UNL     1      29.366   9.674  49.555  1.00  0.00     0.205 C 
HETATM   16  H21 UNL     1      31.720   9.488  50.107  1.00  0.00     0.166 HD
HETATM   17  N4  UNL     1      28.596   9.210  48.593  1.00  0.00    -0.242 NA
BRANCH  10  18
HETATM   18  O1  UNL     1      31.791   8.966  45.149  1.00  0.00    -0.353 OA
HETATM   19  C1  UNL     1      31.913   7.966  44.139  1.00  0.00     0.210 C 
ENDBRANCH  10  18
BRANCH  11  20
HETATM   20  O4  UNL     1      33.147   8.817  47.959  1.00  0.00    -0.351 OA
HETATM   21  C22 UNL     1      33.805   7.737  48.568  1.00  0.00     0.210 C 
ENDBRANCH  11  20
ENDBRANCH   7   8
ENDBRANCH   1   7
BRANCH   5  22
HETATM   22  N1  UNL     1      25.105   3.540  51.007  1.00  0.00    -0.307 N 
HETATM   23  C10 UNL     1      23.999   2.746  50.637  1.00  0.00     0.346 C 
HETATM   24  O3  UNL     1      23.573   2.734  49.454  1.00  0.00    -0.245 OA
HETATM   25  N2  UNL     1      23.300   1.910  51.582  1.00  0.00    -0.206 NA
HETATM   26  C11 UNL     1      22.518   0.976  51.224  1.00  0.00     0.133 C 
HETATM   27  H8  UNL     1      25.356   3.464  52.000  1.00  0.00     0.170 HD
BRANCH  26  28
HETATM   28  C12 UNL     1      21.887   0.223  52.310  1.00  0.00    -0.018 A 
HETATM   29  C13 UNL     1      22.666  -0.443  53.238  1.00  0.00     0.013 A 
HETATM   30  C14 UNL     1      22.122  -1.175  54.292  1.00  0.00     0.001 A 
HETATM   31  C15 UNL     1      20.739  -1.240  54.415  1.00  0.00     0.000 A 
HETATM   32  C16 UNL     1      19.961  -0.578  53.490  1.00  0.00     0.001 A 
HETATM   33  C17 UNL     1      20.503   0.148  52.447  1.00  0.00     0.013 A 
ENDBRANCH  26  28
ENDBRANCH   5  22
TORSDOF 6
ENDMDL
MODEL 5
REMARK VINA RESULT:      -8.3      3.440     12.468
REMARK  6 active torsions:
REMARK  status: ('A' for Active; 'I' for Inactive)
REMARK    1  A    between atoms: O1_2  and  C2_3 
REMARK    2  A    between atoms: C4_5  and  O2_6 
REMARK    3  A    between atoms: O2_6  and  C5_7 
REMARK    4  A    between atoms: C9_11  and  N1_12 
REMARK       I    between atoms: N1_12  and  C10_13 
REMARK       I    between atoms: C10_13  and  N2_15 
REMARK    5  A    between atoms: C11_16  and  C12_17 
REMARK    6  A    between atoms: C21_26  and  O4_27 
ROOT
HETATM    1  C5  UNL     1      22.873   0.376  52.614  1.00  0.00     0.149 C 
HETATM    2  C6  UNL     1      23.604   1.462  52.418  1.00  0.00    -0.012 A 
HETATM    3  C7  UNL     1      23.355   2.810  52.914  1.00  0.00     0.015 A 
HETATM    4  C8  UNL     1      24.328   3.553  52.475  1.00  0.00     0.030 A 
HETATM    5  C9  UNL     1      25.284   2.801  51.674  1.00  0.00     0.037 A 
HETATM    6  C18 UNL     1      24.839   1.566  51.650  1.00  0.00     0.043 A 
ENDROOT
BRANCH   1   7
HETATM    7  O2  UNL     1      21.730   0.502  53.380  1.00  0.00    -0.325 OA
BRANCH   7   8
HETATM    8  C4  UNL     1      20.492   0.716  52.826  1.00  0.00     0.187 C 
HETATM    9  C3  UNL     1      19.457  -0.264  53.330  1.00  0.00     0.075 C 
HETATM   10  C2  UNL     1      18.398  -0.828  52.704  1.00  0.00     0.104 C 
HETATM   11  C21 UNL     1      18.028  -0.290  51.350  1.00  0.00     0.124 C 
HETATM   12  C20 UNL     1      18.968   0.682  51.152  1.00  0.00     0.051 C 
HETATM   13  C19 UNL     1      20.467   0.348  51.295  1.00  0.00     0.128 C 
HETATM   14  N3  UNL     1      18.678   2.092  50.868  1.00  0.00    -0.352 N 
HETATM   15  C23 UNL     1      19.433   2.753  51.944  1.00  0.00     0.205 C 
HETATM   16  H21 UNL     1      18.043   2.151  50.050  1.00  0.00     0.166 HD
HETATM   17  N4  UNL     1      20.125   2.081  52.841  1.00  0.00    -0.242 NA
BRANCH  10  18
HETATM   18  O1  UNL     1      17.519  -1.831  53.003  1.00  0.00    -0.353 OA
HETATM   19  C1  UNL     1      17.912  -2.919  53.839  1.00  0.00     0.210 C 
ENDBRANCH  10  18
BRANCH  11  20
HETATM   20  O4  UNL     1      17.172  -0.357  50.271  1.00  0.00    -0.351 OA
HETATM   21  C22 UNL     1      15.793  -0.115  50.374  1.00  0.00     0.210 C 
ENDBRANCH  11  20
ENDBRANCH   7   8
ENDBRANCH   1   7
BRANCH   5  22
HETATM   22  N1  UNL     1      26.440   3.373  51.076  1.00  0.00    -0.307 N 
HETATM   23  C10 UNL     1      26.428   4.088  49.860  1.00  0.00     0.346 C 
HETATM   24  O3  UNL     1      25.362   4.265  49.219  1.00  0.00    -0.245 OA
HETATM   25  N2  UNL     1      27.626   4.653  49.288  1.00  0.00    -0.206 NA
HETATM   26  C11 UNL     1      27.600   5.541  48.381  1.00  0.00     0.133 C 
HETATM   27  H8  UNL     1      27.371   3.296  51.503  1.00  0.00     0.170 HD
BRANCH  26  28
HETATM   28  C12 UNL     1      28.904   6.008  47.908  1.00  0.00    -0.018 A 
HETATM   29  C13 UNL     1      30.028   5.222  48.081  1.00  0.00     0.013 A 
HETATM   30  C14 UNL     1      31.295   5.613  47.652  1.00  0.00     0.001 A 
HETATM   31  C15 UNL     1      31.435   6.846  47.025  1.00  0.00     0.000 A 
HETATM   32  C16 UNL     1      30.316   7.631  46.852  1.00  0.00     0.001 A 
HETATM   33  C17 UNL     1      29.062   7.240  47.278  1.00  0.00     0.013 A 
ENDBRANCH  26  28
ENDBRANCH   5  22
TORSDOF 6
ENDMDL
MODEL 6
REMARK VINA RESULT:      -8.2      4.116     11.461
REMARK  6 active torsions:
REMARK  status: ('A' for Active; 'I' for Inactive)
REMARK    1  A    between atoms: O1_2  and  C2_3 
REMARK    2  A    between atoms: C4_5  and  O2_6 
REMARK    3  A    between atoms: O2_6  and  C5_7 
REMARK    4  A    between atoms: C9_11  and  N1_12 
REMARK       I    between atoms: N1_12  and  C10_13 
REMARK       I    between atoms: C10_13  and  N2_15 
REMARK    5  A    between atoms: C11_16  and  C12_17 
REMARK    6  A    between atoms: C21_26  and  O4_27 
ROOT
HETATM    1  C5  UNL     1      23.104   3.327  49.447  1.00  0.00     0.149 C 
HETATM    2  C6  UNL     1      24.316   3.854  49.363  1.00  0.00    -0.012 A 
HETATM    3  C7  UNL     1      25.584   3.251  49.753  1.00  0.00     0.015 A 
HETATM    4  C8  UNL     1      26.508   4.129  49.495  1.00  0.00     0.030 A 
HETATM    5  C9  UNL     1      25.966   5.357  48.930  1.00  0.00     0.037 A 
HETATM    6  C18 UNL     1      24.667   5.177  48.859  1.00  0.00     0.043 A 
ENDROOT
BRANCH   1   7
HETATM    7  O2  UNL     1      22.996   2.048  49.960  1.00  0.00    -0.325 OA
BRANCH   7   8
HETATM    8  C4  UNL     1      22.582   1.803  51.245  1.00  0.00     0.187 C 
HETATM    9  C3  UNL     1      23.729   1.430  52.159  1.00  0.00     0.075 C 
HETATM   10  C2  UNL     1      23.779   0.576  53.207  1.00  0.00     0.104 C 
HETATM   11  C21 UNL     1      22.475   0.022  53.712  1.00  0.00     0.124 C 
HETATM   12  C20 UNL     1      21.565   0.599  52.871  1.00  0.00     0.051 C 
HETATM   13  C19 UNL     1      21.738   0.477  51.343  1.00  0.00     0.128 C 
HETATM   14  N3  UNL     1      20.423   1.417  53.296  1.00  0.00    -0.352 N 
HETATM   15  C23 UNL     1      20.662   2.648  52.527  1.00  0.00     0.205 C 
HETATM   16  H21 UNL     1      19.861   0.885  53.987  1.00  0.00     0.166 HD
HETATM   17  N4  UNL     1      21.694   2.793  51.722  1.00  0.00    -0.242 NA
BRANCH  10  18
HETATM   18  O1  UNL     1      24.776   0.047  53.978  1.00  0.00    -0.353 OA
HETATM   19  C1  UNL     1      25.740  -0.840  53.413  1.00  0.00     0.210 C 
ENDBRANCH  10  18
BRANCH  11  20
HETATM   20  O4  UNL     1      21.836  -0.784  54.630  1.00  0.00    -0.351 OA
HETATM   21  C22 UNL     1      21.011  -1.858  54.259  1.00  0.00     0.210 C 
ENDBRANCH  11  20
ENDBRANCH   7   8
ENDBRANCH   1   7
BRANCH   5  22
HETATM   22  N1  UNL     1      26.759   6.475  48.557  1.00  0.00    -0.307 N 
HETATM   23  C10 UNL     1      26.824   7.678  49.292  1.00  0.00     0.346 C 
HETATM   24  O3  UNL     1      26.163   7.831  50.351  1.00  0.00    -0.245 OA
HETATM   25  N2  UNL     1      27.643   8.791  48.878  1.00  0.00    -0.206 NA
HETATM   26  C11 UNL     1      27.953   9.742  49.660  1.00  0.00     0.133 C 
HETATM   27  H8  UNL     1      27.344   6.474  47.713  1.00  0.00     0.170 HD
BRANCH  26  28
HETATM   28  C12 UNL     1      28.792  10.793  49.082  1.00  0.00    -0.018 A 
HETATM   29  C13 UNL     1      30.161  10.622  48.996  1.00  0.00     0.013 A 
HETATM   30  C14 UNL     1      31.009  11.587  48.456  1.00  0.00     0.001 A 
HETATM   31  C15 UNL     1      30.455  12.772  47.984  1.00  0.00     0.000 A 
HETATM   32  C16 UNL     1      29.091  12.945  48.070  1.00  0.00     0.001 A 
HETATM   33  C17 UNL     1      28.254  11.987  48.605  1.00  0.00     0.013 A 
ENDBRANCH  26  28
ENDBRANCH   5  22
TORSDOF 6
ENDMDL
MODEL 7
REMARK VINA RESULT:      -8.1      8.394     14.613
REMARK  6 active torsions:
REMARK  status: ('A' for Active; 'I' for Inactive)
REMARK    1  A    between atoms: O1_2  and  C2_3 
REMARK    2  A    between atoms: C4_5  and  O2_6 
REMARK    3  A    between atoms: O2_6  and  C5_7 
REMARK    4  A    between atoms: C9_11  and  N1_12 
REMARK       I    between atoms: N1_12  and  C10_13 
REMARK       I    between atoms: C10_13  and  N2_15 
REMARK    5  A    between atoms: C11_16  and  C12_17 
REMARK    6  A    between atoms: C21_26  and  O4_27 
ROOT
HETATM    1  C5  UNL     1      17.310   3.152  51.499  1.00  0.00     0.149 C 
HETATM    2  C6  UNL     1      18.303   2.276  51.479  1.00  0.00    -0.012 A 
HETATM    3  C7  UNL     1      18.228   0.841  51.235  1.00  0.00     0.015 A 
HETATM    4  C8  UNL     1      19.444   0.387  51.313  1.00  0.00     0.030 A 
HETATM    5  C9  UNL     1      20.412   1.435  51.604  1.00  0.00     0.037 A 
HETATM    6  C18 UNL     1      19.719   2.547  51.699  1.00  0.00     0.043 A 
ENDROOT
BRANCH   1   7
HETATM    7  O2  UNL     1      16.033   2.677  51.262  1.00  0.00    -0.325 OA
BRANCH   7   8
HETATM    8  C4  UNL     1      15.046   2.712  52.215  1.00  0.00     0.187 C 
HETATM    9  C3  UNL     1      14.788   1.354  52.827  1.00  0.00     0.075 C 
HETATM   10  C2  UNL     1      13.640   0.791  53.271  1.00  0.00     0.104 C 
HETATM   11  C21 UNL     1      12.429   1.676  53.374  1.00  0.00     0.124 C 
HETATM   12  C20 UNL     1      12.907   2.880  52.938  1.00  0.00     0.051 C 
HETATM   13  C19 UNL     1      13.631   2.978  51.579  1.00  0.00     0.128 C 
HETATM   14  N3  UNL     1      12.856   4.134  53.698  1.00  0.00    -0.352 N 
HETATM   15  C23 UNL     1      14.277   4.517  53.698  1.00  0.00     0.205 C 
HETATM   16  H21 UNL     1      11.878   4.315  53.991  1.00  0.00     0.166 HD
HETATM   17  N4  UNL     1      15.208   3.788  53.118  1.00  0.00    -0.242 NA
BRANCH  10  18
HETATM   18  O1  UNL     1      13.269  -0.462  53.675  1.00  0.00    -0.353 OA
HETATM   19  C1  UNL     1      12.946  -1.469  52.719  1.00  0.00     0.210 C 
ENDBRANCH  10  18
BRANCH  11  20
HETATM   20  O4  UNL     1      11.097   1.783  53.713  1.00  0.00    -0.351 OA
HETATM   21  C22 UNL     1      10.090   1.017  53.105  1.00  0.00     0.210 C 
ENDBRANCH  11  20
ENDBRANCH   7   8
ENDBRANCH   1   7
BRANCH   5  22
HETATM   22  N1  UNL     1      21.808   1.209  51.740  1.00  0.00    -0.307 N 
HETATM   23  C10 UNL     1      22.413   0.678  52.899  1.00  0.00     0.346 C 
HETATM   24  O3  UNL     1      21.729   0.367  53.907  1.00  0.00    -0.245 OA
HETATM   25  N2  UNL     1      23.836   0.464  52.996  1.00  0.00    -0.206 NA
HETATM   26  C11 UNL     1      24.359  -0.278  53.883  1.00  0.00     0.133 C 
HETATM   27  H8  UNL     1      22.472   1.423  50.987  1.00  0.00     0.170 HD
BRANCH  26  28
HETATM   28  C12 UNL     1      25.818  -0.389  53.842  1.00  0.00    -0.018 A 
HETATM   29  C13 UNL     1      26.590   0.239  54.801  1.00  0.00     0.013 A 
HETATM   30  C14 UNL     1      27.982   0.170  54.813  1.00  0.00     0.001 A 
HETATM   31  C15 UNL     1      28.621  -0.562  53.818  1.00  0.00     0.000 A 
HETATM   32  C16 UNL     1      27.854  -1.188  52.861  1.00  0.00     0.001 A 
HETATM   33  C17 UNL     1      26.475  -1.117  52.852  1.00  0.00     0.013 A 
ENDBRANCH  26  28
ENDBRANCH   5  22
TORSDOF 6
ENDMDL
MODEL 8
REMARK VINA RESULT:      -8.1      2.316      2.998
REMARK  6 active torsions:
REMARK  status: ('A' for Active; 'I' for Inactive)
REMARK    1  A    between atoms: O1_2  and  C2_3 
REMARK    2  A    between atoms: C4_5  and  O2_6 
REMARK    3  A    between atoms: O2_6  and  C5_7 
REMARK    4  A    between atoms: C9_11  and  N1_12 
REMARK       I    between atoms: N1_12  and  C10_13 
REMARK       I    between atoms: C10_13  and  N2_15 
REMARK    5  A    between atoms: C11_16  and  C12_17 
REMARK    6  A    between atoms: C21_26  and  O4_27 
ROOT
HETATM    1  C5  UNL     1      29.930   6.057  47.750  1.00  0.00     0.149 C 
HETATM    2  C6  UNL     1      28.672   5.960  48.150  1.00  0.00    -0.012 A 
HETATM    3  C7  UNL     1      27.663   7.011  48.198  1.00  0.00     0.015 A 
HETATM    4  C8  UNL     1      26.577   6.463  48.657  1.00  0.00     0.030 A 
HETATM    5  C9  UNL     1      26.749   5.047  48.950  1.00  0.00     0.037 A 
HETATM    6  C18 UNL     1      27.995   4.766  48.644  1.00  0.00     0.043 A 
ENDROOT
BRANCH   1   7
HETATM    7  O2  UNL     1      30.370   7.294  47.317  1.00  0.00    -0.325 OA
BRANCH   7   8
HETATM    8  C4  UNL     1      31.594   7.472  46.720  1.00  0.00     0.187 C 
HETATM    9  C3  UNL     1      31.478   8.072  45.337  1.00  0.00     0.075 C 
HETATM   10  C2  UNL     1      32.220   7.870  44.223  1.00  0.00     0.104 C 
HETATM   11  C21 UNL     1      33.491   7.080  44.372  1.00  0.00     0.124 C 
HETATM   12  C20 UNL     1      33.494   6.777  45.705  1.00  0.00     0.051 C 
HETATM   13  C19 UNL     1      32.266   6.098  46.346  1.00  0.00     0.128 C 
HETATM   14  N3  UNL     1      34.573   7.106  46.644  1.00  0.00    -0.352 N 
HETATM   15  C23 UNL     1      33.829   7.852  47.670  1.00  0.00     0.205 C 
HETATM   16  H21 UNL     1      35.470   6.738  46.274  1.00  0.00     0.166 HD
HETATM   17  N4  UNL     1      32.533   8.072  47.589  1.00  0.00    -0.242 NA
BRANCH  10  18
HETATM   18  O1  UNL     1      32.105   8.220  42.907  1.00  0.00    -0.353 OA
HETATM   19  C1  UNL     1      32.832   9.331  42.384  1.00  0.00     0.210 C 
ENDBRANCH  10  18
BRANCH  11  20
HETATM   20  O4  UNL     1      34.610   6.559  43.759  1.00  0.00    -0.351 OA
HETATM   21  C22 UNL     1      34.577   5.399  42.969  1.00  0.00     0.210 C 
ENDBRANCH  11  20
ENDBRANCH   7   8
ENDBRANCH   1   7
BRANCH   5  22
HETATM   22  N1  UNL     1      25.719   4.212  49.461  1.00  0.00    -0.307 N 
HETATM   23  C10 UNL     1      25.921   3.219  50.443  1.00  0.00     0.346 C 
HETATM   24  O3  UNL     1      27.059   3.011  50.934  1.00  0.00    -0.245 OA
HETATM   25  N2  UNL     1      24.846   2.392  50.935  1.00  0.00    -0.206 NA
HETATM   26  C11 UNL     1      24.934   1.721  52.009  1.00  0.00     0.133 C 
HETATM   27  H8  UNL     1      24.747   4.284  49.138  1.00  0.00     0.170 HD
BRANCH  26  28
HETATM   28  C12 UNL     1      23.752   0.934  52.366  1.00  0.00    -0.018 A 
HETATM   29  C13 UNL     1      23.760   0.144  53.500  1.00  0.00     0.013 A 
HETATM   30  C14 UNL     1      22.667  -0.626  53.891  1.00  0.00     0.001 A 
HETATM   31  C15 UNL     1      21.519  -0.599  53.107  1.00  0.00     0.000 A 
HETATM   32  C16 UNL     1      21.509   0.187  51.975  1.00  0.00     0.001 A 
HETATM   33  C17 UNL     1      22.594   0.949  51.592  1.00  0.00     0.013 A 
ENDBRANCH  26  28
ENDBRANCH   5  22
TORSDOF 6
ENDMDL
MODEL 9
REMARK VINA RESULT:      -8.1      2.513     11.541
REMARK  6 active torsions:
REMARK  status: ('A' for Active; 'I' for Inactive)
REMARK    1  A    between atoms: O1_2  and  C2_3 
REMARK    2  A    between atoms: C4_5  and  O2_6 
REMARK    3  A    between atoms: O2_6  and  C5_7 
REMARK    4  A    between atoms: C9_11  and  N1_12 
REMARK       I    between atoms: N1_12  and  C10_13 
REMARK       I    between atoms: C10_13  and  N2_15 
REMARK    5  A    between atoms: C11_16  and  C12_17 
REMARK    6  A    between atoms: C21_26  and  O4_27 
ROOT
HETATM    1  C5  UNL     1      23.615   4.068  49.451  1.00  0.00     0.149 C 
HETATM    2  C6  UNL     1      24.878   4.454  49.349  1.00  0.00    -0.012 A 
HETATM    3  C7  UNL     1      26.076   3.627  49.425  1.00  0.00     0.015 A 
HETATM    4  C8  UNL     1      27.090   4.428  49.274  1.00  0.00     0.030 A 
HETATM    5  C9  UNL     1      26.681   5.813  49.088  1.00  0.00     0.037 A 
HETATM    6  C18 UNL     1      25.369   5.810  49.136  1.00  0.00     0.043 A 
ENDROOT
BRANCH   1   7
HETATM    7  O2  UNL     1      23.371   2.722  49.654  1.00  0.00    -0.325 OA
BRANCH   7   8
HETATM    8  C4  UNL     1      22.865   2.236  50.833  1.00  0.00     0.187 C 
HETATM    9  C3  UNL     1      23.930   1.598  51.698  1.00  0.00     0.075 C 
HETATM   10  C2  UNL     1      23.867   0.537  52.535  1.00  0.00     0.104 C 
HETATM   11  C21 UNL     1      22.506  -0.022  52.842  1.00  0.00     0.124 C 
HETATM   12  C20 UNL     1      21.683   0.783  52.105  1.00  0.00     0.051 C 
HETATM   13  C19 UNL     1      21.944   0.981  50.598  1.00  0.00     0.128 C 
HETATM   14  N3  UNL     1      20.564   1.566  52.642  1.00  0.00    -0.352 N 
HETATM   15  C23 UNL     1      20.919   2.914  52.174  1.00  0.00     0.205 C 
HETATM   16  H21 UNL     1      19.932   0.937  53.173  1.00  0.00     0.166 HD
HETATM   17  N4  UNL     1      22.006   3.158  51.471  1.00  0.00    -0.242 NA
BRANCH  10  18
HETATM   18  O1  UNL     1      24.784  -0.212  53.219  1.00  0.00    -0.353 OA
HETATM   19  C1  UNL     1      26.098  -0.406  52.699  1.00  0.00     0.210 C 
ENDBRANCH  10  18
BRANCH  11  20
HETATM   20  O4  UNL     1      21.767  -0.962  53.530  1.00  0.00    -0.351 OA
HETATM   21  C22 UNL     1      21.850  -1.128  54.922  1.00  0.00     0.210 C 
ENDBRANCH  11  20
ENDBRANCH   7   8
ENDBRANCH   1   7
BRANCH   5  22
HETATM   22  N1  UNL     1      27.591   6.889  48.899  1.00  0.00    -0.307 N 
HETATM   23  C10 UNL     1      28.860   6.754  48.297  1.00  0.00     0.346 C 
HETATM   24  O3  UNL     1      29.269   5.640  47.882  1.00  0.00    -0.245 OA
HETATM   25  N2  UNL     1      29.753   7.873  48.125  1.00  0.00    -0.206 NA
HETATM   26  C11 UNL     1      30.744   7.843  47.331  1.00  0.00     0.133 C 
HETATM   27  H8  UNL     1      27.373   7.847  49.196  1.00  0.00     0.170 HD
BRANCH  26  28
HETATM   28  C12 UNL     1      31.551   9.063  47.274  1.00  0.00    -0.018 A 
HETATM   29  C13 UNL     1      32.867   9.008  46.855  1.00  0.00     0.013 A 
HETATM   30  C14 UNL     1      33.683  10.135  46.780  1.00  0.00     0.001 A 
HETATM   31  C15 UNL     1      33.152  11.367  47.143  1.00  0.00     0.000 A 
HETATM   32  C16 UNL     1      31.841  11.425  47.562  1.00  0.00     0.001 A 
HETATM   33  C17 UNL     1      31.035  10.306  47.634  1.00  0.00     0.013 A 
ENDBRANCH  26  28
ENDBRANCH   5  22
TORSDOF 6
ENDMDL
