MODEL 1
REMARK VINA RESULT:      -7.9      0.000      0.000
REMARK  2 active torsions:
REMARK  status: ('A' for Active; 'I' for Inactive)
REMARK    1  A    between atoms: N1_2  and  C2_3 
REMARK    2  A    between atoms: C4_5  and  S1_6 
ROOT
HETATM    1  S1  UNL     1      25.403   1.467  53.105  1.00  0.00    -0.107 SA
HETATM    2  C5  UNL     1      24.218   0.434  53.615  1.00  0.00     0.011 A 
HETATM    3  C6  UNL     1      22.780   0.234  53.321  1.00  0.00     0.081 A 
HETATM    4  C7  UNL     1      22.494  -0.922  54.222  1.00  0.00    -0.077 A 
HETATM    5  C8  UNL     1      21.069  -1.339  54.122  1.00  0.00     0.044 C 
HETATM    6  C9  UNL     1      23.517  -1.362  54.928  1.00  0.00     0.035 A 
HETATM    7  C10 UNL     1      24.700  -0.543  54.605  1.00  0.00     0.069 A 
HETATM    8  N2  UNL     1      25.875  -0.647  55.070  1.00  0.00    -0.258 NA
HETATM    9  C11 UNL     1      26.984   0.156  54.734  1.00  0.00     0.147 A 
HETATM   10  C12 UNL     1      26.998   1.161  53.876  1.00  0.00     0.098 A 
HETATM   11  C13 UNL     1      28.097   1.977  53.525  1.00  0.00     0.108 C 
HETATM   12  N3  UNL     1      28.985   2.635  53.234  1.00  0.00    -0.191 NA
ENDROOT
BRANCH   1  13
HETATM   13  C4  UNL     1      25.064   2.724  51.910  1.00  0.00     0.003 A 
HETATM   14  C3  UNL     1      23.981   3.527  52.156  1.00  0.00     0.049 A 
HETATM   15  C2  UNL     1      23.639   4.511  51.292  1.00  0.00     0.045 A 
HETATM   16  C16 UNL     1      24.392   4.723  50.128  1.00  0.00     0.033 A 
HETATM   17  C15 UNL     1      25.513   3.922  49.838  1.00  0.00     0.022 A 
HETATM   18  I1  UNL     1      24.160   6.149  48.563  1.00  0.00    -0.042 I 
HETATM   19  C14 UNL     1      25.797   2.942  50.765  1.00  0.00     0.020 A 
BRANCH  15  20
HETATM   20  N1  UNL     1      22.656   5.514  51.166  1.00  0.00    -0.393 N 
HETATM   21  C1  UNL     1      21.690   6.499  51.041  1.00  0.00     0.146 C 
HETATM   22  H4  UNL     1      22.514   5.314  50.122  1.00  0.00     0.159 HD
ENDBRANCH  15  20
ENDBRANCH   1  13
TORSDOF 2
ENDMDL
MODEL 2
REMARK VINA RESULT:      -7.9      1.726      2.407
REMARK  2 active torsions:
REMARK  status: ('A' for Active; 'I' for Inactive)
REMARK    1  A    between atoms: N1_2  and  C2_3 
REMARK    2  A    between atoms: C4_5  and  S1_6 
ROOT
HETATM    1  S1  UNL     1      24.140   0.326  53.501  1.00  0.00    -0.107 SA
HETATM    2  C5  UNL     1      22.537  -0.069  53.446  1.00  0.00     0.011 A 
HETATM    3  C6  UNL     1      21.370   0.328  52.623  1.00  0.00     0.081 A 
HETATM    4  C7  UNL     1      20.314  -0.521  53.252  1.00  0.00    -0.077 A 
HETATM    5  C8  UNL     1      18.995  -0.310  52.596  1.00  0.00     0.044 C 
HETATM    6  C9  UNL     1      20.716  -1.287  54.248  1.00  0.00     0.035 A 
HETATM    7  C10 UNL     1      22.160  -1.069  54.457  1.00  0.00     0.069 A 
HETATM    8  N2  UNL     1      22.918  -1.616  55.314  1.00  0.00    -0.258 NA
HETATM    9  C11 UNL     1      24.298  -1.382  55.483  1.00  0.00     0.147 A 
HETATM   10  C12 UNL     1      25.048  -0.553  54.780  1.00  0.00     0.098 A 
HETATM   11  C13 UNL     1      26.431  -0.306  54.932  1.00  0.00     0.108 C 
HETATM   12  N3  UNL     1      27.551  -0.107  55.048  1.00  0.00    -0.191 NA
ENDROOT
BRANCH   1  13
HETATM   13  C4  UNL     1      24.829   1.502  52.377  1.00  0.00     0.003 A 
HETATM   14  C3  UNL     1      24.218   2.728  52.322  1.00  0.00     0.049 A 
HETATM   15  C2  UNL     1      24.670   3.689  51.484  1.00  0.00     0.045 A 
HETATM   16  C16 UNL     1      25.776   3.443  50.656  1.00  0.00     0.033 A 
HETATM   17  C15 UNL     1      26.433   2.199  50.681  1.00  0.00     0.022 A 
HETATM   18  I1  UNL     1      26.752   4.692  49.234  1.00  0.00    -0.042 I 
HETATM   19  C14 UNL     1      25.914   1.272  51.560  1.00  0.00     0.020 A 
BRANCH  15  20
HETATM   20  N1  UNL     1      24.356   5.017  51.130  1.00  0.00    -0.393 N 
HETATM   21  C1  UNL     1      24.048   6.322  50.781  1.00  0.00     0.146 C 
HETATM   22  H4  UNL     1      24.124   4.746  50.118  1.00  0.00     0.159 HD
ENDBRANCH  15  20
ENDBRANCH   1  13
TORSDOF 2
ENDMDL
MODEL 3
REMARK VINA RESULT:      -7.6      3.017      6.307
REMARK  2 active torsions:
REMARK  status: ('A' for Active; 'I' for Inactive)
REMARK    1  A    between atoms: N1_2  and  C2_3 
REMARK    2  A    between atoms: C4_5  and  S1_6 
ROOT
HETATM    1  S1  UNL     1      23.174   1.057  53.095  1.00  0.00    -0.107 SA
HETATM    2  C5  UNL     1      22.804   2.440  52.269  1.00  0.00     0.011 A 
HETATM    3  C6  UNL     1      23.562   3.462  51.510  1.00  0.00     0.081 A 
HETATM    4  C7  UNL     1      22.439   4.357  51.097  1.00  0.00    -0.077 A 
HETATM    5  C8  UNL     1      22.938   5.507  50.295  1.00  0.00     0.044 C 
HETATM    6  C9  UNL     1      21.239   3.988  51.499  1.00  0.00     0.035 A 
HETATM    7  C10 UNL     1      21.363   2.741  52.276  1.00  0.00     0.069 A 
HETATM    8  N2  UNL     1      20.443   2.069  52.831  1.00  0.00    -0.258 NA
HETATM    9  C11 UNL     1      20.602   0.876  53.565  1.00  0.00     0.147 A 
HETATM   10  C12 UNL     1      21.737   0.246  53.809  1.00  0.00     0.098 A 
HETATM   11  C13 UNL     1      21.917  -0.949  54.541  1.00  0.00     0.108 C 
HETATM   12  N3  UNL     1      22.067  -1.919  55.127  1.00  0.00    -0.191 NA
ENDROOT
BRANCH   1  13
HETATM   13  C4  UNL     1      24.842   0.488  53.219  1.00  0.00     0.003 A 
HETATM   14  C3  UNL     1      25.775   1.407  53.621  1.00  0.00     0.049 A 
HETATM   15  C2  UNL     1      27.079   1.065  53.736  1.00  0.00     0.045 A 
HETATM   16  C16 UNL     1      27.495  -0.243  53.444  1.00  0.00     0.033 A 
HETATM   17  C15 UNL     1      26.570  -1.219  53.029  1.00  0.00     0.022 A 
HETATM   18  I1  UNL     1      29.429  -1.133  53.509  1.00  0.00    -0.042 I 
HETATM   19  C14 UNL     1      25.262  -0.793  52.936  1.00  0.00     0.020 A 
BRANCH  15  20
HETATM   20  N1  UNL     1      28.302   1.664  54.099  1.00  0.00    -0.393 N 
HETATM   21  C1  UNL     1      29.504   2.254  54.457  1.00  0.00     0.146 C 
HETATM   22  H4  UNL     1      27.877   2.120  54.972  1.00  0.00     0.159 HD
ENDBRANCH  15  20
ENDBRANCH   1  13
TORSDOF 2
ENDMDL
MODEL 4
REMARK VINA RESULT:      -7.6      1.275      1.463
REMARK  2 active torsions:
REMARK  status: ('A' for Active; 'I' for Inactive)
REMARK    1  A    between atoms: N1_2  and  C2_3 
REMARK    2  A    between atoms: C4_5  and  S1_6 
ROOT
HETATM    1  S1  UNL     1      24.667   1.157  52.852  1.00  0.00    -0.107 SA
HETATM    2  C5  UNL     1      23.512   0.154  53.476  1.00  0.00     0.011 A 
HETATM    3  C6  UNL     1      22.060  -0.059  53.266  1.00  0.00     0.081 A 
HETATM    4  C7  UNL     1      21.822  -1.164  54.242  1.00  0.00    -0.077 A 
HETATM    5  C8  UNL     1      20.393  -1.584  54.236  1.00  0.00     0.044 C 
HETATM    6  C9  UNL     1      22.879  -1.567  54.918  1.00  0.00     0.035 A 
HETATM    7  C10 UNL     1      24.044  -0.768  54.492  1.00  0.00     0.069 A 
HETATM    8  N2  UNL     1      25.241  -0.849  54.902  1.00  0.00    -0.258 NA
HETATM    9  C11 UNL     1      26.330  -0.067  54.467  1.00  0.00     0.147 A 
HETATM   10  C12 UNL     1      26.300   0.890  53.557  1.00  0.00     0.098 A 
HETATM   11  C13 UNL     1      27.379   1.684  53.108  1.00  0.00     0.108 C 
HETATM   12  N3  UNL     1      28.250   2.324  52.737  1.00  0.00    -0.191 NA
ENDROOT
BRANCH   1  13
HETATM   13  C4  UNL     1      24.268   2.348  51.610  1.00  0.00     0.003 A 
HETATM   14  C3  UNL     1      24.839   3.587  51.743  1.00  0.00     0.049 A 
HETATM   15  C2  UNL     1      24.584   4.567  50.846  1.00  0.00     0.045 A 
HETATM   16  C16 UNL     1      23.727   4.326  49.761  1.00  0.00     0.033 A 
HETATM   17  C15 UNL     1      23.119   3.068  49.586  1.00  0.00     0.022 A 
HETATM   18  I1  UNL     1      23.100   5.603  48.175  1.00  0.00    -0.042 I 
HETATM   19  C14 UNL     1      23.428   2.123  50.542  1.00  0.00     0.020 A 
BRANCH  15  20
HETATM   20  N1  UNL     1      24.943   5.910  50.615  1.00  0.00    -0.393 N 
HETATM   21  C1  UNL     1      25.296   7.230  50.387  1.00  0.00     0.146 C 
HETATM   22  H4  UNL     1      25.323   5.693  49.636  1.00  0.00     0.159 HD
ENDBRANCH  15  20
ENDBRANCH   1  13
TORSDOF 2
ENDMDL
MODEL 5
REMARK VINA RESULT:      -7.4      3.560      5.667
REMARK  2 active torsions:
REMARK  status: ('A' for Active; 'I' for Inactive)
REMARK    1  A    between atoms: N1_2  and  C2_3 
REMARK    2  A    between atoms: C4_5  and  S1_6 
ROOT
HETATM    1  S1  UNL     1      23.101   0.954  52.491  1.00  0.00    -0.107 SA
HETATM    2  C5  UNL     1      24.415   1.628  51.751  1.00  0.00     0.011 A 
HETATM    3  C6  UNL     1      24.641   2.697  50.750  1.00  0.00     0.081 A 
HETATM    4  C7  UNL     1      26.132   2.651  50.661  1.00  0.00    -0.077 A 
HETATM    5  C8  UNL     1      26.641   3.657  49.689  1.00  0.00     0.044 C 
HETATM    6  C9  UNL     1      26.721   1.759  51.431  1.00  0.00     0.035 A 
HETATM    7  C10 UNL     1      25.687   1.033  52.191  1.00  0.00     0.069 A 
HETATM    8  N2  UNL     1      25.845   0.102  53.037  1.00  0.00    -0.258 NA
HETATM    9  C11 UNL     1      24.827  -0.568  53.746  1.00  0.00     0.147 A 
HETATM   10  C12 UNL     1      23.528  -0.347  53.657  1.00  0.00     0.098 A 
HETATM   11  C13 UNL     1      22.494  -1.006  54.358  1.00  0.00     0.108 C 
HETATM   12  N3  UNL     1      21.654  -1.532  54.929  1.00  0.00    -0.191 NA
ENDROOT
BRANCH   1  13
HETATM   13  C4  UNL     1      21.464   1.510  52.129  1.00  0.00     0.003 A 
HETATM   14  C3  UNL     1      20.616   0.594  51.563  1.00  0.00     0.049 A 
HETATM   15  C2  UNL     1      19.346   0.932  51.242  1.00  0.00     0.045 A 
HETATM   16  C16 UNL     1      18.877   2.231  51.485  1.00  0.00     0.033 A 
HETATM   17  C15 UNL     1      19.714   3.204  52.065  1.00  0.00     0.022 A 
HETATM   18  I1  UNL     1      16.973   3.113  51.119  1.00  0.00    -0.042 I 
HETATM   19  C14 UNL     1      20.993   2.783  52.364  1.00  0.00     0.020 A 
BRANCH  15  20
HETATM   20  N1  UNL     1      18.202   0.332  50.677  1.00  0.00    -0.393 N 
HETATM   21  C1  UNL     1      17.078  -0.259  50.123  1.00  0.00     0.146 C 
HETATM   22  H4  UNL     1      18.544  -0.658  50.911  1.00  0.00     0.159 HD
ENDBRANCH  15  20
ENDBRANCH   1  13
TORSDOF 2
ENDMDL
MODEL 6
REMARK VINA RESULT:      -7.3      2.355      4.576
REMARK  2 active torsions:
REMARK  status: ('A' for Active; 'I' for Inactive)
REMARK    1  A    between atoms: N1_2  and  C2_3 
REMARK    2  A    between atoms: C4_5  and  S1_6 
ROOT
HETATM    1  S1  UNL     1      23.756   0.146  53.287  1.00  0.00    -0.107 SA
HETATM    2  C5  UNL     1      25.344   0.493  53.586  1.00  0.00     0.011 A 
HETATM    3  C6  UNL     1      26.387   1.336  52.955  1.00  0.00     0.081 A 
HETATM    4  C7  UNL     1      27.527   1.065  53.880  1.00  0.00    -0.077 A 
HETATM    5  C8  UNL     1      28.745   1.810  53.461  1.00  0.00     0.044 C 
HETATM    6  C9  UNL     1      27.270   0.240  54.876  1.00  0.00     0.035 A 
HETATM    7  C10 UNL     1      25.864  -0.194  54.779  1.00  0.00     0.069 A 
HETATM    8  N2  UNL     1      25.233  -0.982  55.545  1.00  0.00    -0.258 NA
HETATM    9  C11 UNL     1      23.884  -1.372  55.420  1.00  0.00     0.147 A 
HETATM   10  C12 UNL     1      23.036  -0.988  54.482  1.00  0.00     0.098 A 
HETATM   11  C13 UNL     1      21.683  -1.366  54.340  1.00  0.00     0.108 C 
HETATM   12  N3  UNL     1      20.585  -1.665  54.225  1.00  0.00    -0.191 NA
ENDROOT
BRANCH   1  13
HETATM   13  C4  UNL     1      22.909   0.860  51.910  1.00  0.00     0.003 A 
HETATM   14  C3  UNL     1      23.486   1.966  51.343  1.00  0.00     0.049 A 
HETATM   15  C2  UNL     1      22.905   2.586  50.290  1.00  0.00     0.045 A 
HETATM   16  C16 UNL     1      21.699   2.102  49.762  1.00  0.00     0.033 A 
HETATM   17  C15 UNL     1      21.072   0.969  50.314  1.00  0.00     0.022 A 
HETATM   18  I1  UNL     1      20.510   2.805  48.140  1.00  0.00    -0.042 I 
HETATM   19  C14 UNL     1      21.725   0.393  51.384  1.00  0.00     0.020 A 
BRANCH  15  20
HETATM   20  N1  UNL     1      23.146   3.691  49.448  1.00  0.00    -0.393 N 
HETATM   21  C1  UNL     1      23.384   4.775  48.619  1.00  0.00     0.146 C 
HETATM   22  H4  UNL     1      23.406   3.063  48.617  1.00  0.00     0.159 HD
ENDBRANCH  15  20
ENDBRANCH   1  13
TORSDOF 2
ENDMDL
MODEL 7
REMARK VINA RESULT:      -7.3      2.713      4.452
REMARK  2 active torsions:
REMARK  status: ('A' for Active; 'I' for Inactive)
REMARK    1  A    between atoms: N1_2  and  C2_3 
REMARK    2  A    between atoms: C4_5  and  S1_6 
ROOT
HETATM    1  S1  UNL     1      24.550   3.040  51.062  1.00  0.00    -0.107 SA
HETATM    2  C5  UNL     1      25.217   1.701  51.763  1.00  0.00     0.011 A 
HETATM    3  C6  UNL     1      26.577   1.125  51.881  1.00  0.00     0.081 A 
HETATM    4  C7  UNL     1      26.268  -0.096  52.683  1.00  0.00    -0.077 A 
HETATM    5  C8  UNL     1      27.501  -0.887  52.951  1.00  0.00     0.044 C 
HETATM    6  C9  UNL     1      25.001  -0.261  53.006  1.00  0.00     0.035 A 
HETATM    7  C10 UNL     1      24.223   0.863  52.453  1.00  0.00     0.069 A 
HETATM    8  N2  UNL     1      22.976   1.073  52.545  1.00  0.00    -0.258 NA
HETATM    9  C11 UNL     1      22.267   2.164  52.003  1.00  0.00     0.147 A 
HETATM   10  C12 UNL     1      22.773   3.162  51.302  1.00  0.00     0.098 A 
HETATM   11  C13 UNL     1      22.081   4.264  50.751  1.00  0.00     0.108 C 
HETATM   12  N3  UNL     1      21.525   5.161  50.310  1.00  0.00    -0.191 NA
ENDROOT
BRANCH   1  13
HETATM   13  C4  UNL     1      25.550   4.201  50.181  1.00  0.00     0.003 A 
HETATM   14  C3  UNL     1      25.192   5.520  50.284  1.00  0.00     0.049 A 
HETATM   15  C2  UNL     1      25.892   6.480  49.637  1.00  0.00     0.045 A 
HETATM   16  C16 UNL     1      27.000   6.136  48.848  1.00  0.00     0.033 A 
HETATM   17  C15 UNL     1      27.402   4.794  48.715  1.00  0.00     0.022 A 
HETATM   18  I1  UNL     1      28.321   7.352  47.701  1.00  0.00    -0.042 I 
HETATM   19  C14 UNL     1      26.639   3.875  49.404  1.00  0.00     0.020 A 
BRANCH  15  20
HETATM   20  N1  UNL     1      25.872   7.881  49.480  1.00  0.00    -0.393 N 
HETATM   21  C1  UNL     1      25.852   9.257  49.324  1.00  0.00     0.146 C 
HETATM   22  H4  UNL     1      26.046   7.815  48.424  1.00  0.00     0.159 HD
ENDBRANCH  15  20
ENDBRANCH   1  13
TORSDOF 2
ENDMDL
MODEL 8
REMARK VINA RESULT:      -7.3      2.907      4.803
REMARK  2 active torsions:
REMARK  status: ('A' for Active; 'I' for Inactive)
REMARK    1  A    between atoms: N1_2  and  C2_3 
REMARK    2  A    between atoms: C4_5  and  S1_6 
ROOT
HETATM    1  S1  UNL     1      22.101   0.142  52.563  1.00  0.00    -0.107 SA
HETATM    2  C5  UNL     1      23.545  -0.111  53.324  1.00  0.00     0.011 A 
HETATM    3  C6  UNL     1      24.961   0.248  53.071  1.00  0.00     0.081 A 
HETATM    4  C7  UNL     1      25.600  -0.380  54.267  1.00  0.00    -0.077 A 
HETATM    5  C8  UNL     1      27.073  -0.165  54.261  1.00  0.00     0.044 C 
HETATM    6  C9  UNL     1      24.779  -0.996  55.095  1.00  0.00     0.035 A 
HETATM    7  C10 UNL     1      23.406  -0.879  54.572  1.00  0.00     0.069 A 
HETATM    8  N2  UNL     1      22.335  -1.334  55.076  1.00  0.00    -0.258 NA
HETATM    9  C11 UNL     1      21.035  -1.199  54.546  1.00  0.00     0.147 A 
HETATM   10  C12 UNL     1      20.700  -0.577  53.430  1.00  0.00     0.098 A 
HETATM   11  C13 UNL     1      19.406  -0.431  52.882  1.00  0.00     0.108 C 
HETATM   12  N3  UNL     1      18.360  -0.304  52.439  1.00  0.00    -0.191 NA
ENDROOT
BRANCH   1  13
HETATM   13  C4  UNL     1      22.016   1.047  51.047  1.00  0.00     0.003 A 
HETATM   14  C3  UNL     1      22.713   2.226  50.997  1.00  0.00     0.049 A 
HETATM   15  C2  UNL     1      22.699   2.991  49.881  1.00  0.00     0.045 A 
HETATM   16  C16 UNL     1      21.968   2.586  48.755  1.00  0.00     0.033 A 
HETATM   17  C15 UNL     1      21.238   1.382  48.763  1.00  0.00     0.022 A 
HETATM   18  I1  UNL     1      21.714   3.514  46.855  1.00  0.00    -0.042 I 
HETATM   19  C14 UNL     1      21.301   0.659  49.935  1.00  0.00     0.020 A 
BRANCH  15  20
HETATM   20  N1  UNL     1      23.248   4.207  49.425  1.00  0.00    -0.393 N 
HETATM   21  C1  UNL     1      23.786   5.402  48.977  1.00  0.00     0.146 C 
HETATM   22  H4  UNL     1      22.281   4.649  49.286  1.00  0.00     0.159 HD
ENDBRANCH  15  20
ENDBRANCH   1  13
TORSDOF 2
ENDMDL
MODEL 9
REMARK VINA RESULT:      -7.1      2.187      4.450
REMARK  2 active torsions:
REMARK  status: ('A' for Active; 'I' for Inactive)
REMARK    1  A    between atoms: N1_2  and  C2_3 
REMARK    2  A    between atoms: C4_5  and  S1_6 
ROOT
HETATM    1  S1  UNL     1      24.271   1.991  51.766  1.00  0.00    -0.107 SA
HETATM    2  C5  UNL     1      25.337   1.260  52.795  1.00  0.00     0.011 A 
HETATM    3  C6  UNL     1      26.742   1.487  53.212  1.00  0.00     0.081 A 
HETATM    4  C7  UNL     1      26.905   0.359  54.177  1.00  0.00    -0.077 A 
HETATM    5  C8  UNL     1      28.274   0.350  54.762  1.00  0.00     0.044 C 
HETATM    6  C9  UNL     1      25.847  -0.410  54.342  1.00  0.00     0.035 A 
HETATM    7  C10 UNL     1      24.760   0.094  53.482  1.00  0.00     0.069 A 
HETATM    8  N2  UNL     1      23.585  -0.367  53.354  1.00  0.00    -0.258 NA
HETATM    9  C11 UNL     1      22.570   0.145  52.521  1.00  0.00     0.147 A 
HETATM   10  C12 UNL     1      22.660   1.195  51.723  1.00  0.00     0.098 A 
HETATM   11  C13 UNL     1      21.656   1.724  50.882  1.00  0.00     0.108 C 
HETATM   12  N3  UNL     1      20.844   2.159  50.205  1.00  0.00    -0.191 NA
ENDROOT
BRANCH   1  13
HETATM   13  C4  UNL     1      24.736   3.419  50.834  1.00  0.00     0.003 A 
HETATM   14  C3  UNL     1      26.004   3.424  50.314  1.00  0.00     0.049 A 
HETATM   15  C2  UNL     1      26.451   4.479  49.593  1.00  0.00     0.045 A 
HETATM   16  C16 UNL     1      25.619   5.586  49.368  1.00  0.00     0.033 A 
HETATM   17  C15 UNL     1      24.310   5.621  49.884  1.00  0.00     0.022 A 
HETATM   18  I1  UNL     1      25.972   7.396  48.303  1.00  0.00    -0.042 I 
HETATM   19  C14 UNL     1      23.928   4.511  50.607  1.00  0.00     0.020 A 
BRANCH  15  20
HETATM   20  N1  UNL     1      27.620   4.874  48.911  1.00  0.00    -0.393 N 
HETATM   21  C1  UNL     1      28.768   5.264  48.241  1.00  0.00     0.146 C 
HETATM   22  H4  UNL     1      28.019   5.366  49.777  1.00  0.00     0.159 HD
ENDBRANCH  15  20
ENDBRANCH   1  13
TORSDOF 2
ENDMDL
