MODEL 1
REMARK VINA RESULT:      -9.1      0.000      0.000
REMARK  2 active torsions:
REMARK  status: ('A' for Active; 'I' for Inactive)
REMARK    1  A    between atoms: C5_5  and  N1_6 
REMARK    2  A    between atoms: N1_6  and  C6_7 
ROOT
HETATM    1  C6  UNL     1      24.845   2.597  52.020  1.00  0.00     0.132 C 
HETATM    2  C7  UNL     1      24.961   2.752  50.678  1.00  0.00     0.090 C 
HETATM    3  C8  UNL     1      24.307   3.978  50.488  1.00  0.00     0.106 C 
HETATM    4  C9  UNL     1      22.975   4.253  50.199  1.00  0.00     0.106 C 
HETATM    5  C10 UNL     1      22.327   3.071  50.124  1.00  0.00    -0.024 A 
HETATM    6  C11 UNL     1      21.262   2.317  50.631  1.00  0.00     0.079 A 
HETATM    7  C12 UNL     1      22.244   1.350  50.874  1.00  0.00     0.031 A 
HETATM    8  N2  UNL     1      22.422   0.743  52.066  1.00  0.00    -0.249 NA
HETATM    9  C13 UNL     1      23.058   1.398  53.067  1.00  0.00     0.235 C 
HETATM   10  N3  UNL     1      24.056   2.318  53.065  1.00  0.00    -0.224 NA
HETATM   11  C14 UNL     1      22.373   1.784  49.452  1.00  0.00     0.064 A 
HETATM   12  C15 UNL     1      21.234   1.358  48.596  1.00  0.00     0.021 C 
HETATM   13  O1  UNL     1      22.582   5.550  50.055  1.00  0.00    -0.346 OA
HETATM   14  C16 UNL     1      23.300   6.520  50.831  1.00  0.00     0.202 C 
HETATM   15  C17 UNL     1      24.748   6.398  50.367  1.00  0.00     0.202 C 
HETATM   16  O2  UNL     1      25.164   5.054  50.617  1.00  0.00    -0.346 OA
ENDROOT
BRANCH   1  17
HETATM   17  N1  UNL     1      26.057   2.794  52.784  1.00  0.00    -0.341 N 
HETATM   18  H6  UNL     1      26.253   3.777  53.139  1.00  0.00     0.167 HD
BRANCH  17  19
HETATM   19  C5  UNL     1      26.981   1.713  53.055  1.00  0.00     0.035 A 
HETATM   20  C4  UNL     1      28.207   2.095  53.586  1.00  0.00     0.030 A 
HETATM   21  C3  UNL     1      29.102   1.089  53.793  1.00  0.00     0.011 A 
HETATM   22  C2  UNL     1      28.766  -0.227  53.482  1.00  0.00    -0.040 A 
HETATM   23  C1  UNL     1      29.793  -1.261  53.703  1.00  0.00     0.050 C 
HETATM   24  C19 UNL     1      27.537  -0.533  52.964  1.00  0.00     0.042 A 
HETATM   25  C18 UNL     1      26.572   0.443  52.724  1.00  0.00     0.053 A 
HETATM   26 CL1  UNL     1      27.167  -2.197  52.583  1.00  0.00    -0.084 Cl
ENDBRANCH  17  19
ENDBRANCH   1  17
TORSDOF 2
ENDMDL
MODEL 2
REMARK VINA RESULT:      -8.9      3.517      6.839
REMARK  2 active torsions:
REMARK  status: ('A' for Active; 'I' for Inactive)
REMARK    1  A    between atoms: C5_5  and  N1_6 
REMARK    2  A    between atoms: N1_6  and  C6_7 
ROOT
HETATM    1  C6  UNL     1      26.009   1.664  52.329  1.00  0.00     0.132 C 
HETATM    2  C7  UNL     1      25.987   0.375  51.909  1.00  0.00     0.090 C 
HETATM    3  C8  UNL     1      25.410  -0.263  53.016  1.00  0.00     0.106 C 
HETATM    4  C9  UNL     1      26.002  -0.850  54.128  1.00  0.00     0.106 C 
HETATM    5  C10 UNL     1      27.338  -0.706  53.995  1.00  0.00    -0.024 A 
HETATM    6  C11 UNL     1      28.501  -0.208  54.596  1.00  0.00     0.079 A 
HETATM    7  C12 UNL     1      28.672   0.467  53.382  1.00  0.00     0.031 A 
HETATM    8  N2  UNL     1      28.904   1.793  53.285  1.00  0.00    -0.249 NA
HETATM    9  C13 UNL     1      27.880   2.668  53.434  1.00  0.00     0.235 C 
HETATM   10  N3  UNL     1      26.560   2.587  53.128  1.00  0.00    -0.224 NA
HETATM   11  C14 UNL     1      28.430  -0.973  53.073  1.00  0.00     0.064 A 
HETATM   12  C15 UNL     1      29.544  -1.864  53.489  1.00  0.00     0.021 C 
HETATM   13  O1  UNL     1      25.210  -1.418  55.080  1.00  0.00    -0.346 OA
HETATM   14  C16 UNL     1      23.914  -0.828  55.261  1.00  0.00     0.202 C 
HETATM   15  C17 UNL     1      23.226  -0.974  53.907  1.00  0.00     0.202 C 
HETATM   16  O2  UNL     1      24.030  -0.288  52.944  1.00  0.00    -0.346 OA
ENDROOT
BRANCH   1  17
HETATM   17  N1  UNL     1      25.046   2.547  51.707  1.00  0.00    -0.341 N 
HETATM   18  H6  UNL     1      24.022   2.394  51.946  1.00  0.00     0.167 HD
BRANCH  17  19
HETATM   19  C5  UNL     1      25.443   3.592  50.788  1.00  0.00     0.035 A 
HETATM   20  C4  UNL     1      26.507   3.278  49.951  1.00  0.00     0.030 A 
HETATM   21  C3  UNL     1      26.922   4.275  49.120  1.00  0.00     0.011 A 
HETATM   22  C2  UNL     1      26.287   5.516  49.140  1.00  0.00    -0.040 A 
HETATM   23  C1  UNL     1      26.806   6.559  48.237  1.00  0.00     0.050 C 
HETATM   24  C19 UNL     1      25.241   5.756  49.989  1.00  0.00     0.042 A 
HETATM   25  C18 UNL     1      24.765   4.785  50.866  1.00  0.00     0.053 A 
HETATM   26 CL1  UNL     1      24.485   7.330  49.981  1.00  0.00    -0.084 Cl
ENDBRANCH  17  19
ENDBRANCH   1  17
TORSDOF 2
ENDMDL
MODEL 3
REMARK VINA RESULT:      -8.8      2.057      3.280
REMARK  2 active torsions:
REMARK  status: ('A' for Active; 'I' for Inactive)
REMARK    1  A    between atoms: C5_5  and  N1_6 
REMARK    2  A    between atoms: N1_6  and  C6_7 
ROOT
HETATM    1  C6  UNL     1      25.372   2.892  52.184  1.00  0.00     0.132 C 
HETATM    2  C7  UNL     1      24.149   3.380  52.509  1.00  0.00     0.090 C 
HETATM    3  C8  UNL     1      23.338   2.260  52.277  1.00  0.00     0.106 C 
HETATM    4  C9  UNL     1      22.651   1.865  51.134  1.00  0.00     0.106 C 
HETATM    5  C10 UNL     1      22.896   2.788  50.180  1.00  0.00    -0.024 A 
HETATM    6  C11 UNL     1      23.385   2.992  48.883  1.00  0.00     0.079 A 
HETATM    7  C12 UNL     1      24.220   3.932  49.496  1.00  0.00     0.031 A 
HETATM    8  N2  UNL     1      25.560   3.967  49.335  1.00  0.00    -0.249 NA
HETATM    9  C13 UNL     1      26.341   3.086  50.005  1.00  0.00     0.235 C 
HETATM   10  N3  UNL     1      26.217   2.500  51.222  1.00  0.00    -0.224 NA
HETATM   11  C14 UNL     1      22.820   4.217  49.926  1.00  0.00     0.064 A 
HETATM   12  C15 UNL     1      21.954   4.727  48.829  1.00  0.00     0.021 C 
HETATM   13  O1  UNL     1      21.917   0.718  51.164  1.00  0.00    -0.346 OA
HETATM   14  C16 UNL     1      22.394  -0.318  52.034  1.00  0.00     0.202 C 
HETATM   15  C17 UNL     1      22.381   0.303  53.427  1.00  0.00     0.202 C 
HETATM   16  O2  UNL     1      23.235   1.449  53.391  1.00  0.00    -0.346 OA
ENDROOT
BRANCH   1  17
HETATM   17  N1  UNL     1      26.264   2.638  53.294  1.00  0.00    -0.341 N 
HETATM   18  H6  UNL     1      26.286   3.360  54.074  1.00  0.00     0.167 HD
BRANCH  17  19
HETATM   19  C5  UNL     1      27.105   1.462  53.352  1.00  0.00     0.035 A 
HETATM   20  C4  UNL     1      28.405   1.680  53.794  1.00  0.00     0.030 A 
HETATM   21  C3  UNL     1      29.220   0.588  53.800  1.00  0.00     0.011 A 
HETATM   22  C2  UNL     1      28.737  -0.651  53.383  1.00  0.00    -0.040 A 
HETATM   23  C1  UNL     1      29.681  -1.784  53.386  1.00  0.00     0.050 C 
HETATM   24  C19 UNL     1      27.443  -0.795  52.962  1.00  0.00     0.042 A 
HETATM   25  C18 UNL     1      26.554   0.277  52.928  1.00  0.00     0.053 A 
HETATM   26 CL1  UNL     1      26.890  -2.368  52.442  1.00  0.00    -0.084 Cl
ENDBRANCH  17  19
ENDBRANCH   1  17
TORSDOF 2
ENDMDL
MODEL 4
REMARK VINA RESULT:      -8.6      3.042      6.226
REMARK  2 active torsions:
REMARK  status: ('A' for Active; 'I' for Inactive)
REMARK    1  A    between atoms: C5_5  and  N1_6 
REMARK    2  A    between atoms: N1_6  and  C6_7 
ROOT
HETATM    1  C6  UNL     1      24.230   2.319  52.446  1.00  0.00     0.132 C 
HETATM    2  C7  UNL     1      23.954   1.218  51.705  1.00  0.00     0.090 C 
HETATM    3  C8  UNL     1      23.200   0.461  52.612  1.00  0.00     0.106 C 
HETATM    4  C9  UNL     1      23.598  -0.507  53.528  1.00  0.00     0.106 C 
HETATM    5  C10 UNL     1      24.938  -0.630  53.425  1.00  0.00    -0.024 A 
HETATM    6  C11 UNL     1      26.150  -0.570  54.125  1.00  0.00     0.079 A 
HETATM    7  C12 UNL     1      26.521   0.339  53.128  1.00  0.00     0.031 A 
HETATM    8  N2  UNL     1      27.036   1.561  53.378  1.00  0.00    -0.249 NA
HETATM    9  C13 UNL     1      26.216   2.571  53.758  1.00  0.00     0.235 C 
HETATM   10  N3  UNL     1      24.927   2.863  53.453  1.00  0.00    -0.224 NA
HETATM   11  C14 UNL     1      25.992  -0.885  52.457  1.00  0.00     0.064 A 
HETATM   12  C15 UNL     1      26.868  -2.075  52.616  1.00  0.00     0.021 C 
HETATM   13  O1  UNL     1      22.657  -1.111  54.306  1.00  0.00    -0.346 OA
HETATM   14  C16 UNL     1      21.510  -0.318  54.645  1.00  0.00     0.202 C 
HETATM   15  C17 UNL     1      20.874   0.043  53.306  1.00  0.00     0.202 C 
HETATM   16  O2  UNL     1      21.852   0.758  52.548  1.00  0.00    -0.346 OA
ENDROOT
BRANCH   1  17
HETATM   17  N1  UNL     1      23.511   3.521  52.083  1.00  0.00    -0.341 N 
HETATM   18  H6  UNL     1      22.478   3.562  52.332  1.00  0.00     0.167 HD
BRANCH  17  19
HETATM   19  C5  UNL     1      24.151   4.625  51.402  1.00  0.00     0.035 A 
HETATM   20  C4  UNL     1      23.650   5.885  51.707  1.00  0.00     0.030 A 
HETATM   21  C3  UNL     1      24.210   6.925  51.029  1.00  0.00     0.011 A 
HETATM   22  C2  UNL     1      25.223   6.695  50.099  1.00  0.00    -0.040 A 
HETATM   23  C1  UNL     1      25.763   7.863  49.380  1.00  0.00     0.050 C 
HETATM   24  C19 UNL     1      25.671   5.427  49.850  1.00  0.00     0.042 A 
HETATM   25  C18 UNL     1      25.144   4.315  50.504  1.00  0.00     0.053 A 
HETATM   26 CL1  UNL     1      26.936   5.190  48.669  1.00  0.00    -0.084 Cl
ENDBRANCH  17  19
ENDBRANCH   1  17
TORSDOF 2
ENDMDL
MODEL 5
REMARK VINA RESULT:      -8.6      2.077      3.715
REMARK  2 active torsions:
REMARK  status: ('A' for Active; 'I' for Inactive)
REMARK    1  A    between atoms: C5_5  and  N1_6 
REMARK    2  A    between atoms: N1_6  and  C6_7 
ROOT
HETATM    1  C6  UNL     1      24.465   2.730  51.894  1.00  0.00     0.132 C 
HETATM    2  C7  UNL     1      23.852   3.644  52.685  1.00  0.00     0.090 C 
HETATM    3  C8  UNL     1      22.573   3.689  52.112  1.00  0.00     0.106 C 
HETATM    4  C9  UNL     1      22.061   4.511  51.115  1.00  0.00     0.106 C 
HETATM    5  C10 UNL     1      23.054   5.339  50.727  1.00  0.00    -0.024 A 
HETATM    6  C11 UNL     1      23.812   5.784  49.636  1.00  0.00     0.079 A 
HETATM    7  C12 UNL     1      24.908   5.432  50.433  1.00  0.00     0.031 A 
HETATM    8  N2  UNL     1      25.919   4.643  50.013  1.00  0.00    -0.249 NA
HETATM    9  C13 UNL     1      25.745   3.301  49.954  1.00  0.00     0.235 C 
HETATM   10  N3  UNL     1      25.007   2.443  50.703  1.00  0.00    -0.224 NA
HETATM   11  C14 UNL     1      24.010   6.300  51.250  1.00  0.00     0.064 A 
HETATM   12  C15 UNL     1      23.966   7.712  50.786  1.00  0.00     0.021 C 
HETATM   13  O1  UNL     1      20.763   4.356  50.729  1.00  0.00    -0.346 OA
HETATM   14  C16 UNL     1      20.226   3.029  50.826  1.00  0.00     0.202 C 
HETATM   15  C17 UNL     1      20.339   2.669  52.305  1.00  0.00     0.202 C 
HETATM   16  O2  UNL     1      21.722   2.746  52.658  1.00  0.00    -0.346 OA
ENDROOT
BRANCH   1  17
HETATM   17  N1  UNL     1      24.697   1.433  52.491  1.00  0.00    -0.341 N 
HETATM   18  H6  UNL     1      23.841   0.850  52.734  1.00  0.00     0.167 HD
BRANCH  17  19
HETATM   19  C5  UNL     1      26.029   0.938  52.763  1.00  0.00     0.035 A 
HETATM   20  C4  UNL     1      26.241  -0.401  52.455  1.00  0.00     0.030 A 
HETATM   21  C3  UNL     1      27.477  -0.890  52.758  1.00  0.00     0.011 A 
HETATM   22  C2  UNL     1      28.438  -0.062  53.336  1.00  0.00    -0.040 A 
HETATM   23  C1  UNL     1      29.743  -0.663  53.666  1.00  0.00     0.050 C 
HETATM   24  C19 UNL     1      28.161   1.250  53.610  1.00  0.00     0.042 A 
HETATM   25  C18 UNL     1      26.920   1.817  53.329  1.00  0.00     0.053 A 
HETATM   26 CL1  UNL     1      29.397   2.243  54.343  1.00  0.00    -0.084 Cl
ENDBRANCH  17  19
ENDBRANCH   1  17
TORSDOF 2
ENDMDL
MODEL 6
REMARK VINA RESULT:      -8.4      3.044      5.373
REMARK  2 active torsions:
REMARK  status: ('A' for Active; 'I' for Inactive)
REMARK    1  A    between atoms: C5_5  and  N1_6 
REMARK    2  A    between atoms: N1_6  and  C6_7 
ROOT
HETATM    1  C6  UNL     1      22.941   2.560  51.688  1.00  0.00     0.132 C 
HETATM    2  C7  UNL     1      23.187   2.524  53.021  1.00  0.00     0.090 C 
HETATM    3  C8  UNL     1      24.389   1.803  53.057  1.00  0.00     0.106 C 
HETATM    4  C9  UNL     1      24.618   0.438  53.184  1.00  0.00     0.106 C 
HETATM    5  C10 UNL     1      23.414  -0.165  53.271  1.00  0.00    -0.024 A 
HETATM    6  C11 UNL     1      22.578  -1.138  52.708  1.00  0.00     0.079 A 
HETATM    7  C12 UNL     1      21.646  -0.096  52.637  1.00  0.00     0.031 A 
HETATM    8  N2  UNL     1      20.973   0.234  51.515  1.00  0.00    -0.249 NA
HETATM    9  C13 UNL     1      21.593   0.947  50.544  1.00  0.00     0.235 C 
HETATM   10  N3  UNL     1      22.558   1.901  50.588  1.00  0.00    -0.224 NA
HETATM   11  C14 UNL     1      22.175  -0.140  54.031  1.00  0.00     0.064 A 
HETATM   12  C15 UNL     1      21.750  -1.346  54.790  1.00  0.00     0.021 C 
HETATM   13  O1  UNL     1      25.901  -0.022  53.196  1.00  0.00    -0.346 OA
HETATM   14  C16 UNL     1      26.853   0.736  52.435  1.00  0.00     0.202 C 
HETATM   15  C17 UNL     1      26.831   2.129  53.057  1.00  0.00     0.202 C 
HETATM   16  O2  UNL     1      25.495   2.625  52.945  1.00  0.00    -0.346 OA
ENDROOT
BRANCH   1  17
HETATM   17  N1  UNL     1      23.147   3.839  51.044  1.00  0.00    -0.341 N 
HETATM   18  H6  UNL     1      22.346   4.537  51.084  1.00  0.00     0.167 HD
BRANCH  17  19
HETATM   19  C5  UNL     1      24.379   4.167  50.361  1.00  0.00     0.035 A 
HETATM   20  C4  UNL     1      25.103   3.081  49.883  1.00  0.00     0.030 A 
HETATM   21  C3  UNL     1      26.292   3.378  49.287  1.00  0.00     0.011 A 
HETATM   22  C2  UNL     1      26.715   4.702  49.181  1.00  0.00    -0.040 A 
HETATM   23  C1  UNL     1      28.024   4.949  48.552  1.00  0.00     0.050 C 
HETATM   24  C19 UNL     1      25.949   5.725  49.673  1.00  0.00     0.042 A 
HETATM   25  C18 UNL     1      24.724   5.496  50.296  1.00  0.00     0.053 A 
HETATM   26 CL1  UNL     1      26.528   7.365  49.524  1.00  0.00    -0.084 Cl
ENDBRANCH  17  19
ENDBRANCH   1  17
TORSDOF 2
ENDMDL
MODEL 7
REMARK VINA RESULT:      -8.3      3.188      6.273
REMARK  2 active torsions:
REMARK  status: ('A' for Active; 'I' for Inactive)
REMARK    1  A    between atoms: C5_5  and  N1_6 
REMARK    2  A    between atoms: N1_6  and  C6_7 
ROOT
HETATM    1  C6  UNL     1      24.428   2.637  51.778  1.00  0.00     0.132 C 
HETATM    2  C7  UNL     1      24.403   2.515  53.128  1.00  0.00     0.090 C 
HETATM    3  C8  UNL     1      25.128   1.328  53.309  1.00  0.00     0.106 C 
HETATM    4  C9  UNL     1      24.694   0.010  53.386  1.00  0.00     0.106 C 
HETATM    5  C10 UNL     1      23.351   0.020  53.245  1.00  0.00    -0.024 A 
HETATM    6  C11 UNL     1      22.276  -0.478  52.498  1.00  0.00     0.079 A 
HETATM    7  C12 UNL     1      21.939   0.872  52.345  1.00  0.00     0.031 A 
HETATM    8  N2  UNL     1      21.686   1.453  51.153  1.00  0.00    -0.249 NA
HETATM    9  C13 UNL     1      22.714   1.791  50.338  1.00  0.00     0.235 C 
HETATM   10  N3  UNL     1      23.982   2.204  50.592  1.00  0.00    -0.224 NA
HETATM   11  C14 UNL     1      22.148   0.616  53.800  1.00  0.00     0.064 A 
HETATM   12  C15 UNL     1      21.106  -0.254  54.406  1.00  0.00     0.021 C 
HETATM   13  O1  UNL     1      25.611  -0.981  53.571  1.00  0.00    -0.346 OA
HETATM   14  C16 UNL     1      26.915  -0.750  53.019  1.00  0.00     0.202 C 
HETATM   15  C17 UNL     1      27.416   0.512  53.714  1.00  0.00     0.202 C 
HETATM   16  O2  UNL     1      26.486   1.557  53.423  1.00  0.00    -0.346 OA
ENDROOT
BRANCH   1  17
HETATM   17  N1  UNL     1      25.292   3.672  51.255  1.00  0.00    -0.341 N 
HETATM   18  H6  UNL     1      26.332   3.585  51.458  1.00  0.00     0.167 HD
BRANCH  17  19
HETATM   19  C5  UNL     1      24.778   4.791  50.494  1.00  0.00     0.035 A 
HETATM   20  C4  UNL     1      25.495   5.110  49.347  1.00  0.00     0.030 A 
HETATM   21  C3  UNL     1      25.050   6.196  48.654  1.00  0.00     0.011 A 
HETATM   22  C2  UNL     1      23.940   6.911  49.102  1.00  0.00    -0.040 A 
HETATM   23  C1  UNL     1      23.532   8.092  48.322  1.00  0.00     0.050 C 
HETATM   24  C19 UNL     1      23.279   6.538  50.241  1.00  0.00     0.042 A 
HETATM   25  C18 UNL     1      23.678   5.440  51.001  1.00  0.00     0.053 A 
HETATM   26 CL1  UNL     1      21.900   7.471  50.765  1.00  0.00    -0.084 Cl
ENDBRANCH  17  19
ENDBRANCH   1  17
TORSDOF 2
ENDMDL
MODEL 8
REMARK VINA RESULT:      -8.3      3.305      6.679
REMARK  2 active torsions:
REMARK  status: ('A' for Active; 'I' for Inactive)
REMARK    1  A    between atoms: C5_5  and  N1_6 
REMARK    2  A    between atoms: N1_6  and  C6_7 
ROOT
HETATM    1  C6  UNL     1      23.941   2.300  52.501  1.00  0.00     0.132 C 
HETATM    2  C7  UNL     1      23.724   1.173  51.780  1.00  0.00     0.090 C 
HETATM    3  C8  UNL     1      23.059   0.372  52.719  1.00  0.00     0.106 C 
HETATM    4  C9  UNL     1      23.558  -0.552  53.630  1.00  0.00     0.106 C 
HETATM    5  C10 UNL     1      24.899  -0.576  53.484  1.00  0.00    -0.024 A 
HETATM    6  C11 UNL     1      26.125  -0.418  54.143  1.00  0.00     0.079 A 
HETATM    7  C12 UNL     1      26.394   0.504  53.125  1.00  0.00     0.031 A 
HETATM    8  N2  UNL     1      26.824   1.764  53.346  1.00  0.00    -0.249 NA
HETATM    9  C13 UNL     1      25.944   2.715  53.743  1.00  0.00     0.235 C 
HETATM   10  N3  UNL     1      24.627   2.906  53.479  1.00  0.00    -0.224 NA
HETATM   11  C14 UNL     1      25.937  -0.763  52.483  1.00  0.00     0.064 A 
HETATM   12  C15 UNL     1      26.905  -1.883  52.624  1.00  0.00     0.021 C 
HETATM   13  O1  UNL     1      22.690  -1.216  54.444  1.00  0.00    -0.346 OA
HETATM   14  C16 UNL     1      21.499  -0.506  54.814  1.00  0.00     0.202 C 
HETATM   15  C17 UNL     1      20.794  -0.210  53.493  1.00  0.00     0.202 C 
HETATM   16  O2  UNL     1      21.691   0.567  52.697  1.00  0.00    -0.346 OA
ENDROOT
BRANCH   1  17
HETATM   17  N1  UNL     1      23.123   3.440  52.151  1.00  0.00    -0.341 N 
HETATM   18  H6  UNL     1      22.681   3.985  52.951  1.00  0.00     0.167 HD
BRANCH  17  19
HETATM   19  C5  UNL     1      22.895   3.832  50.777  1.00  0.00     0.035 A 
HETATM   20  C4  UNL     1      23.997   4.364  50.119  1.00  0.00     0.030 A 
HETATM   21  C3  UNL     1      23.778   4.785  48.841  1.00  0.00     0.011 A 
HETATM   22  C2  UNL     1      22.513   4.667  48.269  1.00  0.00    -0.040 A 
HETATM   23  C1  UNL     1      22.339   5.170  46.895  1.00  0.00     0.050 C 
HETATM   24  C19 UNL     1      21.471   4.129  48.975  1.00  0.00     0.042 A 
HETATM   25  C18 UNL     1      21.621   3.679  50.285  1.00  0.00     0.053 A 
HETATM   26 CL1  UNL     1      19.903   4.011  48.216  1.00  0.00    -0.084 Cl
ENDBRANCH  17  19
ENDBRANCH   1  17
TORSDOF 2
ENDMDL
MODEL 9
REMARK VINA RESULT:      -8.1      2.964      6.149
REMARK  2 active torsions:
REMARK  status: ('A' for Active; 'I' for Inactive)
REMARK    1  A    between atoms: C5_5  and  N1_6 
REMARK    2  A    between atoms: N1_6  and  C6_7 
ROOT
HETATM    1  C6  UNL     1      23.695   1.669  52.796  1.00  0.00     0.132 C 
HETATM    2  C7  UNL     1      24.539   2.614  53.279  1.00  0.00     0.090 C 
HETATM    3  C8  UNL     1      25.295   2.914  52.137  1.00  0.00     0.106 C 
HETATM    4  C9  UNL     1      26.491   2.373  51.680  1.00  0.00     0.106 C 
HETATM    5  C10 UNL     1      26.864   1.421  52.561  1.00  0.00    -0.024 A 
HETATM    6  C11 UNL     1      27.201   0.070  52.712  1.00  0.00     0.079 A 
HETATM    7  C12 UNL     1      26.203   0.075  53.693  1.00  0.00     0.031 A 
HETATM    8  N2  UNL     1      25.191  -0.817  53.741  1.00  0.00    -0.249 NA
HETATM    9  C13 UNL     1      24.134  -0.681  52.904  1.00  0.00     0.235 C 
HETATM   10  N3  UNL     1      23.526   0.410  52.373  1.00  0.00    -0.224 NA
HETATM   11  C14 UNL     1      27.126   1.213  53.975  1.00  0.00     0.064 A 
HETATM   12  C15 UNL     1      28.478   0.784  54.420  1.00  0.00     0.021 C 
HETATM   13  O1  UNL     1      27.035   2.847  50.524  1.00  0.00    -0.346 OA
HETATM   14  C16 UNL     1      26.109   3.324  49.537  1.00  0.00     0.202 C 
HETATM   15  C17 UNL     1      25.357   4.461  50.222  1.00  0.00     0.202 C 
HETATM   16  O2  UNL     1      24.719   3.915  51.377  1.00  0.00    -0.346 OA
ENDROOT
BRANCH   1  17
HETATM   17  N1  UNL     1      22.323   2.086  52.608  1.00  0.00    -0.341 N 
HETATM   18  H6  UNL     1      22.157   3.097  52.327  1.00  0.00     0.167 HD
BRANCH  17  19
HETATM   19  C5  UNL     1      21.210   1.180  52.799  1.00  0.00     0.035 A 
HETATM   20  C4  UNL     1      21.203   0.492  54.007  1.00  0.00     0.030 A 
HETATM   21  C3  UNL     1      20.189  -0.403  54.173  1.00  0.00     0.011 A 
HETATM   22  C2  UNL     1      19.238  -0.582  53.170  1.00  0.00    -0.040 A 
HETATM   23  C1  UNL     1      18.186  -1.587  53.402  1.00  0.00     0.050 C 
HETATM   24  C19 UNL     1      19.304   0.133  52.004  1.00  0.00     0.042 A 
HETATM   25  C18 UNL     1      20.313   1.064  51.765  1.00  0.00     0.053 A 
HETATM   26 CL1  UNL     1      18.093  -0.134  50.775  1.00  0.00    -0.084 Cl
ENDBRANCH  17  19
ENDBRANCH   1  17
TORSDOF 2
ENDMDL
