MODEL 1
REMARK VINA RESULT:      -6.8      0.000      0.000
REMARK  10 active torsions:
REMARK  status: ('A' for Active; 'I' for Inactive)
REMARK    1  A    between atoms: O1_2  and  C2_3 
REMARK    2  A    between atoms: C4_6  and  C5_7 
REMARK    3  A    between atoms: C5_7  and  C6_8 
REMARK    4  A    between atoms: C5_7  and  O6_28 
REMARK    5  A    between atoms: C6_8  and  C7_9 
REMARK    6  A    between atoms: C10_14  and  N2_15 
REMARK    7  A    between atoms: N2_15  and  C11_16 
REMARK    8  A    between atoms: C13_18  and  O3_19 
REMARK    9  A    between atoms: C15_21  and  O4_22 
REMARK   10  A    between atoms: C17_24  and  O5_25 
ROOT
HETATM    1  C7  UNL     1      23.702   3.454  52.348  1.00  0.00    -0.006 C 
HETATM    2  C8  UNL     1      23.359   4.890  52.545  1.00  0.00     0.075 C 
HETATM    3  P1  UNL     1      23.779   5.685  50.903  1.00  0.00    -0.104 P 
HETATM    4  C9  UNL     1      22.999   4.590  49.628  1.00  0.00     0.182 C 
HETATM    5  N1  UNL     1      22.889   3.236  50.056  1.00  0.00    -0.268 NA
HETATM    6  C10 UNL     1      23.183   2.751  51.195  1.00  0.00     0.130 C 
HETATM    7  H8  UNL     1      23.142   6.993  50.804  1.00  0.00     0.059 HD
ENDROOT
BRANCH   6   8
HETATM    8  N2  UNL     1      22.944   1.328  51.250  1.00  0.00    -0.341 N 
HETATM    9  H11 UNL     1      23.631   0.714  50.711  1.00  0.00     0.167 HD
BRANCH   8  10
HETATM   10  C11 UNL     1      21.876   0.691  51.971  1.00  0.00     0.039 A 
HETATM   11  C12 UNL     1      22.110  -0.075  53.090  1.00  0.00     0.069 A 
HETATM   12  C13 UNL     1      21.036  -0.673  53.739  1.00  0.00     0.106 A 
HETATM   13  C15 UNL     1      19.734  -0.503  53.271  1.00  0.00     0.135 A 
HETATM   14  C17 UNL     1      19.529   0.281  52.135  1.00  0.00     0.106 A 
HETATM   15  C19 UNL     1      20.593   0.855  51.517  1.00  0.00     0.069 A 
BRANCH  12  16
HETATM   16  O3  UNL     1      21.181  -1.462  54.872  1.00  0.00    -0.353 OA
HETATM   17  C14 UNL     1      22.512  -1.688  55.322  1.00  0.00     0.210 C 
ENDBRANCH  12  16
BRANCH  13  18
HETATM   18  O4  UNL     1      18.664  -1.105  53.927  1.00  0.00    -0.351 OA
HETATM   19  C16 UNL     1      18.274  -2.387  53.473  1.00  0.00     0.210 C 
ENDBRANCH  13  18
BRANCH  14  20
HETATM   20  O5  UNL     1      18.209   0.408  51.730  1.00  0.00    -0.353 OA
HETATM   21  C18 UNL     1      17.665   1.690  51.422  1.00  0.00     0.210 C 
ENDBRANCH  14  20
ENDBRANCH   8  10
ENDBRANCH   6   8
BRANCH   1  22
HETATM   22  C6  UNL     1      24.451   2.771  53.143  1.00  0.00     0.051 C 
BRANCH  22  23
HETATM   23  C5  UNL     1      25.627   1.940  52.977  1.00  0.00     0.105 C 
BRANCH  23  24
HETATM   24  C4  UNL     1      26.054   0.766  53.275  1.00  0.00     0.143 A 
HETATM   25  C2  UNL     1      26.665  -0.397  53.820  1.00  0.00     0.127 A 
HETATM   26  C3  UNL     1      26.167  -1.225  52.970  1.00  0.00     0.182 A 
HETATM   27  O2  UNL     1      25.535  -0.165  52.369  1.00  0.00    -0.314 OA
BRANCH  25  28
HETATM   28  O1  UNL     1      27.452  -0.177  54.920  1.00  0.00    -0.351 OA
HETATM   29  C1  UNL     1      28.700   0.444  54.777  1.00  0.00     0.210 C 
ENDBRANCH  25  28
ENDBRANCH  23  24
BRANCH  23  30
HETATM   30  O6  UNL     1      26.743   2.415  52.296  1.00  0.00    -0.353 OA
HETATM   31  C20 UNL     1      26.679   2.762  50.907  1.00  0.00     0.210 C 
ENDBRANCH  23  30
ENDBRANCH  22  23
ENDBRANCH   1  22
TORSDOF 10
ENDMDL
MODEL 2
REMARK VINA RESULT:      -6.7      0.284      2.416
REMARK  10 active torsions:
REMARK  status: ('A' for Active; 'I' for Inactive)
REMARK    1  A    between atoms: O1_2  and  C2_3 
REMARK    2  A    between atoms: C4_6  and  C5_7 
REMARK    3  A    between atoms: C5_7  and  C6_8 
REMARK    4  A    between atoms: C5_7  and  O6_28 
REMARK    5  A    between atoms: C6_8  and  C7_9 
REMARK    6  A    between atoms: C10_14  and  N2_15 
REMARK    7  A    between atoms: N2_15  and  C11_16 
REMARK    8  A    between atoms: C13_18  and  O3_19 
REMARK    9  A    between atoms: C15_21  and  O4_22 
REMARK   10  A    between atoms: C17_24  and  O5_25 
ROOT
HETATM    1  C7  UNL     1      23.661   3.455  52.296  1.00  0.00    -0.006 C 
HETATM    2  C8  UNL     1      23.335   4.898  52.477  1.00  0.00     0.075 C 
HETATM    3  P1  UNL     1      23.824   5.680  50.848  1.00  0.00    -0.104 P 
HETATM    4  C9  UNL     1      23.069   4.595  49.551  1.00  0.00     0.182 C 
HETATM    5  N1  UNL     1      22.921   3.245  49.977  1.00  0.00    -0.268 NA
HETATM    6  C10 UNL     1      23.169   2.758  51.127  1.00  0.00     0.130 C 
HETATM    7  H8  UNL     1      23.212   6.999  50.725  1.00  0.00     0.059 HD
ENDROOT
BRANCH   6   8
HETATM    8  N2  UNL     1      22.904   1.339  51.177  1.00  0.00    -0.341 N 
HETATM    9  H11 UNL     1      23.625   0.708  50.706  1.00  0.00     0.167 HD
BRANCH   8  10
HETATM   10  C11 UNL     1      21.769   0.727  51.813  1.00  0.00     0.039 A 
HETATM   11  C12 UNL     1      20.510   0.781  51.261  1.00  0.00     0.069 A 
HETATM   12  C13 UNL     1      19.451   0.178  51.928  1.00  0.00     0.106 A 
HETATM   13  C15 UNL     1      19.651  -0.476  53.142  1.00  0.00     0.135 A 
HETATM   14  C17 UNL     1      20.940  -0.515  53.676  1.00  0.00     0.106 A 
HETATM   15  C19 UNL     1      21.959   0.081  53.006  1.00  0.00     0.069 A 
BRANCH  12  16
HETATM   16  O3  UNL     1      18.149   0.185  51.445  1.00  0.00    -0.353 OA
HETATM   17  C14 UNL     1      17.886   1.045  50.342  1.00  0.00     0.210 C 
ENDBRANCH  12  16
BRANCH  13  18
HETATM   18  O4  UNL     1      18.584  -1.077  53.805  1.00  0.00    -0.351 OA
HETATM   19  C16 UNL     1      18.324  -2.434  53.499  1.00  0.00     0.210 C 
ENDBRANCH  13  18
BRANCH  14  20
HETATM   20  O5  UNL     1      21.064  -1.185  54.883  1.00  0.00    -0.353 OA
HETATM   21  C18 UNL     1      22.322  -1.723  55.288  1.00  0.00     0.210 C 
ENDBRANCH  14  20
ENDBRANCH   8  10
ENDBRANCH   6   8
BRANCH   1  22
HETATM   22  C6  UNL     1      24.371   2.762  53.116  1.00  0.00     0.051 C 
BRANCH  22  23
HETATM   23  C5  UNL     1      25.568   1.953  53.001  1.00  0.00     0.105 C 
BRANCH  23  24
HETATM   24  C4  UNL     1      25.994   0.776  53.292  1.00  0.00     0.143 A 
HETATM   25  C2  UNL     1      26.601  -0.391  53.831  1.00  0.00     0.127 A 
HETATM   26  C3  UNL     1      26.116  -1.211  52.966  1.00  0.00     0.182 A 
HETATM   27  O2  UNL     1      25.489  -0.145  52.369  1.00  0.00    -0.314 OA
BRANCH  25  28
HETATM   28  O1  UNL     1      27.373  -0.182  54.943  1.00  0.00    -0.351 OA
HETATM   29  C1  UNL     1      28.649   0.384  54.815  1.00  0.00     0.210 C 
ENDBRANCH  25  28
ENDBRANCH  23  24
BRANCH  23  30
HETATM   30  O6  UNL     1      26.717   2.463  52.406  1.00  0.00    -0.353 OA
HETATM   31  C20 UNL     1      26.762   2.766  51.007  1.00  0.00     0.210 C 
ENDBRANCH  23  30
ENDBRANCH  22  23
ENDBRANCH   1  22
TORSDOF 10
ENDMDL
MODEL 3
REMARK VINA RESULT:      -6.7      3.862      8.331
REMARK  10 active torsions:
REMARK  status: ('A' for Active; 'I' for Inactive)
REMARK    1  A    between atoms: O1_2  and  C2_3 
REMARK    2  A    between atoms: C4_6  and  C5_7 
REMARK    3  A    between atoms: C5_7  and  C6_8 
REMARK    4  A    between atoms: C5_7  and  O6_28 
REMARK    5  A    between atoms: C6_8  and  C7_9 
REMARK    6  A    between atoms: C10_14  and  N2_15 
REMARK    7  A    between atoms: N2_15  and  C11_16 
REMARK    8  A    between atoms: C13_18  and  O3_19 
REMARK    9  A    between atoms: C15_21  and  O4_22 
REMARK   10  A    between atoms: C17_24  and  O5_25 
ROOT
HETATM    1  C7  UNL     1      24.826   2.352  51.705  1.00  0.00    -0.006 C 
HETATM    2  C8  UNL     1      24.719   2.442  53.188  1.00  0.00     0.075 C 
HETATM    3  P1  UNL     1      26.180   1.450  53.807  1.00  0.00    -0.104 P 
HETATM    4  C9  UNL     1      27.626   2.066  52.827  1.00  0.00     0.182 C 
HETATM    5  N1  UNL     1      27.254   2.554  51.542  1.00  0.00    -0.268 NA
HETATM    6  C10 UNL     1      26.081   2.676  51.063  1.00  0.00     0.130 C 
HETATM    7  H8  UNL     1      26.438   1.764  55.209  1.00  0.00     0.059 HD
ENDROOT
BRANCH   6   8
HETATM    8  N2  UNL     1      26.103   3.201  49.717  1.00  0.00    -0.341 N 
HETATM    9  H11 UNL     1      25.802   2.528  48.945  1.00  0.00     0.167 HD
BRANCH   8  10
HETATM   10  C11 UNL     1      26.482   4.539  49.353  1.00  0.00     0.039 A 
HETATM   11  C12 UNL     1      27.647   4.804  48.671  1.00  0.00     0.069 A 
HETATM   12  C13 UNL     1      27.963   6.120  48.356  1.00  0.00     0.106 A 
HETATM   13  C15 UNL     1      27.116   7.165  48.721  1.00  0.00     0.135 A 
HETATM   14  C17 UNL     1      25.941   6.864  49.410  1.00  0.00     0.106 A 
HETATM   15  C19 UNL     1      25.654   5.571  49.708  1.00  0.00     0.069 A 
BRANCH  12  16
HETATM   16  O3  UNL     1      29.116   6.478  47.671  1.00  0.00    -0.353 OA
HETATM   17  C14 UNL     1      30.285   5.717  47.954  1.00  0.00     0.210 C 
ENDBRANCH  12  16
BRANCH  13  18
HETATM   18  O4  UNL     1      27.440   8.481  48.401  1.00  0.00    -0.351 OA
HETATM   19  C16 UNL     1      28.202   9.202  49.350  1.00  0.00     0.210 C 
ENDBRANCH  13  18
BRANCH  14  20
HETATM   20  O5  UNL     1      25.147   7.952  49.737  1.00  0.00    -0.353 OA
HETATM   21  C18 UNL     1      24.132   7.836  50.733  1.00  0.00     0.210 C 
ENDBRANCH  14  20
ENDBRANCH   8  10
ENDBRANCH   6   8
BRANCH   1  22
HETATM   22  C6  UNL     1      23.864   1.994  50.928  1.00  0.00     0.051 C 
BRANCH  22  23
HETATM   23  C5  UNL     1      22.511   1.512  51.131  1.00  0.00     0.105 C 
BRANCH  23  24
HETATM   24  C4  UNL     1      21.580   1.533  52.016  1.00  0.00     0.143 A 
HETATM   25  C2  UNL     1      20.498   1.823  52.892  1.00  0.00     0.127 A 
HETATM   26  C3  UNL     1      20.518   0.696  53.513  1.00  0.00     0.182 A 
HETATM   27  O2  UNL     1      21.571   0.323  52.715  1.00  0.00    -0.314 OA
BRANCH  25  28
HETATM   28  O1  UNL     1      19.934   3.061  52.727  1.00  0.00    -0.351 OA
HETATM   29  C1  UNL     1      19.227   3.359  51.555  1.00  0.00     0.210 C 
ENDBRANCH  25  28
ENDBRANCH  23  24
BRANCH  23  30
HETATM   30  O6  UNL     1      21.864   0.774  50.146  1.00  0.00    -0.353 OA
HETATM   31  C20 UNL     1      21.377   1.391  48.949  1.00  0.00     0.210 C 
ENDBRANCH  23  30
ENDBRANCH  22  23
ENDBRANCH   1  22
TORSDOF 10
ENDMDL
MODEL 4
REMARK VINA RESULT:      -6.6      1.798      6.268
REMARK  10 active torsions:
REMARK  status: ('A' for Active; 'I' for Inactive)
REMARK    1  A    between atoms: O1_2  and  C2_3 
REMARK    2  A    between atoms: C4_6  and  C5_7 
REMARK    3  A    between atoms: C5_7  and  C6_8 
REMARK    4  A    between atoms: C5_7  and  O6_28 
REMARK    5  A    between atoms: C6_8  and  C7_9 
REMARK    6  A    between atoms: C10_14  and  N2_15 
REMARK    7  A    between atoms: N2_15  and  C11_16 
REMARK    8  A    between atoms: C13_18  and  O3_19 
REMARK    9  A    between atoms: C15_21  and  O4_22 
REMARK   10  A    between atoms: C17_24  and  O5_25 
ROOT
HETATM    1  C7  UNL     1      22.515   3.803  51.008  1.00  0.00    -0.006 C 
HETATM    2  C8  UNL     1      22.153   3.665  49.569  1.00  0.00     0.075 C 
HETATM    3  P1  UNL     1      22.818   5.230  48.785  1.00  0.00    -0.104 P 
HETATM    4  C9  UNL     1      24.554   5.381  49.415  1.00  0.00     0.182 C 
HETATM    5  N1  UNL     1      24.731   4.781  50.695  1.00  0.00    -0.268 NA
HETATM    6  C10 UNL     1      23.880   4.118  51.371  1.00  0.00     0.130 C 
HETATM    7  H8  UNL     1      22.892   5.068  47.337  1.00  0.00     0.059 HD
ENDROOT
BRANCH   6   8
HETATM    8  N2  UNL     1      24.425   3.675  52.632  1.00  0.00    -0.341 N 
HETATM    9  H11 UNL     1      24.428   4.392  53.423  1.00  0.00     0.167 HD
BRANCH   8  10
HETATM   10  C11 UNL     1      24.944   2.361  52.898  1.00  0.00     0.039 A 
HETATM   11  C12 UNL     1      24.118   1.294  53.171  1.00  0.00     0.069 A 
HETATM   12  C13 UNL     1      24.680   0.050  53.429  1.00  0.00     0.106 A 
HETATM   13  C15 UNL     1      26.063  -0.126  53.413  1.00  0.00     0.135 A 
HETATM   14  C17 UNL     1      26.874   0.974  53.132  1.00  0.00     0.106 A 
HETATM   15  C19 UNL     1      26.302   2.180  52.883  1.00  0.00     0.069 A 
BRANCH  12  16
HETATM   16  O3  UNL     1      23.923  -1.078  53.714  1.00  0.00    -0.353 OA
HETATM   17  C14 UNL     1      23.317  -1.128  55.000  1.00  0.00     0.210 C 
ENDBRANCH  12  16
BRANCH  13  18
HETATM   18  O4  UNL     1      26.618  -1.376  53.673  1.00  0.00    -0.351 OA
HETATM   19  C16 UNL     1      26.934  -2.182  52.554  1.00  0.00     0.210 C 
ENDBRANCH  13  18
BRANCH  14  20
HETATM   20  O5  UNL     1      28.237   0.723  53.130  1.00  0.00    -0.353 OA
HETATM   21  C18 UNL     1      29.043   1.085  54.250  1.00  0.00     0.210 C 
ENDBRANCH  14  20
ENDBRANCH   8  10
ENDBRANCH   6   8
BRANCH   1  22
HETATM   22  C6  UNL     1      21.684   3.665  51.982  1.00  0.00     0.051 C 
BRANCH  22  23
HETATM   23  C5  UNL     1      20.492   2.870  52.204  1.00  0.00     0.105 C 
BRANCH  23  24
HETATM   24  C4  UNL     1      20.141   1.646  52.375  1.00  0.00     0.143 A 
HETATM   25  C2  UNL     1      19.627   0.322  52.305  1.00  0.00     0.127 A 
HETATM   26  C3  UNL     1      20.090  -0.066  53.442  1.00  0.00     0.182 A 
HETATM   27  O2  UNL     1      20.625   1.188  53.604  1.00  0.00    -0.314 OA
BRANCH  25  28
HETATM   28  O1  UNL     1      18.922   0.033  51.166  1.00  0.00    -0.351 OA
HETATM   29  C1  UNL     1      17.525   0.143  51.159  1.00  0.00     0.210 C 
ENDBRANCH  25  28
ENDBRANCH  23  24
BRANCH  23  30
HETATM   30  O6  UNL     1      19.241   3.472  52.286  1.00  0.00    -0.353 OA
HETATM   31  C20 UNL     1      18.502   3.822  51.110  1.00  0.00     0.210 C 
ENDBRANCH  23  30
ENDBRANCH  22  23
ENDBRANCH   1  22
TORSDOF 10
ENDMDL
MODEL 5
REMARK VINA RESULT:      -6.6      3.923      8.597
REMARK  10 active torsions:
REMARK  status: ('A' for Active; 'I' for Inactive)
REMARK    1  A    between atoms: O1_2  and  C2_3 
REMARK    2  A    between atoms: C4_6  and  C5_7 
REMARK    3  A    between atoms: C5_7  and  C6_8 
REMARK    4  A    between atoms: C5_7  and  O6_28 
REMARK    5  A    between atoms: C6_8  and  C7_9 
REMARK    6  A    between atoms: C10_14  and  N2_15 
REMARK    7  A    between atoms: N2_15  and  C11_16 
REMARK    8  A    between atoms: C13_18  and  O3_19 
REMARK    9  A    between atoms: C15_21  and  O4_22 
REMARK   10  A    between atoms: C17_24  and  O5_25 
ROOT
HETATM    1  C7  UNL     1      24.764   2.551  51.662  1.00  0.00    -0.006 C 
HETATM    2  C8  UNL     1      24.694   2.590  53.150  1.00  0.00     0.075 C 
HETATM    3  P1  UNL     1      26.047   1.418  53.698  1.00  0.00    -0.104 P 
HETATM    4  C9  UNL     1      27.535   1.911  52.711  1.00  0.00     0.182 C 
HETATM    5  N1  UNL     1      27.197   2.490  51.454  1.00  0.00    -0.268 NA
HETATM    6  C10 UNL     1      26.036   2.761  51.006  1.00  0.00     0.130 C 
HETATM    7  H8  UNL     1      26.362   1.644  55.105  1.00  0.00     0.059 HD
ENDROOT
BRANCH   6   8
HETATM    8  N2  UNL     1      26.093   3.335  49.682  1.00  0.00    -0.341 N 
HETATM    9  H11 UNL     1      25.819   2.690  48.877  1.00  0.00     0.167 HD
BRANCH   8  10
HETATM   10  C11 UNL     1      26.474   4.687  49.378  1.00  0.00     0.039 A 
HETATM   11  C12 UNL     1      25.724   5.764  49.792  1.00  0.00     0.069 A 
HETATM   12  C13 UNL     1      26.139   7.047  49.458  1.00  0.00     0.106 A 
HETATM   13  C15 UNL     1      27.299   7.252  48.714  1.00  0.00     0.135 A 
HETATM   14  C17 UNL     1      28.039   6.140  48.309  1.00  0.00     0.106 A 
HETATM   15  C19 UNL     1      27.614   4.896  48.647  1.00  0.00     0.069 A 
BRANCH  12  16
HETATM   16  O3  UNL     1      25.443   8.189  49.834  1.00  0.00    -0.353 OA
HETATM   17  C14 UNL     1      24.181   7.987  50.459  1.00  0.00     0.210 C 
ENDBRANCH  12  16
BRANCH  13  18
HETATM   18  O4  UNL     1      27.708   8.542  48.384  1.00  0.00    -0.351 OA
HETATM   19  C16 UNL     1      28.566   9.195  49.298  1.00  0.00     0.210 C 
ENDBRANCH  13  18
BRANCH  14  20
HETATM   20  O5  UNL     1      29.181   6.420  47.576  1.00  0.00    -0.353 OA
HETATM   21  C18 UNL     1      30.445   5.892  47.973  1.00  0.00     0.210 C 
ENDBRANCH  14  20
ENDBRANCH   8  10
ENDBRANCH   6   8
BRANCH   1  22
HETATM   22  C6  UNL     1      23.755   2.333  50.893  1.00  0.00     0.051 C 
BRANCH  22  23
HETATM   23  C5  UNL     1      22.456   1.712  51.062  1.00  0.00     0.105 C 
BRANCH  23  24
HETATM   24  C4  UNL     1      21.484   1.672  51.901  1.00  0.00     0.143 A 
HETATM   25  C2  UNL     1      20.363   1.903  52.745  1.00  0.00     0.127 A 
HETATM   26  C3  UNL     1      20.349   0.732  53.279  1.00  0.00     0.182 A 
HETATM   27  O2  UNL     1      21.438   0.412  52.505  1.00  0.00    -0.314 OA
BRANCH  25  28
HETATM   28  O1  UNL     1      19.812   3.154  52.649  1.00  0.00    -0.351 OA
HETATM   29  C1  UNL     1      19.063   3.504  51.518  1.00  0.00     0.210 C 
ENDBRANCH  25  28
ENDBRANCH  23  24
BRANCH  23  30
HETATM   30  O6  UNL     1      21.947   0.853  50.094  1.00  0.00    -0.353 OA
HETATM   31  C20 UNL     1      21.643   1.315  48.772  1.00  0.00     0.210 C 
ENDBRANCH  23  30
ENDBRANCH  22  23
ENDBRANCH   1  22
TORSDOF 10
ENDMDL
MODEL 6
REMARK VINA RESULT:      -6.6      3.355      7.190
REMARK  10 active torsions:
REMARK  status: ('A' for Active; 'I' for Inactive)
REMARK    1  A    between atoms: O1_2  and  C2_3 
REMARK    2  A    between atoms: C4_6  and  C5_7 
REMARK    3  A    between atoms: C5_7  and  C6_8 
REMARK    4  A    between atoms: C5_7  and  O6_28 
REMARK    5  A    between atoms: C6_8  and  C7_9 
REMARK    6  A    between atoms: C10_14  and  N2_15 
REMARK    7  A    between atoms: N2_15  and  C11_16 
REMARK    8  A    between atoms: C13_18  and  O3_19 
REMARK    9  A    between atoms: C15_21  and  O4_22 
REMARK   10  A    between atoms: C17_24  and  O5_25 
ROOT
HETATM    1  C7  UNL     1      24.081   1.918  51.934  1.00  0.00    -0.006 C 
HETATM    2  C8  UNL     1      22.972   0.939  52.114  1.00  0.00     0.075 C 
HETATM    3  P1  UNL     1      21.453   1.866  51.533  1.00  0.00    -0.104 P 
HETATM    4  C9  UNL     1      21.937   2.606  49.905  1.00  0.00     0.182 C 
HETATM    5  N1  UNL     1      23.333   2.870  49.812  1.00  0.00    -0.268 NA
HETATM    6  C10 UNL     1      24.239   2.585  50.660  1.00  0.00     0.130 C 
HETATM    7  H8  UNL     1      20.364   0.928  51.279  1.00  0.00     0.059 HD
ENDROOT
BRANCH   6   8
HETATM    8  N2  UNL     1      25.543   3.020  50.217  1.00  0.00    -0.341 N 
HETATM    9  H11 UNL     1      26.296   2.266  50.156  1.00  0.00     0.167 HD
BRANCH   8  10
HETATM   10  C11 UNL     1      25.889   4.366  49.848  1.00  0.00     0.039 A 
HETATM   11  C12 UNL     1      26.922   4.640  48.980  1.00  0.00     0.069 A 
HETATM   12  C13 UNL     1      27.214   5.962  48.670  1.00  0.00     0.106 A 
HETATM   13  C15 UNL     1      26.476   7.006  49.225  1.00  0.00     0.135 A 
HETATM   14  C17 UNL     1      25.434   6.697  50.101  1.00  0.00     0.106 A 
HETATM   15  C19 UNL     1      25.167   5.397  50.389  1.00  0.00     0.069 A 
BRANCH  12  16
HETATM   16  O3  UNL     1      28.237   6.328  47.806  1.00  0.00    -0.353 OA
HETATM   17  C14 UNL     1      29.549   5.909  48.162  1.00  0.00     0.210 C 
ENDBRANCH  12  16
BRANCH  13  18
HETATM   18  O4  UNL     1      26.775   8.329  48.909  1.00  0.00    -0.351 OA
HETATM   19  C16 UNL     1      27.681   9.001  49.762  1.00  0.00     0.210 C 
ENDBRANCH  13  18
BRANCH  14  20
HETATM   20  O5  UNL     1      24.742   7.784  50.611  1.00  0.00    -0.353 OA
HETATM   21  C18 UNL     1      23.454   8.126  50.104  1.00  0.00     0.210 C 
ENDBRANCH  14  20
ENDBRANCH   8  10
ENDBRANCH   6   8
BRANCH   1  22
HETATM   22  C6  UNL     1      24.929   2.231  52.850  1.00  0.00     0.051 C 
BRANCH  22  23
HETATM   23  C5  UNL     1      25.982   1.524  53.553  1.00  0.00     0.105 C 
BRANCH  23  24
HETATM   24  C4  UNL     1      27.264   1.448  53.589  1.00  0.00     0.143 A 
HETATM   25  C2  UNL     1      28.640   1.095  53.532  1.00  0.00     0.127 A 
HETATM   26  C3  UNL     1      29.090   2.224  53.954  1.00  0.00     0.182 A 
HETATM   27  O2  UNL     1      27.791   2.660  54.047  1.00  0.00    -0.314 OA
BRANCH  25  28
HETATM   28  O1  UNL     1      28.895  -0.177  53.091  1.00  0.00    -0.351 OA
HETATM   29  C1  UNL     1      29.869  -0.958  53.727  1.00  0.00     0.210 C 
ENDBRANCH  25  28
ENDBRANCH  23  24
BRANCH  23  30
HETATM   30  O6  UNL     1      25.677   0.592  54.539  1.00  0.00    -0.353 OA
HETATM   31  C20 UNL     1      25.447  -0.785  54.220  1.00  0.00     0.210 C 
ENDBRANCH  23  30
ENDBRANCH  22  23
ENDBRANCH   1  22
TORSDOF 10
ENDMDL
MODEL 7
REMARK VINA RESULT:      -6.6      4.098      8.647
REMARK  10 active torsions:
REMARK  status: ('A' for Active; 'I' for Inactive)
REMARK    1  A    between atoms: O1_2  and  C2_3 
REMARK    2  A    between atoms: C4_6  and  C5_7 
REMARK    3  A    between atoms: C5_7  and  C6_8 
REMARK    4  A    between atoms: C5_7  and  O6_28 
REMARK    5  A    between atoms: C6_8  and  C7_9 
REMARK    6  A    between atoms: C10_14  and  N2_15 
REMARK    7  A    between atoms: N2_15  and  C11_16 
REMARK    8  A    between atoms: C13_18  and  O3_19 
REMARK    9  A    between atoms: C15_21  and  O4_22 
REMARK   10  A    between atoms: C17_24  and  O5_25 
ROOT
HETATM    1  C7  UNL     1      24.829   2.413  51.817  1.00  0.00    -0.006 C 
HETATM    2  C8  UNL     1      24.812   2.469  53.306  1.00  0.00     0.075 C 
HETATM    3  P1  UNL     1      26.271   1.412  53.815  1.00  0.00    -0.104 P 
HETATM    4  C9  UNL     1      27.678   2.002  52.765  1.00  0.00     0.182 C 
HETATM    5  N1  UNL     1      27.249   2.535  51.515  1.00  0.00    -0.268 NA
HETATM    6  C10 UNL     1      26.056   2.709  51.109  1.00  0.00     0.130 C 
HETATM    7  H8  UNL     1      26.620   1.683  55.205  1.00  0.00     0.059 HD
ENDROOT
BRANCH   6   8
HETATM    8  N2  UNL     1      26.018   3.265  49.777  1.00  0.00    -0.341 N 
HETATM    9  H11 UNL     1      25.652   2.622  49.008  1.00  0.00     0.167 HD
BRANCH   8  10
HETATM   10  C11 UNL     1      26.419   4.600  49.422  1.00  0.00     0.039 A 
HETATM   11  C12 UNL     1      27.531   4.844  48.650  1.00  0.00     0.069 A 
HETATM   12  C13 UNL     1      27.872   6.157  48.349  1.00  0.00     0.106 A 
HETATM   13  C15 UNL     1      27.103   7.220  48.818  1.00  0.00     0.135 A 
HETATM   14  C17 UNL     1      25.980   6.941  49.597  1.00  0.00     0.106 A 
HETATM   15  C19 UNL     1      25.667   5.650  49.879  1.00  0.00     0.069 A 
BRANCH  12  16
HETATM   16  O3  UNL     1      28.976   6.494  47.578  1.00  0.00    -0.353 OA
HETATM   17  C14 UNL     1      30.232   5.983  48.010  1.00  0.00     0.210 C 
ENDBRANCH  12  16
BRANCH  13  18
HETATM   18  O4  UNL     1      27.452   8.533  48.511  1.00  0.00    -0.351 OA
HETATM   19  C16 UNL     1      28.310   9.196  49.419  1.00  0.00     0.210 C 
ENDBRANCH  13  18
BRANCH  14  20
HETATM   20  O5  UNL     1      25.262   8.046  50.025  1.00  0.00    -0.353 OA
HETATM   21  C18 UNL     1      23.995   7.887  50.661  1.00  0.00     0.210 C 
ENDBRANCH  14  20
ENDBRANCH   8  10
ENDBRANCH   6   8
BRANCH   1  22
HETATM   22  C6  UNL     1      23.811   2.107  51.090  1.00  0.00     0.051 C 
BRANCH  22  23
HETATM   23  C5  UNL     1      22.683   2.840  50.551  1.00  0.00     0.105 C 
BRANCH  23  24
HETATM   24  C4  UNL     1      22.428   3.783  49.716  1.00  0.00     0.143 A 
HETATM   25  C2  UNL     1      21.986   4.933  49.007  1.00  0.00     0.127 A 
HETATM   26  C3  UNL     1      22.616   4.674  47.916  1.00  0.00     0.182 A 
HETATM   27  O2  UNL     1      23.096   3.534  48.512  1.00  0.00    -0.314 OA
BRANCH  25  28
HETATM   28  O1  UNL     1      21.155   5.765  49.712  1.00  0.00    -0.351 OA
HETATM   29  C1  UNL     1      19.774   5.525  49.730  1.00  0.00     0.210 C 
ENDBRANCH  25  28
ENDBRANCH  23  24
BRANCH  23  30
HETATM   30  O6  UNL     1      21.386   2.554  50.963  1.00  0.00    -0.353 OA
HETATM   31  C20 UNL     1      20.913   2.938  52.260  1.00  0.00     0.210 C 
ENDBRANCH  23  30
ENDBRANCH  22  23
ENDBRANCH   1  22
TORSDOF 10
ENDMDL
MODEL 8
REMARK VINA RESULT:      -6.5      3.343      7.286
REMARK  10 active torsions:
REMARK  status: ('A' for Active; 'I' for Inactive)
REMARK    1  A    between atoms: O1_2  and  C2_3 
REMARK    2  A    between atoms: C4_6  and  C5_7 
REMARK    3  A    between atoms: C5_7  and  C6_8 
REMARK    4  A    between atoms: C5_7  and  O6_28 
REMARK    5  A    between atoms: C6_8  and  C7_9 
REMARK    6  A    between atoms: C10_14  and  N2_15 
REMARK    7  A    between atoms: N2_15  and  C11_16 
REMARK    8  A    between atoms: C13_18  and  O3_19 
REMARK    9  A    between atoms: C15_21  and  O4_22 
REMARK   10  A    between atoms: C17_24  and  O5_25 
ROOT
HETATM    1  C7  UNL     1      24.126   1.899  52.050  1.00  0.00    -0.006 C 
HETATM    2  C8  UNL     1      23.067   0.911  52.399  1.00  0.00     0.075 C 
HETATM    3  P1  UNL     1      21.470   1.794  51.983  1.00  0.00    -0.104 P 
HETATM    4  C9  UNL     1      21.734   2.484  50.283  1.00  0.00     0.182 C 
HETATM    5  N1  UNL     1      23.103   2.764  50.008  1.00  0.00    -0.268 NA
HETATM    6  C10 UNL     1      24.113   2.523  50.744  1.00  0.00     0.130 C 
HETATM    7  H8  UNL     1      20.376   0.833  51.898  1.00  0.00     0.059 HD
ENDROOT
BRANCH   6   8
HETATM    8  N2  UNL     1      25.343   2.961  50.128  1.00  0.00    -0.341 N 
HETATM    9  H11 UNL     1      26.026   2.192  49.840  1.00  0.00     0.167 HD
BRANCH   8  10
HETATM   10  C11 UNL     1      25.701   4.329  49.868  1.00  0.00     0.039 A 
HETATM   11  C12 UNL     1      25.005   5.380  50.419  1.00  0.00     0.069 A 
HETATM   12  C13 UNL     1      25.394   6.680  50.122  1.00  0.00     0.106 A 
HETATM   13  C15 UNL     1      26.475   6.928  49.278  1.00  0.00     0.135 A 
HETATM   14  C17 UNL     1      27.162   5.840  48.735  1.00  0.00     0.106 A 
HETATM   15  C19 UNL     1      26.763   4.579  49.039  1.00  0.00     0.069 A 
BRANCH  12  16
HETATM   16  O3  UNL     1      24.750   7.798  50.633  1.00  0.00    -0.353 OA
HETATM   17  C14 UNL     1      23.360   7.915  50.350  1.00  0.00     0.210 C 
ENDBRANCH  12  16
BRANCH  13  18
HETATM   18  O4  UNL     1      26.859   8.234  48.985  1.00  0.00    -0.351 OA
HETATM   19  C16 UNL     1      26.208   8.864  47.898  1.00  0.00     0.210 C 
ENDBRANCH  13  18
BRANCH  14  20
HETATM   20  O5  UNL     1      28.227   6.162  47.908  1.00  0.00    -0.353 OA
HETATM   21  C18 UNL     1      29.510   5.577  48.118  1.00  0.00     0.210 C 
ENDBRANCH  14  20
ENDBRANCH   8  10
ENDBRANCH   6   8
BRANCH   1  22
HETATM   22  C6  UNL     1      25.076   2.256  52.842  1.00  0.00     0.051 C 
BRANCH  22  23
HETATM   23  C5  UNL     1      26.122   1.558  53.564  1.00  0.00     0.105 C 
BRANCH  23  24
HETATM   24  C4  UNL     1      27.404   1.493  53.624  1.00  0.00     0.143 A 
HETATM   25  C2  UNL     1      28.784   1.158  53.575  1.00  0.00     0.127 A 
HETATM   26  C3  UNL     1      29.212   2.262  54.078  1.00  0.00     0.182 A 
HETATM   27  O2  UNL     1      27.907   2.678  54.170  1.00  0.00    -0.314 OA
BRANCH  25  28
HETATM   28  O1  UNL     1      29.063  -0.080  53.059  1.00  0.00    -0.351 OA
HETATM   29  C1  UNL     1      29.889  -0.965  53.766  1.00  0.00     0.210 C 
ENDBRANCH  25  28
ENDBRANCH  23  24
BRANCH  23  30
HETATM   30  O6  UNL     1      25.807   0.624  54.545  1.00  0.00    -0.353 OA
HETATM   31  C20 UNL     1      25.717  -0.774  54.244  1.00  0.00     0.210 C 
ENDBRANCH  23  30
ENDBRANCH  22  23
ENDBRANCH   1  22
TORSDOF 10
ENDMDL
MODEL 9
REMARK VINA RESULT:      -6.4      6.467      9.415
REMARK  10 active torsions:
REMARK  status: ('A' for Active; 'I' for Inactive)
REMARK    1  A    between atoms: O1_2  and  C2_3 
REMARK    2  A    between atoms: C4_6  and  C5_7 
REMARK    3  A    between atoms: C5_7  and  C6_8 
REMARK    4  A    between atoms: C5_7  and  O6_28 
REMARK    5  A    between atoms: C6_8  and  C7_9 
REMARK    6  A    between atoms: C10_14  and  N2_15 
REMARK    7  A    between atoms: N2_15  and  C11_16 
REMARK    8  A    between atoms: C13_18  and  O3_19 
REMARK    9  A    between atoms: C15_21  and  O4_22 
REMARK   10  A    between atoms: C17_24  and  O5_25 
ROOT
HETATM    1  C7  UNL     1      30.929   7.507  48.805  1.00  0.00    -0.006 C 
HETATM    2  C8  UNL     1      31.299   8.860  49.310  1.00  0.00     0.075 C 
HETATM    3  P1  UNL     1      31.603   9.855  47.754  1.00  0.00    -0.104 P 
HETATM    4  C9  UNL     1      30.141   9.510  46.671  1.00  0.00     0.182 C 
HETATM    5  N1  UNL     1      29.566   8.229  46.911  1.00  0.00    -0.268 NA
HETATM    6  C10 UNL     1      29.892   7.382  47.804  1.00  0.00     0.130 C 
HETATM    7  H8  UNL     1      31.589  11.281  48.065  1.00  0.00     0.059 HD
ENDROOT
BRANCH   6   8
HETATM    8  N2  UNL     1      29.085   6.187  47.730  1.00  0.00    -0.341 N 
HETATM    9  H11 UNL     1      29.442   5.417  47.083  1.00  0.00     0.167 HD
BRANCH   8  10
HETATM   10  C11 UNL     1      27.866   5.961  48.458  1.00  0.00     0.039 A 
HETATM   11  C12 UNL     1      27.059   6.998  48.865  1.00  0.00     0.069 A 
HETATM   12  C13 UNL     1      25.898   6.716  49.575  1.00  0.00     0.106 A 
HETATM   13  C15 UNL     1      25.547   5.401  49.876  1.00  0.00     0.135 A 
HETATM   14  C17 UNL     1      26.386   4.370  49.449  1.00  0.00     0.106 A 
HETATM   15  C19 UNL     1      27.515   4.671  48.757  1.00  0.00     0.069 A 
BRANCH  12  16
HETATM   16  O3  UNL     1      25.027   7.699  50.023  1.00  0.00    -0.353 OA
HETATM   17  C14 UNL     1      24.336   8.439  49.024  1.00  0.00     0.210 C 
ENDBRANCH  12  16
BRANCH  13  18
HETATM   18  O4  UNL     1      24.383   5.126  50.588  1.00  0.00    -0.351 OA
HETATM   19  C16 UNL     1      23.194   4.971  49.836  1.00  0.00     0.210 C 
ENDBRANCH  13  18
BRANCH  14  20
HETATM   20  O5  UNL     1      25.972   3.090  49.781  1.00  0.00    -0.353 OA
HETATM   21  C18 UNL     1      26.553   2.405  50.889  1.00  0.00     0.210 C 
ENDBRANCH  14  20
ENDBRANCH   8  10
ENDBRANCH   6   8
BRANCH   1  22
HETATM   22  C6  UNL     1      31.480   6.411  49.196  1.00  0.00     0.051 C 
BRANCH  22  23
HETATM   23  C5  UNL     1      32.484   5.520  48.649  1.00  0.00     0.105 C 
BRANCH  23  24
HETATM   24  C4  UNL     1      32.582   4.513  47.856  1.00  0.00     0.143 A 
HETATM   25  C2  UNL     1      32.975   3.430  47.024  1.00  0.00     0.127 A 
HETATM   26  C3  UNL     1      31.786   3.088  46.672  1.00  0.00     0.182 A 
HETATM   27  O2  UNL     1      31.306   4.112  47.450  1.00  0.00    -0.314 OA
BRANCH  25  28
HETATM   28  O1  UNL     1      34.327   3.216  46.949  1.00  0.00    -0.351 OA
HETATM   29  C1  UNL     1      35.054   3.701  45.854  1.00  0.00     0.210 C 
ENDBRANCH  25  28
ENDBRANCH  23  24
BRANCH  23  30
HETATM   30  O6  UNL     1      33.825   5.667  48.987  1.00  0.00    -0.353 OA
HETATM   31  C20 UNL     1      34.623   6.722  48.437  1.00  0.00     0.210 C 
ENDBRANCH  23  30
ENDBRANCH  22  23
ENDBRANCH   1  22
TORSDOF 10
ENDMDL
