MODEL 1
REMARK VINA RESULT:      -8.5      0.000      0.000
REMARK  5 active torsions:
REMARK  status: ('A' for Active; 'I' for Inactive)
REMARK    1  A    between atoms: C5_5  and  S1_6 
REMARK    2  A    between atoms: S1_6  and  N1_9 
REMARK    3  A    between atoms: N1_9  and  C6_10 
REMARK    4  A    between atoms: C6_10  and  O3_11 
REMARK    5  A    between atoms: C7_12  and  C8_13 
ROOT
HETATM    1  N1  UNL     1      26.888   0.681  52.254  1.00  0.00    -0.260 N 
HETATM    2  H6  UNL     1      26.972   0.088  51.384  1.00  0.00     0.181 HD
ENDROOT
BRANCH   1   3
HETATM    3  S1  UNL     1      26.660   0.031  53.819  1.00  0.00     0.264 S 
HETATM    4  O1  UNL     1      27.591  -1.158  53.937  1.00  0.00    -0.200 OA
HETATM    5  O2  UNL     1      27.036   1.022  54.886  1.00  0.00    -0.200 OA
BRANCH   3   6
HETATM    6  C5  UNL     1      25.031  -0.461  54.141  1.00  0.00     0.080 A 
HETATM    7  C4  UNL     1      24.105  -0.202  53.128  1.00  0.00     0.026 A 
HETATM    8  C3  UNL     1      22.764  -0.529  53.212  1.00  0.00     0.008 A 
HETATM    9  C2  UNL     1      22.305  -1.152  54.375  1.00  0.00    -0.062 A 
HETATM   10  C1  UNL     1      20.863  -1.486  54.423  1.00  0.00     0.048 C 
HETATM   11  C15 UNL     1      23.207  -1.406  55.370  1.00  0.00     0.008 A 
HETATM   12  C14 UNL     1      24.542  -1.074  55.269  1.00  0.00     0.026 A 
ENDBRANCH   3   6
ENDBRANCH   1   3
BRANCH   1  13
HETATM   13  C6  UNL     1      27.003   2.020  51.776  1.00  0.00     0.150 C 
HETATM   14  C7  UNL     1      26.257   2.423  50.739  1.00  0.00     0.068 C 
BRANCH  13  15
HETATM   15  O3  UNL     1      27.888   2.910  52.380  1.00  0.00    -0.346 OA
HETATM   16  H7  UNL     1      28.787   2.638  52.753  1.00  0.00     0.219 HD
ENDBRANCH  13  15
BRANCH  14  17
HETATM   17  C8  UNL     1      26.196   3.720  50.077  1.00  0.00    -0.032 A 
HETATM   18  C9  UNL     1      27.231   4.101  49.213  1.00  0.00     0.013 A 
HETATM   19  C10 UNL     1      27.263   5.304  48.548  1.00  0.00     0.020 A 
HETATM   20  C11 UNL     1      26.194   6.150  48.777  1.00  0.00     0.011 A 
HETATM   21 BR1  UNL     1      26.255   7.824  47.837  1.00  0.00    -0.051 Br
HETATM   22  C12 UNL     1      25.138   5.860  49.605  1.00  0.00     0.020 A 
HETATM   23  C13 UNL     1      25.160   4.626  50.251  1.00  0.00     0.013 A 
ENDBRANCH  14  17
ENDBRANCH   1  13
TORSDOF 5
ENDMDL
MODEL 2
REMARK VINA RESULT:      -7.9      3.001      4.044
REMARK  5 active torsions:
REMARK  status: ('A' for Active; 'I' for Inactive)
REMARK    1  A    between atoms: C5_5  and  S1_6 
REMARK    2  A    between atoms: S1_6  and  N1_9 
REMARK    3  A    between atoms: N1_9  and  C6_10 
REMARK    4  A    between atoms: C6_10  and  O3_11 
REMARK    5  A    between atoms: C7_12  and  C8_13 
ROOT
HETATM    1  N1  UNL     1      24.882   2.563  50.844  1.00  0.00    -0.260 N 
HETATM    2  H6  UNL     1      24.498   2.148  49.952  1.00  0.00     0.181 HD
ENDROOT
BRANCH   1   3
HETATM    3  S1  UNL     1      24.818   1.767  52.357  1.00  0.00     0.264 S 
HETATM    4  O1  UNL     1      24.644   2.844  53.409  1.00  0.00    -0.200 OA
HETATM    5  O2  UNL     1      23.637   0.841  52.442  1.00  0.00    -0.200 OA
BRANCH   3   6
HETATM    6  C5  UNL     1      26.225   0.821  52.709  1.00  0.00     0.080 A 
HETATM    7  C4  UNL     1      27.353   1.535  53.123  1.00  0.00     0.026 A 
HETATM    8  C3  UNL     1      28.559   0.944  53.447  1.00  0.00     0.008 A 
HETATM    9  C2  UNL     1      28.662  -0.446  53.357  1.00  0.00    -0.062 A 
HETATM   10  C1  UNL     1      29.971  -1.039  53.715  1.00  0.00     0.048 C 
HETATM   11  C15 UNL     1      27.563  -1.150  52.952  1.00  0.00     0.008 A 
HETATM   12  C14 UNL     1      26.365  -0.543  52.633  1.00  0.00     0.026 A 
ENDBRANCH   3   6
ENDBRANCH   1   3
BRANCH   1  13
HETATM   13  C6  UNL     1      25.398   3.831  50.447  1.00  0.00     0.150 C 
HETATM   14  C7  UNL     1      26.231   3.913  49.400  1.00  0.00     0.068 C 
BRANCH  13  15
HETATM   15  O3  UNL     1      25.043   4.986  51.140  1.00  0.00    -0.346 OA
HETATM   16  H7  UNL     1      24.251   5.563  50.897  1.00  0.00     0.219 HD
ENDBRANCH  13  15
BRANCH  14  17
HETATM   17  C8  UNL     1      26.883   5.075  48.810  1.00  0.00    -0.032 A 
HETATM   18  C9  UNL     1      28.260   5.035  48.552  1.00  0.00     0.013 A 
HETATM   19  C10 UNL     1      28.961   6.082  48.002  1.00  0.00     0.020 A 
HETATM   20  C11 UNL     1      28.226   7.214  47.705  1.00  0.00     0.011 A 
HETATM   21 BR1  UNL     1      29.222   8.663  46.935  1.00  0.00    -0.051 Br
HETATM   22  C12 UNL     1      26.876   7.341  47.923  1.00  0.00     0.020 A 
HETATM   23  C13 UNL     1      26.218   6.247  48.481  1.00  0.00     0.013 A 
ENDBRANCH  14  17
ENDBRANCH   1  13
TORSDOF 5
ENDMDL
MODEL 3
REMARK VINA RESULT:      -7.6      3.081      4.083
REMARK  5 active torsions:
REMARK  status: ('A' for Active; 'I' for Inactive)
REMARK    1  A    between atoms: C5_5  and  S1_6 
REMARK    2  A    between atoms: S1_6  and  N1_9 
REMARK    3  A    between atoms: N1_9  and  C6_10 
REMARK    4  A    between atoms: C6_10  and  O3_11 
REMARK    5  A    between atoms: C7_12  and  C8_13 
ROOT
HETATM    1  N1  UNL     1      23.879   4.054  50.707  1.00  0.00    -0.260 N 
HETATM    2  H6  UNL     1      23.313   3.909  49.827  1.00  0.00     0.181 HD
ENDROOT
BRANCH   1   3
HETATM    3  S1  UNL     1      23.531   3.275  52.189  1.00  0.00     0.264 S 
HETATM    4  O1  UNL     1      23.863   4.262  53.289  1.00  0.00    -0.200 OA
HETATM    5  O2  UNL     1      22.071   2.931  52.300  1.00  0.00    -0.200 OA
BRANCH   3   6
HETATM    6  C5  UNL     1      24.414   1.804  52.430  1.00  0.00     0.080 A 
HETATM    7  C4  UNL     1      25.665   1.737  51.812  1.00  0.00     0.026 A 
HETATM    8  C3  UNL     1      26.505   0.643  51.899  1.00  0.00     0.008 A 
HETATM    9  C2  UNL     1      26.083  -0.460  52.646  1.00  0.00    -0.062 A 
HETATM   10  C1  UNL     1      27.014  -1.610  52.714  1.00  0.00     0.048 C 
HETATM   11  C15 UNL     1      24.860  -0.400  53.252  1.00  0.00     0.008 A 
HETATM   12  C14 UNL     1      24.034   0.702  53.155  1.00  0.00     0.026 A 
ENDBRANCH   3   6
ENDBRANCH   1   3
BRANCH   1  13
HETATM   13  C6  UNL     1      24.889   4.985  50.324  1.00  0.00     0.150 C 
HETATM   14  C7  UNL     1      25.666   4.727  49.263  1.00  0.00     0.068 C 
BRANCH  13  15
HETATM   15  O3  UNL     1      25.074   6.161  51.048  1.00  0.00    -0.346 OA
HETATM   16  H7  UNL     1      24.740   6.295  51.991  1.00  0.00     0.219 HD
ENDBRANCH  13  15
BRANCH  14  17
HETATM   17  C8  UNL     1      26.750   5.508  48.683  1.00  0.00    -0.032 A 
HETATM   18  C9  UNL     1      26.480   6.782  48.165  1.00  0.00     0.013 A 
HETATM   19  C10 UNL     1      27.434   7.590  47.596  1.00  0.00     0.020 A 
HETATM   20  C11 UNL     1      28.716   7.074  47.553  1.00  0.00     0.011 A 
HETATM   21 BR1  UNL     1      30.037   8.219  46.757  1.00  0.00    -0.051 Br
HETATM   22  C12 UNL     1      29.072   5.839  48.036  1.00  0.00     0.020 A 
HETATM   23  C13 UNL     1      28.062   5.065  48.603  1.00  0.00     0.013 A 
ENDBRANCH  14  17
ENDBRANCH   1  13
TORSDOF 5
ENDMDL
MODEL 4
REMARK VINA RESULT:      -7.5      1.501      2.200
REMARK  5 active torsions:
REMARK  status: ('A' for Active; 'I' for Inactive)
REMARK    1  A    between atoms: C5_5  and  S1_6 
REMARK    2  A    between atoms: S1_6  and  N1_9 
REMARK    3  A    between atoms: N1_9  and  C6_10 
REMARK    4  A    between atoms: C6_10  and  O3_11 
REMARK    5  A    between atoms: C7_12  and  C8_13 
ROOT
HETATM    1  N1  UNL     1      26.310   0.954  53.689  1.00  0.00    -0.260 N 
HETATM    2  H6  UNL     1      27.328   1.159  53.877  1.00  0.00     0.181 HD
ENDROOT
BRANCH   1   3
HETATM    3  S1  UNL     1      25.537  -0.496  54.166  1.00  0.00     0.264 S 
HETATM    4  O1  UNL     1      26.225  -1.622  53.421  1.00  0.00    -0.200 OA
HETATM    5  O2  UNL     1      25.700  -0.747  55.639  1.00  0.00    -0.200 OA
BRANCH   3   6
HETATM    6  C5  UNL     1      23.837  -0.523  53.836  1.00  0.00     0.080 A 
HETATM    7  C4  UNL     1      23.033  -1.095  54.827  1.00  0.00     0.026 A 
HETATM    8  C3  UNL     1      21.658  -1.198  54.734  1.00  0.00     0.008 A 
HETATM    9  C2  UNL     1      21.032  -0.706  53.586  1.00  0.00    -0.062 A 
HETATM   10  C1  UNL     1      19.558  -0.835  53.527  1.00  0.00     0.048 C 
HETATM   11  C15 UNL     1      21.813  -0.147  52.613  1.00  0.00     0.008 A 
HETATM   12  C14 UNL     1      23.185  -0.051  52.723  1.00  0.00     0.026 A 
ENDBRANCH   3   6
ENDBRANCH   1   3
BRANCH   1  13
HETATM   13  C6  UNL     1      25.842   2.109  52.997  1.00  0.00     0.150 C 
HETATM   14  C7  UNL     1      25.950   2.176  51.662  1.00  0.00     0.068 C 
BRANCH  13  15
HETATM   15  O3  UNL     1      25.275   3.170  53.699  1.00  0.00    -0.346 OA
HETATM   16  H7  UNL     1      25.743   3.656  54.451  1.00  0.00     0.219 HD
ENDBRANCH  13  15
BRANCH  14  17
HETATM   17  C8  UNL     1      25.553   3.233  50.742  1.00  0.00    -0.032 A 
HETATM   18  C9  UNL     1      24.195   3.542  50.592  1.00  0.00     0.013 A 
HETATM   19  C10 UNL     1      23.725   4.518  49.746  1.00  0.00     0.020 A 
HETATM   20  C11 UNL     1      24.683   5.206  49.025  1.00  0.00     0.011 A 
HETATM   21 BR1  UNL     1      24.008   6.568  47.852  1.00  0.00    -0.051 Br
HETATM   22  C12 UNL     1      26.034   4.972  49.109  1.00  0.00     0.020 A 
HETATM   23  C13 UNL     1      26.450   3.971  49.983  1.00  0.00     0.013 A 
ENDBRANCH  14  17
ENDBRANCH   1  13
TORSDOF 5
ENDMDL
MODEL 5
REMARK VINA RESULT:      -7.5      6.599      9.052
REMARK  5 active torsions:
REMARK  status: ('A' for Active; 'I' for Inactive)
REMARK    1  A    between atoms: C5_5  and  S1_6 
REMARK    2  A    between atoms: S1_6  and  N1_9 
REMARK    3  A    between atoms: N1_9  and  C6_10 
REMARK    4  A    between atoms: C6_10  and  O3_11 
REMARK    5  A    between atoms: C7_12  and  C8_13 
ROOT
HETATM    1  N1  UNL     1      32.200   6.649  47.968  1.00  0.00    -0.260 N 
HETATM    2  H6  UNL     1      32.254   7.696  48.096  1.00  0.00     0.181 HD
ENDROOT
BRANCH   1   3
HETATM    3  S1  UNL     1      33.409   5.732  47.181  1.00  0.00     0.264 S 
HETATM    4  O1  UNL     1      33.460   6.218  45.747  1.00  0.00    -0.200 OA
HETATM    5  O2  UNL     1      34.762   5.961  47.796  1.00  0.00    -0.200 OA
BRANCH   3   6
HETATM    6  C5  UNL     1      33.125   4.023  47.215  1.00  0.00     0.080 A 
HETATM    7  C4  UNL     1      32.075   3.564  46.415  1.00  0.00     0.026 A 
HETATM    8  C3  UNL     1      31.710   2.235  46.318  1.00  0.00     0.008 A 
HETATM    9  C2  UNL     1      32.427   1.293  47.060  1.00  0.00    -0.062 A 
HETATM   10  C1  UNL     1      32.004  -0.119  46.926  1.00  0.00     0.048 C 
HETATM   11  C15 UNL     1      33.455   1.737  47.845  1.00  0.00     0.008 A 
HETATM   12  C14 UNL     1      33.807   3.069  47.929  1.00  0.00     0.026 A 
ENDBRANCH   3   6
ENDBRANCH   1   3
BRANCH   1  13
HETATM   13  C6  UNL     1      30.961   6.286  48.574  1.00  0.00     0.150 C 
HETATM   14  C7  UNL     1      29.828   6.348  47.860  1.00  0.00     0.068 C 
BRANCH  13  15
HETATM   15  O3  UNL     1      30.920   5.871  49.903  1.00  0.00    -0.346 OA
HETATM   16  H7  UNL     1      30.340   5.114  50.234  1.00  0.00     0.219 HD
ENDBRANCH  13  15
BRANCH  14  17
HETATM   17  C8  UNL     1      28.458   6.036  48.248  1.00  0.00    -0.032 A 
HETATM   18  C9  UNL     1      27.496   7.055  48.255  1.00  0.00     0.013 A 
HETATM   19  C10 UNL     1      26.183   6.858  48.609  1.00  0.00     0.020 A 
HETATM   20  C11 UNL     1      25.840   5.569  48.972  1.00  0.00     0.011 A 
HETATM   21 BR1  UNL     1      24.001   5.314  49.460  1.00  0.00    -0.051 Br
HETATM   22  C12 UNL     1      26.716   4.511  48.994  1.00  0.00     0.020 A 
HETATM   23  C13 UNL     1      28.033   4.771  48.624  1.00  0.00     0.013 A 
ENDBRANCH  14  17
ENDBRANCH   1  13
TORSDOF 5
ENDMDL
MODEL 6
REMARK VINA RESULT:      -7.4      4.154      7.572
REMARK  5 active torsions:
REMARK  status: ('A' for Active; 'I' for Inactive)
REMARK    1  A    between atoms: C5_5  and  S1_6 
REMARK    2  A    between atoms: S1_6  and  N1_9 
REMARK    3  A    between atoms: N1_9  and  C6_10 
REMARK    4  A    between atoms: C6_10  and  O3_11 
REMARK    5  A    between atoms: C7_12  and  C8_13 
ROOT
HETATM    1  N1  UNL     1      23.466   3.576  51.570  1.00  0.00    -0.260 N 
HETATM    2  H6  UNL     1      22.616   3.480  52.188  1.00  0.00     0.181 HD
ENDROOT
BRANCH   1   3
HETATM    3  S1  UNL     1      23.447   4.381  50.061  1.00  0.00     0.264 S 
HETATM    4  O1  UNL     1      22.762   3.452  49.080  1.00  0.00    -0.200 OA
HETATM    5  O2  UNL     1      22.651   5.655  50.127  1.00  0.00    -0.200 OA
BRANCH   3   6
HETATM    6  C5  UNL     1      25.021   4.801  49.473  1.00  0.00     0.080 A 
HETATM    7  C4  UNL     1      25.176   6.120  49.037  1.00  0.00     0.026 A 
HETATM    8  C3  UNL     1      26.361   6.629  48.540  1.00  0.00     0.008 A 
HETATM    9  C2  UNL     1      27.470   5.781  48.468  1.00  0.00    -0.062 A 
HETATM   10  C1  UNL     1      28.719   6.367  47.931  1.00  0.00     0.048 C 
HETATM   11  C15 UNL     1      27.323   4.491  48.892  1.00  0.00     0.008 A 
HETATM   12  C14 UNL     1      26.132   3.999  49.386  1.00  0.00     0.026 A 
ENDBRANCH   3   6
ENDBRANCH   1   3
BRANCH   1  13
HETATM   13  C6  UNL     1      24.500   2.908  52.290  1.00  0.00     0.150 C 
HETATM   14  C7  UNL     1      25.189   1.920  51.702  1.00  0.00     0.068 C 
BRANCH  13  15
HETATM   15  O3  UNL     1      24.795   3.273  53.601  1.00  0.00    -0.346 OA
HETATM   16  H7  UNL     1      25.535   2.852  54.145  1.00  0.00     0.219 HD
ENDBRANCH  13  15
BRANCH  14  17
HETATM   17  C8  UNL     1      26.273   1.097  52.221  1.00  0.00    -0.032 A 
HETATM   18  C9  UNL     1      27.464   1.708  52.635  1.00  0.00     0.013 A 
HETATM   19  C10 UNL     1      28.542   1.015  53.134  1.00  0.00     0.020 A 
HETATM   20  C11 UNL     1      28.396  -0.357  53.210  1.00  0.00     0.011 A 
HETATM   21 BR1  UNL     1      29.910  -1.307  53.911  1.00  0.00    -0.051 Br
HETATM   22  C12 UNL     1      27.267  -1.040  52.827  1.00  0.00     0.020 A 
HETATM   23  C13 UNL     1      26.208  -0.285  52.331  1.00  0.00     0.013 A 
ENDBRANCH  14  17
ENDBRANCH   1  13
TORSDOF 5
ENDMDL
MODEL 7
REMARK VINA RESULT:      -7.4      2.690      3.603
REMARK  5 active torsions:
REMARK  status: ('A' for Active; 'I' for Inactive)
REMARK    1  A    between atoms: C5_5  and  S1_6 
REMARK    2  A    between atoms: S1_6  and  N1_9 
REMARK    3  A    between atoms: N1_9  and  C6_10 
REMARK    4  A    between atoms: C6_10  and  O3_11 
REMARK    5  A    between atoms: C7_12  and  C8_13 
ROOT
HETATM    1  N1  UNL     1      24.854   2.924  50.296  1.00  0.00    -0.260 N 
HETATM    2  H6  UNL     1      24.936   2.144  49.590  1.00  0.00     0.181 HD
ENDROOT
BRANCH   1   3
HETATM    3  S1  UNL     1      23.523   3.098  51.357  1.00  0.00     0.264 S 
HETATM    4  O1  UNL     1      23.851   4.251  52.283  1.00  0.00    -0.200 OA
HETATM    5  O2  UNL     1      22.266   3.447  50.609  1.00  0.00    -0.200 OA
BRANCH   3   6
HETATM    6  C5  UNL     1      23.178   1.676  52.284  1.00  0.00     0.080 A 
HETATM    7  C4  UNL     1      21.849   1.518  52.685  1.00  0.00     0.026 A 
HETATM    8  C3  UNL     1      21.394   0.444  53.427  1.00  0.00     0.008 A 
HETATM    9  C2  UNL     1      22.312  -0.541  53.800  1.00  0.00    -0.062 A 
HETATM   10  C1  UNL     1      21.783  -1.674  54.593  1.00  0.00     0.048 C 
HETATM   11  C15 UNL     1      23.614  -0.390  53.412  1.00  0.00     0.008 A 
HETATM   12  C14 UNL     1      24.050   0.688  52.670  1.00  0.00     0.026 A 
ENDBRANCH   3   6
ENDBRANCH   1   3
BRANCH   1  13
HETATM   13  C6  UNL     1      26.041   3.692  50.110  1.00  0.00     0.150 C 
HETATM   14  C7  UNL     1      26.082   4.635  49.157  1.00  0.00     0.068 C 
BRANCH  13  15
HETATM   15  O3  UNL     1      27.159   3.467  50.909  1.00  0.00    -0.346 OA
HETATM   16  H7  UNL     1      27.390   2.568  51.307  1.00  0.00     0.219 HD
ENDBRANCH  13  15
BRANCH  14  17
HETATM   17  C8  UNL     1      27.162   5.535  48.777  1.00  0.00    -0.032 A 
HETATM   18  C9  UNL     1      26.949   6.920  48.815  1.00  0.00     0.013 A 
HETATM   19  C10 UNL     1      27.905   7.846  48.471  1.00  0.00     0.020 A 
HETATM   20  C11 UNL     1      29.125   7.336  48.070  1.00  0.00     0.011 A 
HETATM   21 BR1  UNL     1      30.448   8.645  47.597  1.00  0.00    -0.051 Br
HETATM   22  C12 UNL     1      29.422   5.997  48.003  1.00  0.00     0.020 A 
HETATM   23  C13 UNL     1      28.415   5.105  48.365  1.00  0.00     0.013 A 
ENDBRANCH  14  17
ENDBRANCH   1  13
TORSDOF 5
ENDMDL
MODEL 8
REMARK VINA RESULT:      -7.3      3.677      4.391
REMARK  5 active torsions:
REMARK  status: ('A' for Active; 'I' for Inactive)
REMARK    1  A    between atoms: C5_5  and  S1_6 
REMARK    2  A    between atoms: S1_6  and  N1_9 
REMARK    3  A    between atoms: N1_9  and  C6_10 
REMARK    4  A    between atoms: C6_10  and  O3_11 
REMARK    5  A    between atoms: C7_12  and  C8_13 
ROOT
HETATM    1  N1  UNL     1      22.630   5.330  51.604  1.00  0.00    -0.260 N 
HETATM    2  H6  UNL     1      22.090   6.193  51.885  1.00  0.00     0.181 HD
ENDROOT
BRANCH   1   3
HETATM    3  S1  UNL     1      21.982   3.749  51.675  1.00  0.00     0.264 S 
HETATM    4  O1  UNL     1      20.726   3.830  52.519  1.00  0.00    -0.200 OA
HETATM    5  O2  UNL     1      21.591   3.252  50.310  1.00  0.00    -0.200 OA
BRANCH   3   6
HETATM    6  C5  UNL     1      23.068   2.577  52.344  1.00  0.00     0.080 A 
HETATM    7  C4  UNL     1      22.561   1.282  52.476  1.00  0.00     0.026 A 
HETATM    8  C3  UNL     1      23.287   0.222  52.986  1.00  0.00     0.008 A 
HETATM    9  C2  UNL     1      24.602   0.455  53.396  1.00  0.00    -0.062 A 
HETATM   10  C1  UNL     1      25.344  -0.707  53.936  1.00  0.00     0.048 C 
HETATM   11  C15 UNL     1      25.103   1.721  53.270  1.00  0.00     0.008 A 
HETATM   12  C14 UNL     1      24.364   2.767  52.757  1.00  0.00     0.026 A 
ENDBRANCH   3   6
ENDBRANCH   1   3
BRANCH   1  13
HETATM   13  C6  UNL     1      23.904   5.829  51.203  1.00  0.00     0.150 C 
HETATM   14  C7  UNL     1      24.463   5.391  50.066  1.00  0.00     0.068 C 
BRANCH  13  15
HETATM   15  O3  UNL     1      24.572   6.767  51.986  1.00  0.00    -0.346 OA
HETATM   16  H7  UNL     1      25.486   6.611  52.388  1.00  0.00     0.219 HD
ENDBRANCH  13  15
BRANCH  14  17
HETATM   17  C8  UNL     1      25.737   5.743  49.453  1.00  0.00    -0.032 A 
HETATM   18  C9  UNL     1      26.664   4.733  49.163  1.00  0.00     0.013 A 
HETATM   19  C10 UNL     1      27.891   4.967  48.590  1.00  0.00     0.020 A 
HETATM   20  C11 UNL     1      28.182   6.288  48.303  1.00  0.00     0.011 A 
HETATM   21 BR1  UNL     1      29.899   6.595  47.500  1.00  0.00    -0.051 Br
HETATM   22  C12 UNL     1      27.336   7.340  48.552  1.00  0.00     0.020 A 
HETATM   23  C13 UNL     1      26.106   7.041  49.133  1.00  0.00     0.013 A 
ENDBRANCH  14  17
ENDBRANCH   1  13
TORSDOF 5
ENDMDL
MODEL 9
REMARK VINA RESULT:      -7.2      4.807      7.343
REMARK  5 active torsions:
REMARK  status: ('A' for Active; 'I' for Inactive)
REMARK    1  A    between atoms: C5_5  and  S1_6 
REMARK    2  A    between atoms: S1_6  and  N1_9 
REMARK    3  A    between atoms: N1_9  and  C6_10 
REMARK    4  A    between atoms: C6_10  and  O3_11 
REMARK    5  A    between atoms: C7_12  and  C8_13 
ROOT
HETATM    1  N1  UNL     1      23.810   1.404  51.706  1.00  0.00    -0.260 N 
HETATM    2  H6  UNL     1      23.967   0.601  51.039  1.00  0.00     0.181 HD
ENDROOT
BRANCH   1   3
HETATM    3  S1  UNL     1      25.067   2.415  52.276  1.00  0.00     0.264 S 
HETATM    4  O1  UNL     1      25.379   3.392  51.161  1.00  0.00    -0.200 OA
HETATM    5  O2  UNL     1      24.633   3.206  53.479  1.00  0.00    -0.200 OA
BRANCH   3   6
HETATM    6  C5  UNL     1      26.502   1.558  52.729  1.00  0.00     0.080 A 
HETATM    7  C4  UNL     1      26.467   0.172  52.549  1.00  0.00     0.026 A 
HETATM    8  C3  UNL     1      27.521  -0.667  52.854  1.00  0.00     0.008 A 
HETATM    9  C2  UNL     1      28.691  -0.104  53.371  1.00  0.00    -0.062 A 
HETATM   10  C1  UNL     1      29.796  -1.039  53.682  1.00  0.00     0.048 C 
HETATM   11  C15 UNL     1      28.730   1.250  53.549  1.00  0.00     0.008 A 
HETATM   12  C14 UNL     1      27.668   2.074  53.239  1.00  0.00     0.026 A 
ENDBRANCH   3   6
ENDBRANCH   1   3
BRANCH   1  13
HETATM   13  C6  UNL     1      22.406   1.382  51.956  1.00  0.00     0.150 C 
HETATM   14  C7  UNL     1      21.721   0.241  51.802  1.00  0.00     0.068 C 
BRANCH  13  15
HETATM   15  O3  UNL     1      21.744   2.540  52.356  1.00  0.00    -0.346 OA
HETATM   16  H7  UNL     1      21.549   2.768  53.321  1.00  0.00     0.219 HD
ENDBRANCH  13  15
BRANCH  14  17
HETATM   17  C8  UNL     1      20.302  -0.032  51.992  1.00  0.00    -0.032 A 
HETATM   18  C9  UNL     1      19.386   0.370  51.010  1.00  0.00     0.013 A 
HETATM   19  C10 UNL     1      18.031   0.161  51.103  1.00  0.00     0.020 A 
HETATM   20  C11 UNL     1      17.595  -0.484  52.245  1.00  0.00     0.011 A 
HETATM   21 BR1  UNL     1      15.699  -0.771  52.354  1.00  0.00    -0.051 Br
HETATM   22  C12 UNL     1      18.419  -0.913  53.256  1.00  0.00     0.020 A 
HETATM   23  C13 UNL     1      19.783  -0.674  53.107  1.00  0.00     0.013 A 
ENDBRANCH  14  17
ENDBRANCH   1  13
TORSDOF 5
ENDMDL
