MODEL 1
REMARK VINA RESULT:      -9.1      0.000      0.000
REMARK  5 active torsions:
REMARK  status: ('A' for Active; 'I' for Inactive)
REMARK    1  A    between atoms: C2_2  and  C3_3 
REMARK    2  A    between atoms: C5_7  and  N3_8 
REMARK    3  A    between atoms: N3_8  and  C6_9 
REMARK    4  A    between atoms: C12_16  and  C13_17 
REMARK    5  A    between atoms: C13_17  and  C14_18 
ROOT
HETATM    1  C3  UNL     1      23.467   2.558  49.962  1.00  0.00     0.068 A 
HETATM    2  N1  UNL     1      22.676   1.587  50.431  1.00  0.00    -0.241 NA
HETATM    3  C4  UNL     1      22.883   1.092  51.661  1.00  0.00     0.235 A 
HETATM    4  N2  UNL     1      23.857   1.536  52.435  1.00  0.00    -0.224 NA
HETATM    5  C5  UNL     1      24.689   2.527  51.996  1.00  0.00     0.142 A 
HETATM    6  C12 UNL     1      24.495   3.066  50.709  1.00  0.00     0.041 A 
ENDROOT
BRANCH   6   7
HETATM    7  C13 UNL     1      25.235   4.015  50.255  1.00  0.00     0.046 C 
BRANCH   7   8
HETATM    8  C14 UNL     1      25.867   5.214  49.817  1.00  0.00     0.026 C 
HETATM    9  C15 UNL     1      25.363   6.481  49.942  1.00  0.00     0.002 C 
HETATM   10  C16 UNL     1      26.206   7.527  49.414  1.00  0.00     0.031 C 
HETATM   11  C17 UNL     1      26.672   8.609  50.401  1.00  0.00     0.023 C 
HETATM   12  C18 UNL     1      27.846   9.293  49.560  1.00  0.00     0.114 C 
HETATM   13  N4  UNL     1      28.720   8.176  49.414  1.00  0.00    -0.420 N 
HETATM   14  C19 UNL     1      29.675   8.083  48.397  1.00  0.00     0.133 C 
HETATM   15  H19 UNL     1      29.057   7.809  50.351  1.00  0.00     0.153 HD
HETATM   16  C20 UNL     1      30.355   6.717  48.621  1.00  0.00     0.134 C 
HETATM   17  N5  UNL     1      29.478   5.727  49.039  1.00  0.00    -0.405 N 
HETATM   18  C21 UNL     1      28.416   5.204  48.318  1.00  0.00     0.238 C 
HETATM   19  H24 UNL     1      29.655   5.311  49.980  1.00  0.00     0.154 HD
HETATM   20  N6  UNL     1      27.205   5.239  49.176  1.00  0.00    -0.374 N 
HETATM   21  H27 UNL     1      27.488   5.417  50.189  1.00  0.00     0.161 HD
ENDBRANCH   7   8
ENDBRANCH   6   7
BRANCH   1  22
HETATM   22  C2  UNL     1      23.098   2.893  48.733  1.00  0.00     0.002 C 
HETATM   23  C1  UNL     1      22.020   2.150  48.039  1.00  0.00     0.038 C 
ENDBRANCH   1  22
BRANCH   5  24
HETATM   24  N3  UNL     1      25.736   2.969  52.844  1.00  0.00    -0.340 N 
HETATM   25  H6  UNL     1      25.882   3.891  53.345  1.00  0.00     0.167 HD
BRANCH  24  26
HETATM   26  C6  UNL     1      26.753   1.981  53.036  1.00  0.00     0.035 A 
HETATM   27  C7  UNL     1      28.009   2.306  53.509  1.00  0.00     0.029 A 
HETATM   28  C8  UNL     1      29.040   1.402  53.708  1.00  0.00     0.004 A 
HETATM   29  C9  UNL     1      28.756   0.087  53.400  1.00  0.00     0.019 A 
HETATM   30  C10 UNL     1      27.538  -0.334  52.925  1.00  0.00     0.013 A 
HETATM   31 BR1  UNL     1      27.166  -2.151  52.505  1.00  0.00    -0.051 Br
HETATM   32  C11 UNL     1      26.561   0.635  52.754  1.00  0.00     0.048 A 
ENDBRANCH  24  26
ENDBRANCH   5  24
TORSDOF 5
ENDMDL
MODEL 2
REMARK VINA RESULT:      -9.0      3.037      6.770
REMARK  5 active torsions:
REMARK  status: ('A' for Active; 'I' for Inactive)
REMARK    1  A    between atoms: C2_2  and  C3_3 
REMARK    2  A    between atoms: C5_7  and  N3_8 
REMARK    3  A    between atoms: N3_8  and  C6_9 
REMARK    4  A    between atoms: C12_16  and  C13_17 
REMARK    5  A    between atoms: C13_17  and  C14_18 
ROOT
HETATM    1  C3  UNL     1      22.522   2.900  48.240  1.00  0.00     0.068 A 
HETATM    2  N1  UNL     1      22.027   3.586  47.204  1.00  0.00    -0.241 NA
HETATM    3  C4  UNL     1      22.372   4.870  47.028  1.00  0.00     0.235 A 
HETATM    4  N2  UNL     1      23.194   5.491  47.855  1.00  0.00    -0.224 NA
HETATM    5  C5  UNL     1      23.723   4.828  48.926  1.00  0.00     0.142 A 
HETATM    6  C12 UNL     1      23.380   3.477  49.136  1.00  0.00     0.041 A 
ENDROOT
BRANCH   6   7
HETATM    7  C13 UNL     1      23.866   2.801  50.116  1.00  0.00     0.046 C 
BRANCH   7   8
HETATM    8  C14 UNL     1      24.235   2.168  51.337  1.00  0.00     0.026 C 
HETATM    9  C15 UNL     1      23.394   1.486  52.175  1.00  0.00     0.002 C 
HETATM   10  C16 UNL     1      24.023   0.936  53.354  1.00  0.00     0.031 C 
HETATM   11  C17 UNL     1      23.944  -0.587  53.537  1.00  0.00     0.023 C 
HETATM   12  C18 UNL     1      25.051  -0.809  54.669  1.00  0.00     0.114 C 
HETATM   13  N4  UNL     1      26.202  -0.330  53.977  1.00  0.00    -0.420 N 
HETATM   14  C19 UNL     1      27.351   0.122  54.631  1.00  0.00     0.133 C 
HETATM   15  H19 UNL     1      26.403  -0.895  53.101  1.00  0.00     0.153 HD
HETATM   16  C20 UNL     1      28.304   0.553  53.498  1.00  0.00     0.134 C 
HETATM   17  N5  UNL     1      27.654   1.160  52.433  1.00  0.00    -0.405 N 
HETATM   18  C21 UNL     1      26.964   2.362  52.459  1.00  0.00     0.238 C 
HETATM   19  H24 UNL     1      27.719   0.677  51.509  1.00  0.00     0.154 HD
HETATM   20  N6  UNL     1      25.626   2.146  51.853  1.00  0.00    -0.374 N 
HETATM   21  H27 UNL     1      25.614   1.215  51.332  1.00  0.00     0.161 HD
ENDBRANCH   7   8
ENDBRANCH   6   7
BRANCH   1  22
HETATM   22  C2  UNL     1      22.050   1.661  48.233  1.00  0.00     0.002 C 
HETATM   23  C1  UNL     1      20.828   1.314  48.997  1.00  0.00     0.038 C 
ENDBRANCH   1  22
BRANCH   5  24
HETATM   24  N3  UNL     1      24.588   5.526  49.806  1.00  0.00    -0.340 N 
HETATM   25  H6  UNL     1      24.430   5.902  50.784  1.00  0.00     0.167 HD
BRANCH  24  26
HETATM   26  C6  UNL     1      25.888   5.747  49.251  1.00  0.00     0.035 A 
HETATM   27  C7  UNL     1      26.784   4.715  49.052  1.00  0.00     0.029 A 
HETATM   28  C8  UNL     1      28.059   4.860  48.529  1.00  0.00     0.004 A 
HETATM   29  C9  UNL     1      28.428   6.146  48.193  1.00  0.00     0.019 A 
HETATM   30  C10 UNL     1      27.609   7.237  48.352  1.00  0.00     0.013 A 
HETATM   31 BR1  UNL     1      28.138   9.003  47.884  1.00  0.00    -0.051 Br
HETATM   32  C11 UNL     1      26.349   7.004  48.882  1.00  0.00     0.048 A 
ENDBRANCH  24  26
ENDBRANCH   5  24
TORSDOF 5
ENDMDL
MODEL 3
REMARK VINA RESULT:      -8.9      4.042      6.745
REMARK  5 active torsions:
REMARK  status: ('A' for Active; 'I' for Inactive)
REMARK    1  A    between atoms: C2_2  and  C3_3 
REMARK    2  A    between atoms: C5_7  and  N3_8 
REMARK    3  A    between atoms: N3_8  and  C6_9 
REMARK    4  A    between atoms: C12_16  and  C13_17 
REMARK    5  A    between atoms: C13_17  and  C14_18 
ROOT
HETATM    1  C3  UNL     1      21.463  -0.056  53.594  1.00  0.00     0.068 A 
HETATM    2  N1  UNL     1      20.132  -0.077  53.469  1.00  0.00    -0.241 NA
HETATM    3  C4  UNL     1      19.562   0.338  52.328  1.00  0.00     0.235 A 
HETATM    4  N2  UNL     1      20.279   0.774  51.308  1.00  0.00    -0.224 NA
HETATM    5  C5  UNL     1      21.642   0.814  51.393  1.00  0.00     0.142 A 
HETATM    6  C12 UNL     1      22.270   0.384  52.579  1.00  0.00     0.041 A 
ENDROOT
BRANCH   6   7
HETATM    7  C13 UNL     1      23.550   0.379  52.703  1.00  0.00     0.046 C 
BRANCH   7   8
HETATM    8  C14 UNL     1      24.960   0.583  52.708  1.00  0.00     0.026 C 
HETATM    9  C15 UNL     1      25.597   1.787  52.843  1.00  0.00     0.002 C 
HETATM   10  C16 UNL     1      27.039   1.719  52.816  1.00  0.00     0.031 C 
HETATM   11  C17 UNL     1      27.782   2.232  54.060  1.00  0.00     0.023 C 
HETATM   12  C18 UNL     1      29.240   1.629  53.805  1.00  0.00     0.114 C 
HETATM   13  N4  UNL     1      28.929   0.238  53.804  1.00  0.00    -0.420 N 
HETATM   14  C19 UNL     1      29.735  -0.724  53.188  1.00  0.00     0.133 C 
HETATM   15  H19 UNL     1      28.518  -0.079  54.730  1.00  0.00     0.153 HD
HETATM   16  C20 UNL     1      29.002  -2.060  53.421  1.00  0.00     0.134 C 
HETATM   17  N5  UNL     1      27.621  -1.951  53.343  1.00  0.00    -0.405 N 
HETATM   18  C21 UNL     1      26.879  -1.613  52.222  1.00  0.00     0.238 C 
HETATM   19  H24 UNL     1      27.084  -2.178  54.209  1.00  0.00     0.154 HD
HETATM   20  N6  UNL     1      25.941  -0.524  52.592  1.00  0.00    -0.374 N 
HETATM   21  H27 UNL     1      25.888  -0.442  53.655  1.00  0.00     0.161 HD
ENDBRANCH   7   8
ENDBRANCH   6   7
BRANCH   1  22
HETATM   22  C2  UNL     1      21.816  -0.494  54.794  1.00  0.00     0.002 C 
HETATM   23  C1  UNL     1      22.155  -1.921  55.007  1.00  0.00     0.038 C 
ENDBRANCH   1  22
BRANCH   5  24
HETATM   24  N3  UNL     1      22.384   1.305  50.288  1.00  0.00    -0.340 N 
HETATM   25  H6  UNL     1      22.635   0.853  49.363  1.00  0.00     0.167 HD
BRANCH  24  26
HETATM   26  C6  UNL     1      22.862   2.639  50.486  1.00  0.00     0.035 A 
HETATM   27  C7  UNL     1      22.172   3.557  51.252  1.00  0.00     0.029 A 
HETATM   28  C8  UNL     1      22.572   4.865  51.475  1.00  0.00     0.004 A 
HETATM   29  C9  UNL     1      23.754   5.244  50.873  1.00  0.00     0.019 A 
HETATM   30  C10 UNL     1      24.512   4.403  50.095  1.00  0.00     0.013 A 
HETATM   31 BR1  UNL     1      26.139   4.945  49.271  1.00  0.00    -0.051 Br
HETATM   32  C11 UNL     1      24.039   3.111  49.922  1.00  0.00     0.048 A 
ENDBRANCH  24  26
ENDBRANCH   5  24
TORSDOF 5
ENDMDL
MODEL 4
REMARK VINA RESULT:      -8.8      4.549      8.651
REMARK  5 active torsions:
REMARK  status: ('A' for Active; 'I' for Inactive)
REMARK    1  A    between atoms: C2_2  and  C3_3 
REMARK    2  A    between atoms: C5_7  and  N3_8 
REMARK    3  A    between atoms: N3_8  and  C6_9 
REMARK    4  A    between atoms: C12_16  and  C13_17 
REMARK    5  A    between atoms: C13_17  and  C14_18 
ROOT
HETATM    1  C3  UNL     1      32.109   4.672  47.573  1.00  0.00     0.068 A 
HETATM    2  N1  UNL     1      33.445   4.707  47.518  1.00  0.00    -0.241 NA
HETATM    3  C4  UNL     1      34.116   5.650  48.197  1.00  0.00     0.235 A 
HETATM    4  N2  UNL     1      33.494   6.558  48.928  1.00  0.00    -0.224 NA
HETATM    5  C5  UNL     1      32.130   6.559  49.011  1.00  0.00     0.142 A 
HETATM    6  C12 UNL     1      31.399   5.580  48.309  1.00  0.00     0.041 A 
ENDROOT
BRANCH   6   7
HETATM    7  C13 UNL     1      30.115   5.522  48.371  1.00  0.00     0.046 C 
BRANCH   7   8
HETATM    8  C14 UNL     1      28.716   5.632  48.615  1.00  0.00     0.026 C 
HETATM    9  C15 UNL     1      27.813   4.603  48.590  1.00  0.00     0.002 C 
HETATM   10  C16 UNL     1      26.449   4.983  48.874  1.00  0.00     0.031 C 
HETATM   11  C17 UNL     1      25.780   4.317  50.086  1.00  0.00     0.023 C 
HETATM   12  C18 UNL     1      24.508   5.264  50.283  1.00  0.00     0.114 C 
HETATM   13  N4  UNL     1      25.167   6.501  50.546  1.00  0.00    -0.420 N 
HETATM   14  C19 UNL     1      24.561   7.745  50.351  1.00  0.00     0.133 C 
HETATM   15  H19 UNL     1      25.772   6.452  51.417  1.00  0.00     0.153 HD
HETATM   16  C20 UNL     1      25.642   8.774  50.738  1.00  0.00     0.134 C 
HETATM   17  N5  UNL     1      26.922   8.398  50.357  1.00  0.00    -0.405 N 
HETATM   18  C21 UNL     1      27.386   8.234  49.061  1.00  0.00     0.238 C 
HETATM   19  H24 UNL     1      27.615   8.255  51.124  1.00  0.00     0.154 HD
HETATM   20  N6  UNL     1      28.051   6.910  48.966  1.00  0.00    -0.374 N 
HETATM   21  H27 UNL     1      28.228   6.527  49.945  1.00  0.00     0.161 HD
ENDBRANCH   7   8
ENDBRANCH   6   7
BRANCH   1  22
HETATM   22  C2  UNL     1      31.648   3.676  46.827  1.00  0.00     0.002 C 
HETATM   23  C1  UNL     1      32.447   2.442  46.638  1.00  0.00     0.038 C 
ENDBRANCH   1  22
BRANCH   5  24
HETATM   24  N3  UNL     1      31.491   7.558  49.789  1.00  0.00    -0.340 N 
HETATM   25  H6  UNL     1      31.052   7.514  50.752  1.00  0.00     0.167 HD
BRANCH  24  26
HETATM   26  C6  UNL     1      31.447   8.830  49.135  1.00  0.00     0.035 A 
HETATM   27  C7  UNL     1      30.651   9.860  49.592  1.00  0.00     0.029 A 
HETATM   28  C8  UNL     1      30.554  11.110  49.001  1.00  0.00     0.004 A 
HETATM   29  C9  UNL     1      31.326  11.305  47.875  1.00  0.00     0.019 A 
HETATM   30  C10 UNL     1      32.150  10.343  47.344  1.00  0.00     0.013 A 
HETATM   31 BR1  UNL     1      33.206  10.630  45.789  1.00  0.00    -0.051 Br
HETATM   32  C11 UNL     1      32.188   9.120  47.996  1.00  0.00     0.048 A 
ENDBRANCH  24  26
ENDBRANCH   5  24
TORSDOF 5
ENDMDL
MODEL 5
REMARK VINA RESULT:      -8.8      3.257      7.569
REMARK  5 active torsions:
REMARK  status: ('A' for Active; 'I' for Inactive)
REMARK    1  A    between atoms: C2_2  and  C3_3 
REMARK    2  A    between atoms: C5_7  and  N3_8 
REMARK    3  A    between atoms: N3_8  and  C6_9 
REMARK    4  A    between atoms: C12_16  and  C13_17 
REMARK    5  A    between atoms: C13_17  and  C14_18 
ROOT
HETATM    1  C3  UNL     1      27.547   8.280  46.940  1.00  0.00     0.068 A 
HETATM    2  N1  UNL     1      28.358   9.149  46.326  1.00  0.00    -0.241 NA
HETATM    3  C4  UNL     1      29.669   9.152  46.607  1.00  0.00     0.235 A 
HETATM    4  N2  UNL     1      30.196   8.315  47.483  1.00  0.00    -0.224 NA
HETATM    5  C5  UNL     1      29.405   7.411  48.134  1.00  0.00     0.142 A 
HETATM    6  C12 UNL     1      28.023   7.384  47.858  1.00  0.00     0.041 A 
ENDROOT
BRANCH   6   7
HETATM    7  C13 UNL     1      27.237   6.539  48.426  1.00  0.00     0.046 C 
BRANCH   7   8
HETATM    8  C14 UNL     1      26.575   5.484  49.118  1.00  0.00     0.026 C 
HETATM    9  C15 UNL     1      26.963   4.172  49.143  1.00  0.00     0.002 C 
HETATM   10  C16 UNL     1      26.115   3.300  49.922  1.00  0.00     0.031 C 
HETATM   11  C17 UNL     1      26.773   2.558  51.096  1.00  0.00     0.023 C 
HETATM   12  C18 UNL     1      25.481   2.063  51.897  1.00  0.00     0.114 C 
HETATM   13  N4  UNL     1      24.896   3.324  52.215  1.00  0.00    -0.420 N 
HETATM   14  C19 UNL     1      23.541   3.483  52.513  1.00  0.00     0.133 C 
HETATM   15  H19 UNL     1      25.539   3.920  52.815  1.00  0.00     0.153 HD
HETATM   16  C20 UNL     1      23.368   4.994  52.765  1.00  0.00     0.134 C 
HETATM   17  N5  UNL     1      24.137   5.784  51.924  1.00  0.00    -0.405 N 
HETATM   18  C21 UNL     1      24.018   5.888  50.547  1.00  0.00     0.238 C 
HETATM   19  H24 UNL     1      24.859   6.386  52.378  1.00  0.00     0.154 HD
HETATM   20  N6  UNL     1      25.361   5.692  49.944  1.00  0.00    -0.374 N 
HETATM   21  H27 UNL     1      26.108   5.768  50.702  1.00  0.00     0.161 HD
ENDBRANCH   7   8
ENDBRANCH   6   7
BRANCH   1  22
HETATM   22  C2  UNL     1      26.298   8.451  46.528  1.00  0.00     0.002 C 
HETATM   23  C1  UNL     1      25.989   8.566  45.083  1.00  0.00     0.038 C 
ENDBRANCH   1  22
BRANCH   5  24
HETATM   24  N3  UNL     1      29.997   6.539  49.083  1.00  0.00    -0.340 N 
HETATM   25  H6  UNL     1      29.766   6.359  50.101  1.00  0.00     0.167 HD
BRANCH  24  26
HETATM   26  C6  UNL     1      31.088   5.787  48.543  1.00  0.00     0.035 A 
HETATM   27  C7  UNL     1      30.898   4.792  47.605  1.00  0.00     0.029 A 
HETATM   28  C8  UNL     1      31.907   4.021  47.050  1.00  0.00     0.004 A 
HETATM   29  C9  UNL     1      33.186   4.296  47.491  1.00  0.00     0.019 A 
HETATM   30  C10 UNL     1      33.476   5.265  48.419  1.00  0.00     0.013 A 
HETATM   31 BR1  UNL     1      35.245   5.628  49.016  1.00  0.00    -0.051 Br
HETATM   32  C11 UNL     1      32.407   5.991  48.925  1.00  0.00     0.048 A 
ENDBRANCH  24  26
ENDBRANCH   5  24
TORSDOF 5
ENDMDL
MODEL 6
REMARK VINA RESULT:      -8.8      3.318      6.501
REMARK  5 active torsions:
REMARK  status: ('A' for Active; 'I' for Inactive)
REMARK    1  A    between atoms: C2_2  and  C3_3 
REMARK    2  A    between atoms: C5_7  and  N3_8 
REMARK    3  A    between atoms: N3_8  and  C6_9 
REMARK    4  A    between atoms: C12_16  and  C13_17 
REMARK    5  A    between atoms: C13_17  and  C14_18 
ROOT
HETATM    1  C3  UNL     1      21.576   1.862  50.729  1.00  0.00     0.068 A 
HETATM    2  N1  UNL     1      20.717   2.576  49.993  1.00  0.00    -0.241 NA
HETATM    3  C4  UNL     1      20.950   3.878  49.771  1.00  0.00     0.235 A 
HETATM    4  N2  UNL     1      22.013   4.490  50.262  1.00  0.00    -0.224 NA
HETATM    5  C5  UNL     1      22.916   3.799  51.019  1.00  0.00     0.142 A 
HETATM    6  C12 UNL     1      22.699   2.429  51.268  1.00  0.00     0.041 A 
ENDROOT
BRANCH   6   7
HETATM    7  C13 UNL     1      23.529   1.727  51.956  1.00  0.00     0.046 C 
BRANCH   7   8
HETATM    8  C14 UNL     1      24.618   1.032  52.556  1.00  0.00     0.026 C 
HETATM    9  C15 UNL     1      24.796  -0.325  52.567  1.00  0.00     0.002 C 
HETATM   10  C16 UNL     1      25.989  -0.777  53.245  1.00  0.00     0.031 C 
HETATM   11  C17 UNL     1      27.001  -1.578  52.411  1.00  0.00     0.023 C 
HETATM   12  C18 UNL     1      28.281  -1.527  53.367  1.00  0.00     0.114 C 
HETATM   13  N4  UNL     1      28.494  -0.118  53.408  1.00  0.00    -0.420 N 
HETATM   14  C19 UNL     1      29.193   0.518  54.438  1.00  0.00     0.133 C 
HETATM   15  H19 UNL     1      28.694   0.282  52.445  1.00  0.00     0.153 HD
HETATM   16  C20 UNL     1      29.151   2.016  54.075  1.00  0.00     0.134 C 
HETATM   17  N5  UNL     1      27.947   2.413  53.512  1.00  0.00    -0.405 N 
HETATM   18  C21 UNL     1      26.705   2.414  54.129  1.00  0.00     0.238 C 
HETATM   19  H24 UNL     1      27.985   2.777  52.534  1.00  0.00     0.154 HD
HETATM   20  N6  UNL     1      25.741   1.718  53.240  1.00  0.00    -0.374 N 
HETATM   21  H27 UNL     1      26.163   1.612  52.266  1.00  0.00     0.161 HD
ENDBRANCH   7   8
ENDBRANCH   6   7
BRANCH   1  22
HETATM   22  C2  UNL     1      21.156   0.609  50.832  1.00  0.00     0.002 C 
HETATM   23  C1  UNL     1      19.862   0.297  51.485  1.00  0.00     0.038 C 
ENDBRANCH   1  22
BRANCH   5  24
HETATM   24  N3  UNL     1      24.038   4.488  51.547  1.00  0.00    -0.340 N 
HETATM   25  H6  UNL     1      24.242   4.836  52.527  1.00  0.00     0.167 HD
BRANCH  24  26
HETATM   26  C6  UNL     1      25.049   4.741  50.567  1.00  0.00     0.035 A 
HETATM   27  C7  UNL     1      25.968   3.780  50.198  1.00  0.00     0.029 A 
HETATM   28  C8  UNL     1      26.976   3.962  49.265  1.00  0.00     0.004 A 
HETATM   29  C9  UNL     1      27.036   5.210  48.680  1.00  0.00     0.019 A 
HETATM   30  C10 UNL     1      26.167   6.230  48.979  1.00  0.00     0.013 A 
HETATM   31 BR1  UNL     1      26.266   7.945  48.162  1.00  0.00    -0.051 Br
HETATM   32  C11 UNL     1      25.187   5.964  49.924  1.00  0.00     0.048 A 
ENDBRANCH  24  26
ENDBRANCH   5  24
TORSDOF 5
ENDMDL
MODEL 7
REMARK VINA RESULT:      -8.7      3.760      6.866
REMARK  5 active torsions:
REMARK  status: ('A' for Active; 'I' for Inactive)
REMARK    1  A    between atoms: C2_2  and  C3_3 
REMARK    2  A    between atoms: C5_7  and  N3_8 
REMARK    3  A    between atoms: N3_8  and  C6_9 
REMARK    4  A    between atoms: C12_16  and  C13_17 
REMARK    5  A    between atoms: C13_17  and  C14_18 
ROOT
HETATM    1  C3  UNL     1      20.702   0.551  52.799  1.00  0.00     0.068 A 
HETATM    2  N1  UNL     1      19.445   0.635  52.349  1.00  0.00    -0.241 NA
HETATM    3  C4  UNL     1      19.212   1.026  51.087  1.00  0.00     0.235 A 
HETATM    4  N2  UNL     1      20.196   1.336  50.261  1.00  0.00    -0.224 NA
HETATM    5  C5  UNL     1      21.494   1.266  50.679  1.00  0.00     0.142 A 
HETATM    6  C12 UNL     1      21.769   0.857  52.000  1.00  0.00     0.041 A 
ENDROOT
BRANCH   6   7
HETATM    7  C13 UNL     1      22.974   0.752  52.437  1.00  0.00     0.046 C 
BRANCH   7   8
HETATM    8  C14 UNL     1      24.266   0.391  52.918  1.00  0.00     0.026 C 
HETATM    9  C15 UNL     1      24.741  -0.884  53.064  1.00  0.00     0.002 C 
HETATM   10  C16 UNL     1      26.090  -0.977  53.573  1.00  0.00     0.031 C 
HETATM   11  C17 UNL     1      27.123  -1.681  52.679  1.00  0.00     0.023 C 
HETATM   12  C18 UNL     1      28.484  -1.225  53.381  1.00  0.00     0.114 C 
HETATM   13  N4  UNL     1      28.383   0.187  53.209  1.00  0.00    -0.420 N 
HETATM   14  C19 UNL     1      29.065   1.104  54.013  1.00  0.00     0.133 C 
HETATM   15  H19 UNL     1      28.346   0.461  52.184  1.00  0.00     0.153 HD
HETATM   16  C20 UNL     1      28.639   2.486  53.482  1.00  0.00     0.134 C 
HETATM   17  N5  UNL     1      27.307   2.541  53.095  1.00  0.00    -0.405 N 
HETATM   18  C21 UNL     1      26.200   2.393  53.915  1.00  0.00     0.238 C 
HETATM   19  H24 UNL     1      27.121   2.747  52.088  1.00  0.00     0.154 HD
HETATM   20  N6  UNL     1      25.296   1.387  53.303  1.00  0.00    -0.374 N 
HETATM   21  H27 UNL     1      25.584   1.214  52.291  1.00  0.00     0.161 HD
ENDBRANCH   7   8
ENDBRANCH   6   7
BRANCH   1  22
HETATM   22  C2  UNL     1      20.707   0.159  54.065  1.00  0.00     0.002 C 
HETATM   23  C1  UNL     1      20.975  -1.256  54.417  1.00  0.00     0.038 C 
ENDBRANCH   1  22
BRANCH   5  24
HETATM   24  N3  UNL     1      22.526   1.623  49.775  1.00  0.00    -0.340 N 
HETATM   25  H6  UNL     1      22.937   1.104  48.948  1.00  0.00     0.167 HD
BRANCH  24  26
HETATM   26  C6  UNL     1      23.089   2.909  50.052  1.00  0.00     0.035 A 
HETATM   27  C7  UNL     1      24.451   3.103  50.167  1.00  0.00     0.029 A 
HETATM   28  C8  UNL     1      25.060   4.317  50.443  1.00  0.00     0.004 A 
HETATM   29  C9  UNL     1      24.211   5.392  50.610  1.00  0.00     0.019 A 
HETATM   30  C10 UNL     1      22.844   5.300  50.514  1.00  0.00     0.013 A 
HETATM   31 BR1  UNL     1      21.690   6.794  50.748  1.00  0.00    -0.051 Br
HETATM   32  C11 UNL     1      22.316   4.048  50.235  1.00  0.00     0.048 A 
ENDBRANCH  24  26
ENDBRANCH   5  24
TORSDOF 5
ENDMDL
MODEL 8
REMARK VINA RESULT:      -8.7      2.637      6.570
REMARK  5 active torsions:
REMARK  status: ('A' for Active; 'I' for Inactive)
REMARK    1  A    between atoms: C2_2  and  C3_3 
REMARK    2  A    between atoms: C5_7  and  N3_8 
REMARK    3  A    between atoms: N3_8  and  C6_9 
REMARK    4  A    between atoms: C12_16  and  C13_17 
REMARK    5  A    between atoms: C13_17  and  C14_18 
ROOT
HETATM    1  C3  UNL     1      25.506   4.730  49.488  1.00  0.00     0.068 A 
HETATM    2  N1  UNL     1      25.059   5.679  48.659  1.00  0.00    -0.241 NA
HETATM    3  C4  UNL     1      23.814   6.158  48.801  1.00  0.00     0.235 A 
HETATM    4  N2  UNL     1      23.001   5.717  49.744  1.00  0.00    -0.224 NA
HETATM    5  C5  UNL     1      23.416   4.747  50.612  1.00  0.00     0.142 A 
HETATM    6  C12 UNL     1      24.719   4.226  50.488  1.00  0.00     0.041 A 
ENDROOT
BRANCH   6   7
HETATM    7  C13 UNL     1      25.168   3.329  51.294  1.00  0.00     0.046 C 
BRANCH   7   8
HETATM    8  C14 UNL     1      25.693   2.198  51.981  1.00  0.00     0.026 C 
HETATM    9  C15 UNL     1      25.159   0.938  51.981  1.00  0.00     0.002 C 
HETATM   10  C16 UNL     1      25.889  -0.034  52.762  1.00  0.00     0.031 C 
HETATM   11  C17 UNL     1      26.430  -1.262  52.012  1.00  0.00     0.023 C 
HETATM   12  C18 UNL     1      27.464  -1.835  53.088  1.00  0.00     0.114 C 
HETATM   13  N4  UNL     1      28.357  -0.727  53.178  1.00  0.00    -0.420 N 
HETATM   14  C19 UNL     1      29.182  -0.500  54.282  1.00  0.00     0.133 C 
HETATM   15  H19 UNL     1      28.820  -0.513  52.247  1.00  0.00     0.153 HD
HETATM   16  C20 UNL     1      29.938   0.802  53.947  1.00  0.00     0.134 C 
HETATM   17  N5  UNL     1      29.159   1.735  53.280  1.00  0.00    -0.405 N 
HETATM   18  C21 UNL     1      28.037   2.383  53.774  1.00  0.00     0.238 C 
HETATM   19  H24 UNL     1      29.466   2.000  52.318  1.00  0.00     0.154 HD
HETATM   20  N6  UNL     1      26.940   2.243  52.784  1.00  0.00    -0.374 N 
HETATM   21  H27 UNL     1      27.339   1.907  51.852  1.00  0.00     0.161 HD
ENDBRANCH   7   8
ENDBRANCH   6   7
BRANCH   1  22
HETATM   22  C2  UNL     1      26.748   4.394  49.170  1.00  0.00     0.002 C 
HETATM   23  C1  UNL     1      27.655   5.375  48.528  1.00  0.00     0.038 C 
ENDBRANCH   1  22
BRANCH   5  24
HETATM   24  N3  UNL     1      22.514   4.282  51.602  1.00  0.00    -0.340 N 
HETATM   25  H6  UNL     1      22.122   4.757  52.465  1.00  0.00     0.167 HD
BRANCH  24  26
HETATM   26  C6  UNL     1      22.076   2.939  51.371  1.00  0.00     0.035 A 
HETATM   27  C7  UNL     1      21.872   2.446  50.098  1.00  0.00     0.029 A 
HETATM   28  C8  UNL     1      21.440   1.162  49.804  1.00  0.00     0.004 A 
HETATM   29  C9  UNL     1      21.207   0.343  50.890  1.00  0.00     0.019 A 
HETATM   30  C10 UNL     1      21.382   0.741  52.192  1.00  0.00     0.013 A 
HETATM   31 BR1  UNL     1      21.053  -0.403  53.675  1.00  0.00    -0.051 Br
HETATM   32  C11 UNL     1      21.816   2.042  52.398  1.00  0.00     0.048 A 
ENDBRANCH  24  26
ENDBRANCH   5  24
TORSDOF 5
ENDMDL
MODEL 9
REMARK VINA RESULT:      -8.6      3.947      6.947
REMARK  5 active torsions:
REMARK  status: ('A' for Active; 'I' for Inactive)
REMARK    1  A    between atoms: C2_2  and  C3_3 
REMARK    2  A    between atoms: C5_7  and  N3_8 
REMARK    3  A    between atoms: N3_8  and  C6_9 
REMARK    4  A    between atoms: C12_16  and  C13_17 
REMARK    5  A    between atoms: C13_17  and  C14_18 
ROOT
HETATM    1  C3  UNL     1      21.961   1.034  52.558  1.00  0.00     0.068 A 
HETATM    2  N1  UNL     1      20.710   1.478  52.389  1.00  0.00    -0.241 NA
HETATM    3  C4  UNL     1      20.477   2.794  52.282  1.00  0.00     0.235 A 
HETATM    4  N2  UNL     1      21.454   3.682  52.340  1.00  0.00    -0.224 NA
HETATM    5  C5  UNL     1      22.746   3.273  52.512  1.00  0.00     0.142 A 
HETATM    6  C12 UNL     1      23.022   1.896  52.626  1.00  0.00     0.041 A 
ENDROOT
BRANCH   6   7
HETATM    7  C13 UNL     1      24.223   1.457  52.766  1.00  0.00     0.046 C 
BRANCH   7   8
HETATM    8  C14 UNL     1      25.614   1.154  52.768  1.00  0.00     0.026 C 
HETATM    9  C15 UNL     1      26.631   2.046  52.977  1.00  0.00     0.002 C 
HETATM   10  C16 UNL     1      27.959   1.480  52.928  1.00  0.00     0.031 C 
HETATM   11  C17 UNL     1      28.819   1.615  54.195  1.00  0.00     0.023 C 
HETATM   12  C18 UNL     1      29.977   0.559  53.882  1.00  0.00     0.114 C 
HETATM   13  N4  UNL     1      29.198  -0.632  53.790  1.00  0.00    -0.420 N 
HETATM   14  C19 UNL     1      29.624  -1.770  53.101  1.00  0.00     0.133 C 
HETATM   15  H19 UNL     1      28.691  -0.847  54.698  1.00  0.00     0.153 HD
HETATM   16  C20 UNL     1      28.467  -2.778  53.252  1.00  0.00     0.134 C 
HETATM   17  N5  UNL     1      27.213  -2.188  53.198  1.00  0.00    -0.405 N 
HETATM   18  C21 UNL     1      26.650  -1.537  52.111  1.00  0.00     0.238 C 
HETATM   19  H24 UNL     1      26.620  -2.271  54.053  1.00  0.00     0.154 HD
HETATM   20  N6  UNL     1      26.147  -0.216  52.566  1.00  0.00    -0.374 N 
HETATM   21  H27 UNL     1      26.114  -0.193  53.632  1.00  0.00     0.161 HD
ENDBRANCH   7   8
ENDBRANCH   6   7
BRANCH   1  22
HETATM   22  C2  UNL     1      21.968  -0.288  52.649  1.00  0.00     0.002 C 
HETATM   23  C1  UNL     1      21.632  -0.959  53.928  1.00  0.00     0.038 C 
ENDBRANCH   1  22
BRANCH   5  24
HETATM   24  N3  UNL     1      23.770   4.251  52.588  1.00  0.00    -0.340 N 
HETATM   25  H6  UNL     1      24.337   4.602  53.412  1.00  0.00     0.167 HD
BRANCH  24  26
HETATM   26  C6  UNL     1      24.066   4.848  51.322  1.00  0.00     0.035 A 
HETATM   27  C7  UNL     1      24.845   4.211  50.377  1.00  0.00     0.029 A 
HETATM   28  C8  UNL     1      25.178   4.736  49.138  1.00  0.00     0.004 A 
HETATM   29  C9  UNL     1      24.675   5.991  48.861  1.00  0.00     0.019 A 
HETATM   30  C10 UNL     1      23.891   6.703  49.735  1.00  0.00     0.013 A 
HETATM   31 BR1  UNL     1      23.209   8.433  49.336  1.00  0.00    -0.051 Br
HETATM   32  C11 UNL     1      23.606   6.105  50.954  1.00  0.00     0.048 A 
ENDBRANCH  24  26
ENDBRANCH   5  24
TORSDOF 5
ENDMDL
