MODEL 1
REMARK VINA RESULT:      -7.7      0.000      0.000
REMARK  8 active torsions:
REMARK  status: ('A' for Active; 'I' for Inactive)
REMARK    1  A    between atoms: O1_1  and  C1_2 
REMARK    2  A    between atoms: C1_2  and  C2_3 
REMARK    3  A    between atoms: C2_3  and  O2_4 
REMARK    4  A    between atoms: O2_4  and  C3_5 
REMARK    5  A    between atoms: C3_5  and  C4_6 
REMARK    6  A    between atoms: C4_6  and  C5_7 
REMARK    7  A    between atoms: C5_7  and  C6_8 
REMARK    8  A    between atoms: N3_21  and  O4_22 
ROOT
HETATM    1  C6  UNL     1      25.663   1.817  51.955  1.00  0.00     0.124 C 
HETATM    2  C7  UNL     1      24.398   1.171  52.295  1.00  0.00    -0.004 A 
HETATM    3  C8  UNL     1      24.172   0.353  53.379  1.00  0.00     0.027 A 
HETATM    4  C9  UNL     1      22.954  -0.238  53.660  1.00  0.00     0.011 A 
HETATM    5  C10 UNL     1      22.793  -1.050  54.762  1.00  0.00     0.131 A 
HETATM    6  N1  UNL     1      21.573  -1.587  54.965  1.00  0.00    -0.253 NA
HETATM    7  C11 UNL     1      20.516  -1.360  54.133  1.00  0.00     0.233 A 
HETATM    8  N2  UNL     1      20.679  -0.564  53.051  1.00  0.00    -0.241 NA
HETATM    9  C12 UNL     1      21.870  -0.018  52.825  1.00  0.00     0.072 A 
HETATM   10  C13 UNL     1      22.073   0.810  51.717  1.00  0.00     0.070 A 
HETATM   11  C14 UNL     1      23.300   1.387  51.460  1.00  0.00     0.080 A 
HETATM   12  O3  UNL     1      23.389   2.199  50.322  1.00  0.00    -0.334 OA
HETATM   13  C15 UNL     1      24.529   3.003  50.187  1.00  0.00     0.296 C 
HETATM   14  N3  UNL     1      25.389   3.074  51.314  1.00  0.00    -0.167 NA
ENDROOT
BRANCH   1  15
HETATM   15  C5  UNL     1      26.582   2.027  53.120  1.00  0.00     0.029 C 
BRANCH  15  16
HETATM   16  C4  UNL     1      27.789   1.081  53.054  1.00  0.00     0.028 C 
BRANCH  16  17
HETATM   17  C3  UNL     1      27.720   0.251  54.313  1.00  0.00     0.167 C 
BRANCH  17  18
HETATM   18  O2  UNL     1      28.744  -0.640  54.486  1.00  0.00    -0.389 OA
BRANCH  18  19
HETATM   19  C2  UNL     1      29.083  -1.261  53.311  1.00  0.00     0.193 C 
BRANCH  19  20
HETATM   20  C1  UNL     1      28.104  -2.393  52.971  1.00  0.00     0.190 C 
BRANCH  20  21
HETATM   21  O1  UNL     1      28.645  -3.618  53.409  1.00  0.00    -0.399 OA
HETATM   22  H1  UNL     1      28.932  -4.109  52.596  1.00  0.00     0.209 HD
ENDBRANCH  20  21
ENDBRANCH  19  20
ENDBRANCH  18  19
ENDBRANCH  17  18
ENDBRANCH  16  17
ENDBRANCH  15  16
ENDBRANCH   1  15
BRANCH  14  23
HETATM   23  O4  UNL     1      26.573   3.608  50.892  1.00  0.00    -0.310 OA
HETATM   24  H19 UNL     1      26.981   3.074  50.154  1.00  0.00     0.237 HD
ENDBRANCH  14  23
TORSDOF 8
ENDMDL
MODEL 2
REMARK VINA RESULT:      -7.5      2.439      3.859
REMARK  8 active torsions:
REMARK  status: ('A' for Active; 'I' for Inactive)
REMARK    1  A    between atoms: O1_1  and  C1_2 
REMARK    2  A    between atoms: C1_2  and  C2_3 
REMARK    3  A    between atoms: C2_3  and  O2_4 
REMARK    4  A    between atoms: O2_4  and  C3_5 
REMARK    5  A    between atoms: C3_5  and  C4_6 
REMARK    6  A    between atoms: C4_6  and  C5_7 
REMARK    7  A    between atoms: C5_7  and  C6_8 
REMARK    8  A    between atoms: N3_21  and  O4_22 
ROOT
HETATM    1  C6  UNL     1      24.440   0.198  53.814  1.00  0.00     0.124 C 
HETATM    2  C7  UNL     1      23.018  -0.071  53.621  1.00  0.00    -0.004 A 
HETATM    3  C8  UNL     1      22.247   0.364  52.566  1.00  0.00     0.027 A 
HETATM    4  C9  UNL     1      20.900   0.084  52.426  1.00  0.00     0.011 A 
HETATM    5  C10 UNL     1      20.184   0.550  51.345  1.00  0.00     0.131 A 
HETATM    6  N1  UNL     1      18.875   0.233  51.283  1.00  0.00    -0.253 NA
HETATM    7  C11 UNL     1      18.249  -0.518  52.236  1.00  0.00     0.233 A 
HETATM    8  N2  UNL     1      18.957  -0.972  53.296  1.00  0.00    -0.241 NA
HETATM    9  C12 UNL     1      20.249  -0.677  53.384  1.00  0.00     0.072 A 
HETATM   10  C13 UNL     1      21.010  -1.130  54.466  1.00  0.00     0.070 A 
HETATM   11  C14 UNL     1      22.353  -0.836  54.580  1.00  0.00     0.080 A 
HETATM   12  O3  UNL     1      23.016  -1.344  55.706  1.00  0.00    -0.334 OA
HETATM   13  C15 UNL     1      24.416  -1.291  55.711  1.00  0.00     0.296 C 
HETATM   14  N3  UNL     1      25.040  -0.919  54.491  1.00  0.00    -0.167 NA
ENDROOT
BRANCH   1  15
HETATM   15  C5  UNL     1      25.191   0.492  52.550  1.00  0.00     0.029 C 
BRANCH  15  16
HETATM   16  C4  UNL     1      25.495   1.990  52.419  1.00  0.00     0.028 C 
BRANCH  16  17
HETATM   17  C3  UNL     1      26.991   2.114  52.574  1.00  0.00     0.167 C 
BRANCH  17  18
HETATM   18  O2  UNL     1      27.451   2.114  53.863  1.00  0.00    -0.389 OA
BRANCH  18  19
HETATM   19  C2  UNL     1      28.822   2.121  53.914  1.00  0.00     0.193 C 
BRANCH  19  20
HETATM   20  C1  UNL     1      29.400   0.718  53.685  1.00  0.00     0.190 C 
BRANCH  20  21
HETATM   21  O1  UNL     1      29.036  -0.113  54.763  1.00  0.00    -0.399 OA
HETATM   22  H1  UNL     1      29.211   0.403  55.592  1.00  0.00     0.209 HD
ENDBRANCH  20  21
ENDBRANCH  19  20
ENDBRANCH  18  19
ENDBRANCH  17  18
ENDBRANCH  16  17
ENDBRANCH  15  16
ENDBRANCH   1  15
BRANCH  14  23
HETATM   23  O4  UNL     1      26.338  -0.604  54.774  1.00  0.00    -0.310 OA
HETATM   24  H19 UNL     1      26.531  -0.660  55.752  1.00  0.00     0.237 HD
ENDBRANCH  14  23
TORSDOF 8
ENDMDL
MODEL 3
REMARK VINA RESULT:      -7.3      1.990      5.162
REMARK  8 active torsions:
REMARK  status: ('A' for Active; 'I' for Inactive)
REMARK    1  A    between atoms: O1_1  and  C1_2 
REMARK    2  A    between atoms: C1_2  and  C2_3 
REMARK    3  A    between atoms: C2_3  and  O2_4 
REMARK    4  A    between atoms: O2_4  and  C3_5 
REMARK    5  A    between atoms: C3_5  and  C4_6 
REMARK    6  A    between atoms: C4_6  and  C5_7 
REMARK    7  A    between atoms: C5_7  and  C6_8 
REMARK    8  A    between atoms: N3_21  and  O4_22 
ROOT
HETATM    1  C6  UNL     1      26.763   1.357  52.980  1.00  0.00     0.124 C 
HETATM    2  C7  UNL     1      25.616   0.605  53.483  1.00  0.00    -0.004 A 
HETATM    3  C8  UNL     1      24.351   0.600  52.939  1.00  0.00     0.027 A 
HETATM    4  C9  UNL     1      23.293  -0.130  53.452  1.00  0.00     0.011 A 
HETATM    5  C10 UNL     1      22.049  -0.092  52.861  1.00  0.00     0.131 A 
HETATM    6  N1  UNL     1      21.072  -0.832  53.423  1.00  0.00    -0.253 NA
HETATM    7  C11 UNL     1      21.270  -1.600  54.533  1.00  0.00     0.233 A 
HETATM    8  N2  UNL     1      22.493  -1.633  55.110  1.00  0.00    -0.241 NA
HETATM    9  C12 UNL     1      23.477  -0.915  54.579  1.00  0.00     0.072 A 
HETATM   10  C13 UNL     1      24.754  -0.926  55.150  1.00  0.00     0.070 A 
HETATM   11  C14 UNL     1      25.791  -0.188  54.617  1.00  0.00     0.080 A 
HETATM   12  O3  UNL     1      27.027  -0.276  55.271  1.00  0.00    -0.334 OA
HETATM   13  C15 UNL     1      28.149   0.239  54.607  1.00  0.00     0.296 C 
HETATM   14  N3  UNL     1      27.964   0.615  53.251  1.00  0.00    -0.167 NA
ENDROOT
BRANCH   1  15
HETATM   15  C5  UNL     1      26.689   1.695  51.521  1.00  0.00     0.029 C 
BRANCH  15  16
HETATM   16  C4  UNL     1      26.040   3.068  51.301  1.00  0.00     0.028 C 
BRANCH  16  17
HETATM   17  C3  UNL     1      26.524   3.532  49.949  1.00  0.00     0.167 C 
BRANCH  17  18
HETATM   18  O2  UNL     1      26.092   4.772  49.563  1.00  0.00    -0.389 OA
BRANCH  18  19
HETATM   19  C2  UNL     1      25.004   5.181  50.291  1.00  0.00     0.193 C 
BRANCH  19  20
HETATM   20  C1  UNL     1      25.063   6.684  50.594  1.00  0.00     0.190 C 
BRANCH  20  21
HETATM   21  O1  UNL     1      24.508   6.921  51.867  1.00  0.00    -0.399 OA
HETATM   22  H1  UNL     1      24.729   7.859  52.103  1.00  0.00     0.209 HD
ENDBRANCH  20  21
ENDBRANCH  19  20
ENDBRANCH  18  19
ENDBRANCH  17  18
ENDBRANCH  16  17
ENDBRANCH  15  16
ENDBRANCH   1  15
BRANCH  14  23
HETATM   23  O4  UNL     1      29.034   1.382  52.889  1.00  0.00    -0.310 OA
HETATM   24  H19 UNL     1      29.010   1.622  51.920  1.00  0.00     0.237 HD
ENDBRANCH  14  23
TORSDOF 8
ENDMDL
MODEL 4
REMARK VINA RESULT:      -6.8      2.330      6.425
REMARK  8 active torsions:
REMARK  status: ('A' for Active; 'I' for Inactive)
REMARK    1  A    between atoms: O1_1  and  C1_2 
REMARK    2  A    between atoms: C1_2  and  C2_3 
REMARK    3  A    between atoms: C2_3  and  O2_4 
REMARK    4  A    between atoms: O2_4  and  C3_5 
REMARK    5  A    between atoms: C3_5  and  C4_6 
REMARK    6  A    between atoms: C4_6  and  C5_7 
REMARK    7  A    between atoms: C5_7  and  C6_8 
REMARK    8  A    between atoms: N3_21  and  O4_22 
ROOT
HETATM    1  C6  UNL     1      22.869   0.145  53.037  1.00  0.00     0.124 C 
HETATM    2  C7  UNL     1      24.261   0.312  53.446  1.00  0.00    -0.004 A 
HETATM    3  C8  UNL     1      25.184   1.147  52.857  1.00  0.00     0.027 A 
HETATM    4  C9  UNL     1      26.494   1.272  53.281  1.00  0.00     0.011 A 
HETATM    5  C10 UNL     1      27.370   2.126  52.647  1.00  0.00     0.131 A 
HETATM    6  N1  UNL     1      28.630   2.188  53.121  1.00  0.00    -0.253 NA
HETATM    7  C11 UNL     1      29.058   1.450  54.186  1.00  0.00     0.233 A 
HETATM    8  N2  UNL     1      28.195   0.612  54.805  1.00  0.00    -0.241 NA
HETATM    9  C12 UNL     1      26.945   0.529  54.360  1.00  0.00     0.072 A 
HETATM   10  C13 UNL     1      26.027  -0.327  54.976  1.00  0.00     0.070 A 
HETATM   11  C14 UNL     1      24.725  -0.431  54.532  1.00  0.00     0.080 A 
HETATM   12  O3  UNL     1      23.892  -1.320  55.226  1.00  0.00    -0.334 OA
HETATM   13  C15 UNL     1      22.515  -1.247  54.974  1.00  0.00     0.296 C 
HETATM   14  N3  UNL     1      22.071  -0.145  54.197  1.00  0.00    -0.167 NA
ENDROOT
BRANCH   1  15
HETATM   15  C5  UNL     1      22.295   1.320  52.303  1.00  0.00     0.029 C 
BRANCH  15  16
HETATM   16  C4  UNL     1      22.061   0.991  50.823  1.00  0.00     0.028 C 
BRANCH  16  17
HETATM   17  C3  UNL     1      22.764   2.080  50.050  1.00  0.00     0.167 C 
BRANCH  17  18
HETATM   18  O2  UNL     1      22.652   3.339  50.575  1.00  0.00    -0.389 OA
BRANCH  18  19
HETATM   19  C2  UNL     1      23.554   4.206  50.013  1.00  0.00     0.193 C 
BRANCH  19  20
HETATM   20  C1  UNL     1      24.980   3.934  50.512  1.00  0.00     0.190 C 
BRANCH  20  21
HETATM   21  O1  UNL     1      25.714   5.136  50.492  1.00  0.00    -0.399 OA
HETATM   22  H1  UNL     1      25.404   5.671  51.268  1.00  0.00     0.209 HD
ENDBRANCH  20  21
ENDBRANCH  19  20
ENDBRANCH  18  19
ENDBRANCH  17  18
ENDBRANCH  16  17
ENDBRANCH  15  16
ENDBRANCH   1  15
BRANCH  14  23
HETATM   23  O4  UNL     1      20.799  -0.420  53.785  1.00  0.00    -0.310 OA
HETATM   24  H19 UNL     1      20.787  -1.006  52.978  1.00  0.00     0.237 HD
ENDBRANCH  14  23
TORSDOF 8
ENDMDL
MODEL 5
REMARK VINA RESULT:      -6.7      3.015      7.130
REMARK  8 active torsions:
REMARK  status: ('A' for Active; 'I' for Inactive)
REMARK    1  A    between atoms: O1_1  and  C1_2 
REMARK    2  A    between atoms: C1_2  and  C2_3 
REMARK    3  A    between atoms: C2_3  and  O2_4 
REMARK    4  A    between atoms: O2_4  and  C3_5 
REMARK    5  A    between atoms: C3_5  and  C4_6 
REMARK    6  A    between atoms: C4_6  and  C5_7 
REMARK    7  A    between atoms: C5_7  and  C6_8 
REMARK    8  A    between atoms: N3_21  and  O4_22 
ROOT
HETATM    1  C6  UNL     1      22.598   0.163  52.860  1.00  0.00     0.124 C 
HETATM    2  C7  UNL     1      23.983   0.158  53.324  1.00  0.00    -0.004 A 
HETATM    3  C8  UNL     1      25.036   0.822  52.735  1.00  0.00     0.027 A 
HETATM    4  C9  UNL     1      26.334   0.787  53.212  1.00  0.00     0.011 A 
HETATM    5  C10 UNL     1      27.345   1.474  52.576  1.00  0.00     0.131 A 
HETATM    6  N1  UNL     1      28.582   1.387  53.104  1.00  0.00    -0.253 NA
HETATM    7  C11 UNL     1      28.861   0.658  54.223  1.00  0.00     0.233 A 
HETATM    8  N2  UNL     1      27.865  -0.015  54.843  1.00  0.00    -0.241 NA
HETATM    9  C12 UNL     1      26.634   0.051  54.347  1.00  0.00     0.072 A 
HETATM   10  C13 UNL     1      25.581  -0.633  54.963  1.00  0.00     0.070 A 
HETATM   11  C14 UNL     1      24.295  -0.580  54.466  1.00  0.00     0.080 A 
HETATM   12  O3  UNL     1      23.319  -1.304  55.165  1.00  0.00    -0.334 OA
HETATM   13  C15 UNL     1      21.977  -1.055  54.847  1.00  0.00     0.296 C 
HETATM   14  N3  UNL     1      21.723   0.053  53.996  1.00  0.00    -0.167 NA
ENDROOT
BRANCH   1  15
HETATM   15  C5  UNL     1      22.224   1.363  52.043  1.00  0.00     0.029 C 
BRANCH  15  16
HETATM   16  C4  UNL     1      21.978   0.983  50.576  1.00  0.00     0.028 C 
BRANCH  16  17
HETATM   17  C3  UNL     1      20.587   1.474  50.259  1.00  0.00     0.167 C 
BRANCH  17  18
HETATM   18  O2  UNL     1      19.566   0.721  50.772  1.00  0.00    -0.389 OA
BRANCH  18  19
HETATM   19  C2  UNL     1      18.482   1.493  51.102  1.00  0.00     0.193 C 
BRANCH  19  20
HETATM   20  C1  UNL     1      18.792   2.989  50.961  1.00  0.00     0.190 C 
BRANCH  20  21
HETATM   21  O1  UNL     1      18.332   3.667  52.107  1.00  0.00    -0.399 OA
HETATM   22  H1  UNL     1      18.210   4.616  51.847  1.00  0.00     0.209 HD
ENDBRANCH  20  21
ENDBRANCH  19  20
ENDBRANCH  18  19
ENDBRANCH  17  18
ENDBRANCH  16  17
ENDBRANCH  15  16
ENDBRANCH   1  15
BRANCH  14  23
HETATM   23  O4  UNL     1      20.441  -0.066  53.541  1.00  0.00    -0.310 OA
HETATM   24  H19 UNL     1      20.384   0.053  52.552  1.00  0.00     0.237 HD
ENDBRANCH  14  23
TORSDOF 8
ENDMDL
MODEL 6
REMARK VINA RESULT:      -6.6      3.063      6.585
REMARK  8 active torsions:
REMARK  status: ('A' for Active; 'I' for Inactive)
REMARK    1  A    between atoms: O1_1  and  C1_2 
REMARK    2  A    between atoms: C1_2  and  C2_3 
REMARK    3  A    between atoms: C2_3  and  O2_4 
REMARK    4  A    between atoms: O2_4  and  C3_5 
REMARK    5  A    between atoms: C3_5  and  C4_6 
REMARK    6  A    between atoms: C4_6  and  C5_7 
REMARK    7  A    between atoms: C5_7  and  C6_8 
REMARK    8  A    between atoms: N3_21  and  O4_22 
ROOT
HETATM    1  C6  UNL     1      22.952   1.245  52.137  1.00  0.00     0.124 C 
HETATM    2  C7  UNL     1      24.377   1.397  52.421  1.00  0.00    -0.004 A 
HETATM    3  C8  UNL     1      25.063   0.806  53.458  1.00  0.00     0.027 A 
HETATM    4  C9  UNL     1      26.416   0.979  53.687  1.00  0.00     0.011 A 
HETATM    5  C10 UNL     1      27.045   0.360  54.746  1.00  0.00     0.131 A 
HETATM    6  N1  UNL     1      28.366   0.581  54.899  1.00  0.00    -0.253 NA
HETATM    7  C11 UNL     1      29.085   1.381  54.060  1.00  0.00     0.233 A 
HETATM    8  N2  UNL     1      28.463   1.988  53.023  1.00  0.00    -0.241 NA
HETATM    9  C12 UNL     1      27.161   1.789  52.845  1.00  0.00     0.072 A 
HETATM   10  C13 UNL     1      26.487   2.400  51.784  1.00  0.00     0.070 A 
HETATM   11  C14 UNL     1      25.136   2.209  51.579  1.00  0.00     0.080 A 
HETATM   12  O3  UNL     1      24.566   2.871  50.483  1.00  0.00    -0.334 OA
HETATM   13  C15 UNL     1      23.274   2.488  50.096  1.00  0.00     0.296 C 
HETATM   14  N3  UNL     1      22.746   1.326  50.717  1.00  0.00    -0.167 NA
ENDROOT
BRANCH   1  15
HETATM   15  C5  UNL     1      22.346  -0.018  52.671  1.00  0.00     0.029 C 
BRANCH  15  16
HETATM   16  C4  UNL     1      21.382   0.273  53.828  1.00  0.00     0.028 C 
BRANCH  16  17
HETATM   17  C3  UNL     1      20.037  -0.238  53.371  1.00  0.00     0.167 C 
BRANCH  17  18
HETATM   18  O2  UNL     1      19.534   0.355  52.245  1.00  0.00    -0.389 OA
BRANCH  18  19
HETATM   19  C2  UNL     1      18.367  -0.239  51.837  1.00  0.00     0.193 C 
BRANCH  19  20
HETATM   20  C1  UNL     1      17.613   0.638  50.828  1.00  0.00     0.190 C 
BRANCH  20  21
HETATM   21  O1  UNL     1      17.490  -0.059  49.610  1.00  0.00    -0.399 OA
HETATM   22  H1  UNL     1      18.277   0.190  49.059  1.00  0.00     0.209 HD
ENDBRANCH  20  21
ENDBRANCH  19  20
ENDBRANCH  18  19
ENDBRANCH  17  18
ENDBRANCH  16  17
ENDBRANCH  15  16
ENDBRANCH   1  15
BRANCH  14  23
HETATM   23  O4  UNL     1      21.402   1.308  50.476  1.00  0.00    -0.310 OA
HETATM   24  H19 UNL     1      21.133   0.521  49.925  1.00  0.00     0.237 HD
ENDBRANCH  14  23
TORSDOF 8
ENDMDL
MODEL 7
REMARK VINA RESULT:      -6.6      2.748      6.464
REMARK  8 active torsions:
REMARK  status: ('A' for Active; 'I' for Inactive)
REMARK    1  A    between atoms: O1_1  and  C1_2 
REMARK    2  A    between atoms: C1_2  and  C2_3 
REMARK    3  A    between atoms: C2_3  and  O2_4 
REMARK    4  A    between atoms: O2_4  and  C3_5 
REMARK    5  A    between atoms: C3_5  and  C4_6 
REMARK    6  A    between atoms: C4_6  and  C5_7 
REMARK    7  A    between atoms: C5_7  and  C6_8 
REMARK    8  A    between atoms: N3_21  and  O4_22 
ROOT
HETATM    1  C6  UNL     1      23.540   1.781  51.532  1.00  0.00     0.124 C 
HETATM    2  C7  UNL     1      24.632   1.320  52.384  1.00  0.00    -0.004 A 
HETATM    3  C8  UNL     1      25.853   1.937  52.542  1.00  0.00     0.027 A 
HETATM    4  C9  UNL     1      26.859   1.461  53.363  1.00  0.00     0.011 A 
HETATM    5  C10 UNL     1      28.061   2.126  53.476  1.00  0.00     0.131 A 
HETATM    6  N1  UNL     1      28.989   1.596  54.297  1.00  0.00    -0.253 NA
HETATM    7  C11 UNL     1      28.783   0.447  55.005  1.00  0.00     0.233 A 
HETATM    8  N2  UNL     1      27.602  -0.203  54.890  1.00  0.00    -0.241 NA
HETATM    9  C12 UNL     1      26.666   0.296  54.088  1.00  0.00     0.072 A 
HETATM   10  C13 UNL     1      25.434  -0.350  53.945  1.00  0.00     0.070 A 
HETATM   11  C14 UNL     1      24.448   0.148  53.119  1.00  0.00     0.080 A 
HETATM   12  O3  UNL     1      23.253  -0.582  53.054  1.00  0.00    -0.334 OA
HETATM   13  C15 UNL     1      22.151   0.033  52.443  1.00  0.00     0.296 C 
HETATM   14  N3  UNL     1      22.288   1.411  52.133  1.00  0.00    -0.167 NA
ENDROOT
BRANCH   1  15
HETATM   15  C5  UNL     1      23.556   3.254  51.249  1.00  0.00     0.029 C 
BRANCH  15  16
HETATM   16  C4  UNL     1      23.973   3.537  49.799  1.00  0.00     0.028 C 
BRANCH  16  17
HETATM   17  C3  UNL     1      23.914   5.037  49.648  1.00  0.00     0.167 C 
BRANCH  17  18
HETATM   18  O2  UNL     1      24.547   5.543  48.545  1.00  0.00    -0.389 OA
BRANCH  18  19
HETATM   19  C2  UNL     1      25.413   6.553  48.874  1.00  0.00     0.193 C 
BRANCH  19  20
HETATM   20  C1  UNL     1      25.081   7.154  50.246  1.00  0.00     0.190 C 
BRANCH  20  21
HETATM   21  O1  UNL     1      26.277   7.541  50.883  1.00  0.00    -0.399 OA
HETATM   22  H1  UNL     1      26.236   7.183  51.807  1.00  0.00     0.209 HD
ENDBRANCH  20  21
ENDBRANCH  19  20
ENDBRANCH  18  19
ENDBRANCH  17  18
ENDBRANCH  16  17
ENDBRANCH  15  16
ENDBRANCH   1  15
BRANCH  14  23
HETATM   23  O4  UNL     1      21.283   1.738  51.268  1.00  0.00    -0.310 OA
HETATM   24  H19 UNL     1      20.536   1.077  51.298  1.00  0.00     0.237 HD
ENDBRANCH  14  23
TORSDOF 8
ENDMDL
MODEL 8
REMARK VINA RESULT:      -6.6      2.753      6.456
REMARK  8 active torsions:
REMARK  status: ('A' for Active; 'I' for Inactive)
REMARK    1  A    between atoms: O1_1  and  C1_2 
REMARK    2  A    between atoms: C1_2  and  C2_3 
REMARK    3  A    between atoms: C2_3  and  O2_4 
REMARK    4  A    between atoms: O2_4  and  C3_5 
REMARK    5  A    between atoms: C3_5  and  C4_6 
REMARK    6  A    between atoms: C4_6  and  C5_7 
REMARK    7  A    between atoms: C5_7  and  C6_8 
REMARK    8  A    between atoms: N3_21  and  O4_22 
ROOT
HETATM    1  C6  UNL     1      22.993   1.653  52.343  1.00  0.00     0.124 C 
HETATM    2  C7  UNL     1      24.229   1.195  52.970  1.00  0.00    -0.004 A 
HETATM    3  C8  UNL     1      25.408   1.902  53.048  1.00  0.00     0.027 A 
HETATM    4  C9  UNL     1      26.557   1.426  53.653  1.00  0.00     0.011 A 
HETATM    5  C10 UNL     1      27.707   2.184  53.696  1.00  0.00     0.131 A 
HETATM    6  N1  UNL     1      28.783   1.646  54.305  1.00  0.00    -0.253 NA
HETATM    7  C11 UNL     1      28.772   0.403  54.867  1.00  0.00     0.233 A 
HETATM    8  N2  UNL     1      27.640  -0.338  54.821  1.00  0.00    -0.241 NA
HETATM    9  C12 UNL     1      26.563   0.165  54.228  1.00  0.00     0.072 A 
HETATM   10  C13 UNL     1      25.377  -0.574  54.163  1.00  0.00     0.070 A 
HETATM   11  C14 UNL     1      24.246  -0.073  53.553  1.00  0.00     0.080 A 
HETATM   12  O3  UNL     1      23.114  -0.900  53.547  1.00  0.00    -0.334 OA
HETATM   13  C15 UNL     1      21.891  -0.322  53.180  1.00  0.00     0.296 C 
HETATM   14  N3  UNL     1      21.874   1.091  53.049  1.00  0.00    -0.167 NA
ENDROOT
BRANCH   1  15
HETATM   15  C5  UNL     1      22.853   3.144  52.268  1.00  0.00     0.029 C 
BRANCH  15  16
HETATM   16  C4  UNL     1      23.096   3.654  50.842  1.00  0.00     0.028 C 
BRANCH  16  17
HETATM   17  C3  UNL     1      23.172   2.419  49.978  1.00  0.00     0.167 C 
BRANCH  17  18
HETATM   18  O2  UNL     1      22.448   2.466  48.818  1.00  0.00    -0.389 OA
BRANCH  18  19
HETATM   19  C2  UNL     1      21.544   1.438  48.741  1.00  0.00     0.193 C 
BRANCH  19  20
HETATM   20  C1  UNL     1      20.105   1.938  48.928  1.00  0.00     0.190 C 
BRANCH  20  21
HETATM   21  O1  UNL     1      19.597   2.361  47.684  1.00  0.00    -0.399 OA
HETATM   22  H1  UNL     1      19.065   1.605  47.323  1.00  0.00     0.209 HD
ENDBRANCH  20  21
ENDBRANCH  19  20
ENDBRANCH  18  19
ENDBRANCH  17  18
ENDBRANCH  16  17
ENDBRANCH  15  16
ENDBRANCH   1  15
BRANCH  14  23
HETATM   23  O4  UNL     1      20.731   1.425  52.379  1.00  0.00    -0.310 OA
HETATM   24  H19 UNL     1      20.050   1.832  52.985  1.00  0.00     0.237 HD
ENDBRANCH  14  23
TORSDOF 8
ENDMDL
MODEL 9
REMARK VINA RESULT:      -6.4      2.294      5.563
REMARK  8 active torsions:
REMARK  status: ('A' for Active; 'I' for Inactive)
REMARK    1  A    between atoms: O1_1  and  C1_2 
REMARK    2  A    between atoms: C1_2  and  C2_3 
REMARK    3  A    between atoms: C2_3  and  O2_4 
REMARK    4  A    between atoms: O2_4  and  C3_5 
REMARK    5  A    between atoms: C3_5  and  C4_6 
REMARK    6  A    between atoms: C4_6  and  C5_7 
REMARK    7  A    between atoms: C5_7  and  C6_8 
REMARK    8  A    between atoms: N3_21  and  O4_22 
ROOT
HETATM    1  C6  UNL     1      25.383   2.531  52.092  1.00  0.00     0.124 C 
HETATM    2  C7  UNL     1      24.539   1.502  52.695  1.00  0.00    -0.004 A 
HETATM    3  C8  UNL     1      23.183   1.356  52.508  1.00  0.00     0.027 A 
HETATM    4  C9  UNL     1      22.424   0.363  53.102  1.00  0.00     0.011 A 
HETATM    5  C10 UNL     1      21.068   0.271  52.875  1.00  0.00     0.131 A 
HETATM    6  N1  UNL     1      20.401  -0.725  53.492  1.00  0.00    -0.253 NA
HETATM    7  C11 UNL     1      21.011  -1.625  54.316  1.00  0.00     0.233 A 
HETATM    8  N2  UNL     1      22.343  -1.530  54.537  1.00  0.00    -0.241 NA
HETATM    9  C12 UNL     1      23.028  -0.558  53.942  1.00  0.00     0.072 A 
HETATM   10  C13 UNL     1      24.405  -0.431  54.148  1.00  0.00     0.070 A 
HETATM   11  C14 UNL     1      25.137   0.569  53.542  1.00  0.00     0.080 A 
HETATM   12  O3  UNL     1      26.511   0.600  53.820  1.00  0.00    -0.334 OA
HETATM   13  C15 UNL     1      27.314   1.424  53.020  1.00  0.00     0.296 C 
HETATM   14  N3  UNL     1      26.697   1.990  51.874  1.00  0.00    -0.167 NA
ENDROOT
BRANCH   1  15
HETATM   15  C5  UNL     1      24.846   3.100  50.813  1.00  0.00     0.029 C 
BRANCH  15  16
HETATM   16  C4  UNL     1      24.377   4.549  51.003  1.00  0.00     0.028 C 
BRANCH  16  17
HETATM   17  C3  UNL     1      25.247   5.377  50.088  1.00  0.00     0.167 C 
BRANCH  17  18
HETATM   18  O2  UNL     1      24.857   6.679  49.926  1.00  0.00    -0.389 OA
BRANCH  18  19
HETATM   19  C2  UNL     1      24.132   7.130  50.999  1.00  0.00     0.193 C 
BRANCH  19  20
HETATM   20  C1  UNL     1      22.820   7.789  50.554  1.00  0.00     0.190 C 
BRANCH  20  21
HETATM   21  O1  UNL     1      21.765   7.303  51.351  1.00  0.00    -0.399 OA
HETATM   22  H1  UNL     1      22.171   6.697  52.023  1.00  0.00     0.209 HD
ENDBRANCH  20  21
ENDBRANCH  19  20
ENDBRANCH  18  19
ENDBRANCH  17  18
ENDBRANCH  16  17
ENDBRANCH  15  16
ENDBRANCH   1  15
BRANCH  14  23
HETATM   23  O4  UNL     1      27.506   2.995  51.427  1.00  0.00    -0.310 OA
HETATM   24  H19 UNL     1      28.212   3.230  52.092  1.00  0.00     0.237 HD
ENDBRANCH  14  23
TORSDOF 8
ENDMDL
