MODEL 1
REMARK VINA RESULT:      -9.8      0.000      0.000
REMARK  3 active torsions:
REMARK  status: ('A' for Active; 'I' for Inactive)
REMARK    1  A    between atoms: C7_7  and  N1_8 
REMARK    2  A    between atoms: N1_8  and  C8_9 
REMARK    3  A    between atoms: C12_14  and  C13_15 
ROOT
HETATM    1  C8  UNL     1      20.680   0.723  51.924  1.00  0.00     0.380 C 
HETATM    2  N2  UNL     1      21.621   0.142  52.832  1.00  0.00    -0.218 NA
HETATM    3  C9  UNL     1      22.900   0.158  52.982  1.00  0.00     0.143 A 
HETATM    4  C10 UNL     1      23.772   0.867  52.146  1.00  0.00     0.028 A 
HETATM    5  C11 UNL     1      25.147   0.852  52.353  1.00  0.00     0.034 A 
HETATM    6  C12 UNL     1      25.582   0.091  53.435  1.00  0.00     0.045 A 
HETATM    7  C19 UNL     1      24.692  -0.593  54.236  1.00  0.00     0.260 A 
HETATM    8  O1  UNL     1      25.185  -1.245  55.180  1.00  0.00    -0.267 OA
HETATM    9  N3  UNL     1      23.368  -0.561  54.013  1.00  0.00    -0.302 N 
HETATM   10  C20 UNL     1      22.451  -1.275  54.850  1.00  0.00     0.161 C 
HETATM   11  C21 UNL     1      23.466   1.627  51.080  1.00  0.00     0.129 C 
HETATM   12  N4  UNL     1      22.138   1.870  50.570  1.00  0.00    -0.273 N 
HETATM   13  O2  UNL     1      21.138   0.965  50.654  1.00  0.00    -0.231 OA
HETATM   14  H19 UNL     1      22.025   2.829  50.124  1.00  0.00     0.193 HD
ENDROOT
BRANCH   1  15
HETATM   15  N1  UNL     1      19.550  -0.198  51.766  1.00  0.00    -0.344 N 
HETATM   16  H8  UNL     1      19.710  -1.205  51.555  1.00  0.00     0.164 HD
BRANCH  15  17
HETATM   17  C7  UNL     1      18.178   0.166  51.880  1.00  0.00     0.037 A 
HETATM   18  C2  UNL     1      17.216  -0.574  52.541  1.00  0.00    -0.035 A 
HETATM   19  C1  UNL     1      17.682  -1.842  53.173  1.00  0.00     0.050 C 
HETATM   20  C3  UNL     1      15.923  -0.164  52.610  1.00  0.00     0.009 A 
HETATM   21  C4  UNL     1      15.481   1.000  52.034  1.00  0.00     0.001 A 
HETATM   22  C5  UNL     1      16.418   1.742  51.377  1.00  0.00     0.002 A 
HETATM   23  C6  UNL     1      17.717   1.340  51.303  1.00  0.00     0.030 A 
ENDBRANCH  15  17
ENDBRANCH   1  15
BRANCH   6  24
HETATM   24  C13 UNL     1      27.036   0.086  53.640  1.00  0.00     0.001 A 
HETATM   25  C14 UNL     1      27.755   1.051  54.299  1.00  0.00     0.014 A 
HETATM   26  C15 UNL     1      29.115   0.855  54.380  1.00  0.00     0.001 A 
HETATM   27  C16 UNL     1      29.745  -0.243  53.837  1.00  0.00     0.002 A 
HETATM   28  C17 UNL     1      28.995  -1.215  53.170  1.00  0.00     0.024 A 
HETATM   29  C18 UNL     1      27.622  -1.020  53.087  1.00  0.00     0.045 A 
HETATM   30 CL1  UNL     1      26.786  -2.298  52.231  1.00  0.00    -0.083 Cl
ENDBRANCH   6  24
TORSDOF 3
ENDMDL
MODEL 2
REMARK VINA RESULT:      -9.7      1.585      2.412
REMARK  3 active torsions:
REMARK  status: ('A' for Active; 'I' for Inactive)
REMARK    1  A    between atoms: C7_7  and  N1_8 
REMARK    2  A    between atoms: N1_8  and  C8_9 
REMARK    3  A    between atoms: C12_14  and  C13_15 
ROOT
HETATM    1  C8  UNL     1      20.691  -0.335  53.092  1.00  0.00     0.380 C 
HETATM    2  N2  UNL     1      21.873   0.239  52.525  1.00  0.00    -0.218 NA
HETATM    3  C9  UNL     1      23.134   0.217  52.785  1.00  0.00     0.143 A 
HETATM    4  C10 UNL     1      23.695  -0.491  53.856  1.00  0.00     0.028 A 
HETATM    5  C11 UNL     1      25.064  -0.483  54.092  1.00  0.00     0.034 A 
HETATM    6  C12 UNL     1      25.822   0.271  53.200  1.00  0.00     0.045 A 
HETATM    7  C19 UNL     1      25.234   0.956  52.158  1.00  0.00     0.260 A 
HETATM    8  O1  UNL     1      26.003   1.601  51.415  1.00  0.00    -0.267 OA
HETATM    9  N3  UNL     1      23.907   0.929  51.952  1.00  0.00    -0.302 N 
HETATM   10  C20 UNL     1      23.303   1.644  50.866  1.00  0.00     0.161 C 
HETATM   11  C21 UNL     1      23.064  -1.246  54.773  1.00  0.00     0.129 C 
HETATM   12  N4  UNL     1      21.642  -1.481  54.840  1.00  0.00    -0.273 N 
HETATM   13  O2  UNL     1      20.724  -0.572  54.442  1.00  0.00    -0.231 OA
HETATM   14  H19 UNL     1      21.389  -2.438  55.230  1.00  0.00     0.193 HD
ENDROOT
BRANCH   1  15
HETATM   15  N1  UNL     1      19.573   0.592  52.882  1.00  0.00    -0.344 N 
HETATM   16  H8  UNL     1      19.454   1.428  53.491  1.00  0.00     0.164 HD
BRANCH  15  17
HETATM   17  C7  UNL     1      18.578   0.456  51.873  1.00  0.00     0.037 A 
HETATM   18  C2  UNL     1      17.510  -0.418  51.930  1.00  0.00    -0.035 A 
HETATM   19  C1  UNL     1      17.420  -1.267  53.153  1.00  0.00     0.050 C 
HETATM   20  C3  UNL     1      16.596  -0.495  50.928  1.00  0.00     0.009 A 
HETATM   21  C4  UNL     1      16.666   0.278  49.798  1.00  0.00     0.001 A 
HETATM   22  C5  UNL     1      17.715   1.147  49.726  1.00  0.00     0.002 A 
HETATM   23  C6  UNL     1      18.637   1.232  50.725  1.00  0.00     0.030 A 
ENDBRANCH  15  17
ENDBRANCH   1  15
BRANCH   6  24
HETATM   24  C13 UNL     1      27.267   0.269  53.464  1.00  0.00     0.001 A 
HETATM   25  C14 UNL     1      27.980   1.301  54.021  1.00  0.00     0.014 A 
HETATM   26  C15 UNL     1      29.331   1.095  54.184  1.00  0.00     0.001 A 
HETATM   27  C16 UNL     1      29.958  -0.075  53.817  1.00  0.00     0.002 A 
HETATM   28  C17 UNL     1      29.214  -1.114  53.252  1.00  0.00     0.024 A 
HETATM   29  C18 UNL     1      27.850  -0.909  53.087  1.00  0.00     0.045 A 
HETATM   30 CL1  UNL     1      27.022  -2.276  52.372  1.00  0.00    -0.083 Cl
ENDBRANCH   6  24
TORSDOF 3
ENDMDL
MODEL 3
REMARK VINA RESULT:      -9.7      2.063      3.201
REMARK  3 active torsions:
REMARK  status: ('A' for Active; 'I' for Inactive)
REMARK    1  A    between atoms: C7_7  and  N1_8 
REMARK    2  A    between atoms: N1_8  and  C8_9 
REMARK    3  A    between atoms: C12_14  and  C13_15 
ROOT
HETATM    1  C8  UNL     1      20.687   0.248  52.976  1.00  0.00     0.380 C 
HETATM    2  N2  UNL     1      21.942   0.677  52.440  1.00  0.00    -0.218 NA
HETATM    3  C9  UNL     1      23.185   0.492  52.719  1.00  0.00     0.143 A 
HETATM    4  C10 UNL     1      23.633  -0.301  53.783  1.00  0.00     0.028 A 
HETATM    5  C11 UNL     1      24.988  -0.470  54.041  1.00  0.00     0.034 A 
HETATM    6  C12 UNL     1      25.851   0.197  53.176  1.00  0.00     0.045 A 
HETATM    7  C19 UNL     1      25.372   0.970  52.138  1.00  0.00     0.260 A 
HETATM    8  O1  UNL     1      26.229   1.526  51.420  1.00  0.00    -0.267 OA
HETATM    9  N3  UNL     1      24.056   1.115  51.912  1.00  0.00    -0.302 N 
HETATM   10  C20 UNL     1      23.567   1.919  50.831  1.00  0.00     0.161 C 
HETATM   11  C21 UNL     1      22.896  -0.986  54.676  1.00  0.00     0.129 C 
HETATM   12  N4  UNL     1      21.454  -1.041  54.716  1.00  0.00    -0.273 N 
HETATM   13  O2  UNL     1      20.666  -0.016  54.322  1.00  0.00    -0.231 OA
HETATM   14  H19 UNL     1      21.075  -1.965  55.083  1.00  0.00     0.193 HD
ENDROOT
BRANCH   1  15
HETATM   15  N1  UNL     1      19.699   1.312  52.768  1.00  0.00    -0.344 N 
HETATM   16  H8  UNL     1      18.865   1.392  53.387  1.00  0.00     0.164 HD
BRANCH  15  17
HETATM   17  C7  UNL     1      19.770   2.303  51.748  1.00  0.00     0.037 A 
HETATM   18  C2  UNL     1      19.283   2.151  50.464  1.00  0.00    -0.035 A 
HETATM   19  C1  UNL     1      18.642   0.840  50.155  1.00  0.00     0.050 C 
HETATM   20  C3  UNL     1      19.385   3.141  49.540  1.00  0.00     0.009 A 
HETATM   21  C4  UNL     1      19.972   4.351  49.809  1.00  0.00     0.001 A 
HETATM   22  C5  UNL     1      20.457   4.518  51.073  1.00  0.00     0.002 A 
HETATM   23  C6  UNL     1      20.360   3.531  52.007  1.00  0.00     0.030 A 
ENDBRANCH  15  17
ENDBRANCH   1  15
BRANCH   6  24
HETATM   24  C13 UNL     1      27.279   0.008  53.462  1.00  0.00     0.001 A 
HETATM   25  C14 UNL     1      28.088   0.898  54.123  1.00  0.00     0.014 A 
HETATM   26  C15 UNL     1      29.402   0.526  54.288  1.00  0.00     0.001 A 
HETATM   27  C16 UNL     1      29.904  -0.669  53.825  1.00  0.00     0.002 A 
HETATM   28  C17 UNL     1      29.064  -1.562  53.155  1.00  0.00     0.024 A 
HETATM   29  C18 UNL     1      27.737  -1.190  52.987  1.00  0.00     0.045 A 
HETATM   30 CL1  UNL     1      26.780  -2.384  52.136  1.00  0.00    -0.083 Cl
ENDBRANCH   6  24
TORSDOF 3
ENDMDL
MODEL 4
REMARK VINA RESULT:      -9.6      4.538      8.385
REMARK  3 active torsions:
REMARK  status: ('A' for Active; 'I' for Inactive)
REMARK    1  A    between atoms: C7_7  and  N1_8 
REMARK    2  A    between atoms: N1_8  and  C8_9 
REMARK    3  A    between atoms: C12_14  and  C13_15 
ROOT
HETATM    1  C8  UNL     1      24.017   6.484  49.747  1.00  0.00     0.380 C 
HETATM    2  N2  UNL     1      23.527   5.143  49.653  1.00  0.00    -0.218 NA
HETATM    3  C9  UNL     1      23.249   4.194  50.477  1.00  0.00     0.143 A 
HETATM    4  C10 UNL     1      23.395   4.303  51.866  1.00  0.00     0.028 A 
HETATM    5  C11 UNL     1      23.079   3.248  52.714  1.00  0.00     0.034 A 
HETATM    6  C12 UNL     1      22.614   2.094  52.087  1.00  0.00     0.045 A 
HETATM    7  C19 UNL     1      22.484   2.025  50.716  1.00  0.00     0.260 A 
HETATM    8  O1  UNL     1      22.058   0.945  50.254  1.00  0.00    -0.267 OA
HETATM    9  N3  UNL     1      22.796   3.061  49.920  1.00  0.00    -0.302 N 
HETATM   10  C20 UNL     1      22.657   2.980  48.497  1.00  0.00     0.161 C 
HETATM   11  C21 UNL     1      23.832   5.360  52.575  1.00  0.00     0.129 C 
HETATM   12  N4  UNL     1      24.250   6.628  52.028  1.00  0.00    -0.273 N 
HETATM   13  O2  UNL     1      24.835   6.752  50.815  1.00  0.00    -0.231 OA
HETATM   14  H19 UNL     1      24.052   7.452  52.671  1.00  0.00     0.193 HD
ENDROOT
BRANCH   1  15
HETATM   15  N1  UNL     1      24.820   6.776  48.554  1.00  0.00    -0.344 N 
HETATM   16  H8  UNL     1      24.390   7.232  47.723  1.00  0.00     0.164 HD
BRANCH  15  17
HETATM   17  C7  UNL     1      26.205   6.480  48.411  1.00  0.00     0.037 A 
HETATM   18  C2  UNL     1      27.158   7.368  47.948  1.00  0.00    -0.035 A 
HETATM   19  C1  UNL     1      26.666   8.728  47.582  1.00  0.00     0.050 C 
HETATM   20  C3  UNL     1      28.466   7.018  47.837  1.00  0.00     0.009 A 
HETATM   21  C4  UNL     1      28.932   5.772  48.170  1.00  0.00     0.001 A 
HETATM   22  C5  UNL     1      28.003   4.883  48.629  1.00  0.00     0.002 A 
HETATM   23  C6  UNL     1      26.690   5.225  48.744  1.00  0.00     0.030 A 
ENDBRANCH  15  17
ENDBRANCH   1  15
BRANCH   6  24
HETATM   24  C13 UNL     1      22.285   0.989  52.996  1.00  0.00     0.001 A 
HETATM   25  C14 UNL     1      21.047   0.735  53.532  1.00  0.00     0.014 A 
HETATM   26  C15 UNL     1      20.952  -0.357  54.365  1.00  0.00     0.001 A 
HETATM   27  C16 UNL     1      22.026  -1.166  54.660  1.00  0.00     0.002 A 
HETATM   28  C17 UNL     1      23.278  -0.891  54.104  1.00  0.00     0.024 A 
HETATM   29  C18 UNL     1      23.377   0.209  53.263  1.00  0.00     0.045 A 
HETATM   30 CL1  UNL     1      24.988   0.457  52.626  1.00  0.00    -0.083 Cl
ENDBRANCH   6  24
TORSDOF 3
ENDMDL
MODEL 5
REMARK VINA RESULT:      -9.5      2.532      3.535
REMARK  3 active torsions:
REMARK  status: ('A' for Active; 'I' for Inactive)
REMARK    1  A    between atoms: C7_7  and  N1_8 
REMARK    2  A    between atoms: N1_8  and  C8_9 
REMARK    3  A    between atoms: C12_14  and  C13_15 
ROOT
HETATM    1  C8  UNL     1      23.124   4.091  50.204  1.00  0.00     0.380 C 
HETATM    2  N2  UNL     1      23.386   3.061  51.162  1.00  0.00    -0.218 NA
HETATM    3  C9  UNL     1      24.407   2.365  51.523  1.00  0.00     0.143 A 
HETATM    4  C10 UNL     1      25.680   2.500  50.955  1.00  0.00     0.028 A 
HETATM    5  C11 UNL     1      26.751   1.724  51.383  1.00  0.00     0.034 A 
HETATM    6  C12 UNL     1      26.466   0.818  52.401  1.00  0.00     0.045 A 
HETATM    7  C19 UNL     1      25.199   0.713  52.935  1.00  0.00     0.260 A 
HETATM    8  O1  UNL     1      25.049  -0.130  53.844  1.00  0.00    -0.267 OA
HETATM    9  N3  UNL     1      24.182   1.477  52.503  1.00  0.00    -0.302 N 
HETATM   10  C20 UNL     1      22.869   1.362  53.064  1.00  0.00     0.161 C 
HETATM   11  C21 UNL     1      26.068   3.335  49.974  1.00  0.00     0.129 C 
HETATM   12  N4  UNL     1      25.222   4.285  49.291  1.00  0.00    -0.273 N 
HETATM   13  O2  UNL     1      23.904   4.078  49.077  1.00  0.00    -0.231 OA
HETATM   14  H19 UNL     1      25.738   5.160  48.976  1.00  0.00     0.193 HD
ENDROOT
BRANCH   1  15
HETATM   15  N1  UNL     1      21.743   3.951  49.730  1.00  0.00    -0.344 N 
HETATM   16  H8  UNL     1      21.374   4.568  48.977  1.00  0.00     0.164 HD
BRANCH  15  17
HETATM   17  C7  UNL     1      20.803   3.001  50.222  1.00  0.00     0.037 A 
HETATM   18  C2  UNL     1      20.620   1.731  49.708  1.00  0.00    -0.035 A 
HETATM   19  C1  UNL     1      21.486   1.359  48.553  1.00  0.00     0.050 C 
HETATM   20  C3  UNL     1      19.703   0.875  50.230  1.00  0.00     0.009 A 
HETATM   21  C4  UNL     1      18.900   1.204  51.292  1.00  0.00     0.001 A 
HETATM   22  C5  UNL     1      19.069   2.454  51.812  1.00  0.00     0.002 A 
HETATM   23  C6  UNL     1      19.985   3.320  51.295  1.00  0.00     0.030 A 
ENDBRANCH  15  17
ENDBRANCH   1  15
BRANCH   6  24
HETATM   24  C13 UNL     1      27.608   0.006  52.841  1.00  0.00     0.001 A 
HETATM   25  C14 UNL     1      27.726  -1.353  52.698  1.00  0.00     0.014 A 
HETATM   26  C15 UNL     1      28.882  -1.922  53.180  1.00  0.00     0.001 A 
HETATM   27  C16 UNL     1      29.882  -1.189  53.779  1.00  0.00     0.002 A 
HETATM   28  C17 UNL     1      29.743   0.194  53.915  1.00  0.00     0.024 A 
HETATM   29  C18 UNL     1      28.578   0.772  53.428  1.00  0.00     0.045 A 
HETATM   30 CL1  UNL     1      28.513   2.507  53.653  1.00  0.00    -0.083 Cl
ENDBRANCH   6  24
TORSDOF 3
ENDMDL
MODEL 6
REMARK VINA RESULT:      -9.3      3.444      8.245
REMARK  3 active torsions:
REMARK  status: ('A' for Active; 'I' for Inactive)
REMARK    1  A    between atoms: C7_7  and  N1_8 
REMARK    2  A    between atoms: N1_8  and  C8_9 
REMARK    3  A    between atoms: C12_14  and  C13_15 
ROOT
HETATM    1  C8  UNL     1      24.281  -0.080  53.934  1.00  0.00     0.380 C 
HETATM    2  N2  UNL     1      24.712   0.810  52.900  1.00  0.00    -0.218 NA
HETATM    3  C9  UNL     1      24.173   1.381  51.880  1.00  0.00     0.143 A 
HETATM    4  C10 UNL     1      22.830   1.217  51.517  1.00  0.00     0.028 A 
HETATM    5  C11 UNL     1      22.296   1.858  50.405  1.00  0.00     0.034 A 
HETATM    6  C12 UNL     1      23.183   2.661  49.693  1.00  0.00     0.045 A 
HETATM    7  C19 UNL     1      24.499   2.798  50.081  1.00  0.00     0.260 A 
HETATM    8  O1  UNL     1      25.211   3.541  49.374  1.00  0.00    -0.267 OA
HETATM    9  N3  UNL     1      24.989   2.167  51.161  1.00  0.00    -0.302 N 
HETATM   10  C20 UNL     1      26.358   2.314  51.558  1.00  0.00     0.161 C 
HETATM   11  C21 UNL     1      21.890   0.472  52.126  1.00  0.00     0.129 C 
HETATM   12  N4  UNL     1      22.086  -0.331  53.309  1.00  0.00    -0.273 N 
HETATM   13  O2  UNL     1      23.258  -0.933  53.607  1.00  0.00    -0.231 OA
HETATM   14  H19 UNL     1      21.218  -0.401  53.921  1.00  0.00     0.193 HD
ENDROOT
BRANCH   1  15
HETATM   15  N1  UNL     1      25.407  -0.941  54.311  1.00  0.00    -0.344 N 
HETATM   16  H8  UNL     1      25.242  -1.863  54.767  1.00  0.00     0.164 HD
BRANCH  15  17
HETATM   17  C7  UNL     1      26.780  -0.627  54.105  1.00  0.00     0.037 A 
HETATM   18  C2  UNL     1      27.588  -1.208  53.146  1.00  0.00    -0.035 A 
HETATM   19  C1  UNL     1      26.944  -2.237  52.279  1.00  0.00     0.050 C 
HETATM   20  C3  UNL     1      28.893  -0.858  53.005  1.00  0.00     0.009 A 
HETATM   21  C4  UNL     1      29.499   0.086  53.795  1.00  0.00     0.001 A 
HETATM   22  C5  UNL     1      28.714   0.670  54.746  1.00  0.00     0.002 A 
HETATM   23  C6  UNL     1      27.405   0.325  54.896  1.00  0.00     0.030 A 
ENDBRANCH  15  17
ENDBRANCH   1  15
BRANCH   6  24
HETATM   24  C13 UNL     1      22.603   3.331  48.521  1.00  0.00     0.001 A 
HETATM   25  C14 UNL     1      22.458   2.779  47.274  1.00  0.00     0.014 A 
HETATM   26  C15 UNL     1      21.887   3.579  46.311  1.00  0.00     0.001 A 
HETATM   27  C16 UNL     1      21.476   4.870  46.561  1.00  0.00     0.002 A 
HETATM   28  C17 UNL     1      21.632   5.414  47.838  1.00  0.00     0.024 A 
HETATM   29  C18 UNL     1      22.207   4.608  48.812  1.00  0.00     0.045 A 
HETATM   30 CL1  UNL     1      22.353   5.393  50.369  1.00  0.00    -0.083 Cl
ENDBRANCH   6  24
TORSDOF 3
ENDMDL
MODEL 7
REMARK VINA RESULT:      -9.0      4.791      8.509
REMARK  3 active torsions:
REMARK  status: ('A' for Active; 'I' for Inactive)
REMARK    1  A    between atoms: C7_7  and  N1_8 
REMARK    2  A    between atoms: N1_8  and  C8_9 
REMARK    3  A    between atoms: C12_14  and  C13_15 
ROOT
HETATM    1  C8  UNL     1      24.210   6.254  49.441  1.00  0.00     0.380 C 
HETATM    2  N2  UNL     1      23.673   4.929  49.417  1.00  0.00    -0.218 NA
HETATM    3  C9  UNL     1      23.334   4.046  50.291  1.00  0.00     0.143 A 
HETATM    4  C10 UNL     1      23.442   4.241  51.674  1.00  0.00     0.028 A 
HETATM    5  C11 UNL     1      23.061   3.255  52.577  1.00  0.00     0.034 A 
HETATM    6  C12 UNL     1      22.573   2.080  52.011  1.00  0.00     0.045 A 
HETATM    7  C19 UNL     1      22.482   1.925  50.644  1.00  0.00     0.260 A 
HETATM    8  O1  UNL     1      22.030   0.834  50.239  1.00  0.00    -0.267 OA
HETATM    9  N3  UNL     1      22.857   2.896  49.794  1.00  0.00    -0.302 N 
HETATM   10  C20 UNL     1      22.758   2.726  48.375  1.00  0.00     0.161 C 
HETATM   11  C21 UNL     1      23.897   5.325  52.327  1.00  0.00     0.129 C 
HETATM   12  N4  UNL     1      24.378   6.540  51.714  1.00  0.00    -0.273 N 
HETATM   13  O2  UNL     1      25.004   6.563  50.516  1.00  0.00    -0.231 OA
HETATM   14  H19 UNL     1      24.192   7.411  52.296  1.00  0.00     0.193 HD
ENDROOT
BRANCH   1  15
HETATM   15  N1  UNL     1      25.058   6.439  48.259  1.00  0.00    -0.344 N 
HETATM   16  H8  UNL     1      24.767   6.066  47.331  1.00  0.00     0.164 HD
BRANCH  15  17
HETATM   17  C7  UNL     1      26.311   7.115  48.251  1.00  0.00     0.037 A 
HETATM   18  C2  UNL     1      27.541   6.502  48.400  1.00  0.00    -0.035 A 
HETATM   19  C1  UNL     1      27.520   5.022  48.579  1.00  0.00     0.050 C 
HETATM   20  C3  UNL     1      28.699   7.212  48.382  1.00  0.00     0.009 A 
HETATM   21  C4  UNL     1      28.734   8.573  48.219  1.00  0.00     0.001 A 
HETATM   22  C5  UNL     1      27.528   9.194  48.070  1.00  0.00     0.002 A 
HETATM   23  C6  UNL     1      26.361   8.491  48.087  1.00  0.00     0.030 A 
ENDBRANCH  15  17
ENDBRANCH   1  15
BRANCH   6  24
HETATM   24  C13 UNL     1      22.175   1.049  52.979  1.00  0.00     0.001 A 
HETATM   25  C14 UNL     1      20.916   0.883  53.499  1.00  0.00     0.014 A 
HETATM   26  C15 UNL     1      20.754  -0.149  54.395  1.00  0.00     0.001 A 
HETATM   27  C16 UNL     1      21.784  -0.985  54.765  1.00  0.00     0.002 A 
HETATM   28  C17 UNL     1      23.059  -0.800  54.224  1.00  0.00     0.024 A 
HETATM   29  C18 UNL     1      23.225   0.241  53.319  1.00  0.00     0.045 A 
HETATM   30 CL1  UNL     1      24.859   0.378  52.707  1.00  0.00    -0.083 Cl
ENDBRANCH   6  24
TORSDOF 3
ENDMDL
MODEL 8
REMARK VINA RESULT:      -8.7      2.583      9.077
REMARK  3 active torsions:
REMARK  status: ('A' for Active; 'I' for Inactive)
REMARK    1  A    between atoms: C7_7  and  N1_8 
REMARK    2  A    between atoms: N1_8  and  C8_9 
REMARK    3  A    between atoms: C12_14  and  C13_15 
ROOT
HETATM    1  C8  UNL     1      24.235   0.699  52.653  1.00  0.00     0.380 C 
HETATM    2  N2  UNL     1      23.320   1.106  51.631  1.00  0.00    -0.218 NA
HETATM    3  C9  UNL     1      22.054   1.001  51.421  1.00  0.00     0.143 A 
HETATM    4  C10 UNL     1      21.171   0.361  52.299  1.00  0.00     0.028 A 
HETATM    5  C11 UNL     1      19.810   0.277  52.025  1.00  0.00     0.034 A 
HETATM    6  C12 UNL     1      19.401   0.868  50.832  1.00  0.00     0.045 A 
HETATM    7  C19 UNL     1      20.301   1.489  49.993  1.00  0.00     0.260 A 
HETATM    8  O1  UNL     1      19.832   1.988  48.948  1.00  0.00    -0.267 OA
HETATM    9  N3  UNL     1      21.611   1.556  50.283  1.00  0.00    -0.302 N 
HETATM   10  C20 UNL     1      22.540   2.205  49.405  1.00  0.00     0.161 C 
HETATM   11  C21 UNL     1      21.452  -0.240  53.469  1.00  0.00     0.129 C 
HETATM   12  N4  UNL     1      22.760  -0.348  54.068  1.00  0.00    -0.273 N 
HETATM   13  O2  UNL     1      23.899  -0.436  53.345  1.00  0.00    -0.231 OA
HETATM   14  H19 UNL     1      22.740  -0.350  55.132  1.00  0.00     0.193 HD
ENDROOT
BRANCH   1  15
HETATM   15  N1  UNL     1      25.534   0.412  52.033  1.00  0.00    -0.344 N 
HETATM   16  H8  UNL     1      25.590   0.059  51.056  1.00  0.00     0.164 HD
BRANCH  15  17
HETATM   17  C7  UNL     1      26.796   0.577  52.671  1.00  0.00     0.037 A 
HETATM   18  C2  UNL     1      27.640  -0.456  53.033  1.00  0.00    -0.035 A 
HETATM   19  C1  UNL     1      27.164  -1.834  52.718  1.00  0.00     0.050 C 
HETATM   20  C3  UNL     1      28.833  -0.224  53.639  1.00  0.00     0.009 A 
HETATM   21  C4  UNL     1      29.283   1.037  53.935  1.00  0.00     0.001 A 
HETATM   22  C5  UNL     1      28.462   2.069  53.584  1.00  0.00     0.002 A 
HETATM   23  C6  UNL     1      27.264   1.846  52.976  1.00  0.00     0.030 A 
ENDBRANCH  15  17
ENDBRANCH   1  15
BRANCH   6  24
HETATM   24  C13 UNL     1      17.962   0.770  50.559  1.00  0.00     0.001 A 
HETATM   25  C14 UNL     1      17.327  -0.300  49.980  1.00  0.00     0.014 A 
HETATM   26  C15 UNL     1      15.966  -0.189  49.813  1.00  0.00     0.001 A 
HETATM   27  C16 UNL     1      15.255   0.925  50.196  1.00  0.00     0.002 A 
HETATM   28  C17 UNL     1      15.919   2.005  50.784  1.00  0.00     0.024 A 
HETATM   29  C18 UNL     1      17.293   1.896  50.955  1.00  0.00     0.045 A 
HETATM   30 CL1  UNL     1      18.017   3.305  51.700  1.00  0.00    -0.083 Cl
ENDBRANCH   6  24
TORSDOF 3
ENDMDL
MODEL 9
REMARK VINA RESULT:      -8.7      2.585      8.783
REMARK  3 active torsions:
REMARK  status: ('A' for Active; 'I' for Inactive)
REMARK    1  A    between atoms: C7_7  and  N1_8 
REMARK    2  A    between atoms: N1_8  and  C8_9 
REMARK    3  A    between atoms: C12_14  and  C13_15 
ROOT
HETATM    1  C8  UNL     1      25.319   1.116  51.935  1.00  0.00     0.380 C 
HETATM    2  N2  UNL     1      24.082   0.572  52.404  1.00  0.00    -0.218 NA
HETATM    3  C9  UNL     1      22.837   0.691  52.095  1.00  0.00     0.143 A 
HETATM    4  C10 UNL     1      22.367   1.515  51.065  1.00  0.00     0.028 A 
HETATM    5  C11 UNL     1      21.012   1.607  50.771  1.00  0.00     0.034 A 
HETATM    6  C12 UNL     1      20.172   0.830  51.565  1.00  0.00     0.045 A 
HETATM    7  C19 UNL     1      20.672   0.030  52.571  1.00  0.00     0.260 A 
HETATM    8  O1  UNL     1      19.835  -0.627  53.225  1.00  0.00    -0.267 OA
HETATM    9  N3  UNL     1      21.988  -0.040  52.833  1.00  0.00    -0.302 N 
HETATM   10  C20 UNL     1      22.499  -0.874  53.880  1.00  0.00     0.161 C 
HETATM   11  C21 UNL     1      23.081   2.304  50.241  1.00  0.00     0.129 C 
HETATM   12  N4  UNL     1      24.515   2.461  50.257  1.00  0.00    -0.273 N 
HETATM   13  O2  UNL     1      25.255   2.370  51.384  1.00  0.00    -0.231 OA
HETATM   14  H19 UNL     1      24.930   2.655  49.296  1.00  0.00     0.193 HD
ENDROOT
BRANCH   1  15
HETATM   15  N1  UNL     1      26.241   1.231  53.070  1.00  0.00    -0.344 N 
HETATM   16  H8  UNL     1      26.049   1.898  53.846  1.00  0.00     0.164 HD
BRANCH  15  17
HETATM   17  C7  UNL     1      27.441   0.480  53.227  1.00  0.00     0.037 A 
HETATM   18  C2  UNL     1      28.677   1.020  53.527  1.00  0.00    -0.035 A 
HETATM   19  C1  UNL     1      28.725   2.501  53.692  1.00  0.00     0.050 C 
HETATM   20  C3  UNL     1      29.782   0.241  53.663  1.00  0.00     0.009 A 
HETATM   21  C4  UNL     1      29.753  -1.122  53.512  1.00  0.00     0.001 A 
HETATM   22  C5  UNL     1      28.539  -1.671  53.217  1.00  0.00     0.002 A 
HETATM   23  C6  UNL     1      27.426  -0.898  53.079  1.00  0.00     0.030 A 
ENDBRANCH  15  17
ENDBRANCH   1  15
BRANCH   6  24
HETATM   24  C13 UNL     1      18.744   0.938  51.242  1.00  0.00     0.001 A 
HETATM   25  C14 UNL     1      17.948  -0.079  50.779  1.00  0.00     0.014 A 
HETATM   26  C15 UNL     1      16.630   0.234  50.537  1.00  0.00     0.001 A 
HETATM   27  C16 UNL     1      16.113   1.494  50.740  1.00  0.00     0.002 A 
HETATM   28  C17 UNL     1      16.939   2.517  51.212  1.00  0.00     0.024 A 
HETATM   29  C18 UNL     1      18.269   2.203  51.458  1.00  0.00     0.045 A 
HETATM   30 CL1  UNL     1      19.208   3.559  52.045  1.00  0.00    -0.083 Cl
ENDBRANCH   6  24
TORSDOF 3
ENDMDL
