MODEL 1
REMARK VINA RESULT:      -7.5      0.000      0.000
REMARK  7 active torsions:
REMARK  status: ('A' for Active; 'I' for Inactive)
REMARK    1  A    between atoms: N1_2  and  C3_4 
REMARK    2  A    between atoms: C3_4  and  C4_5 
REMARK    3  A    between atoms: C5_6  and  C6_7 
REMARK       I    between atoms: C6_7  and  N2_9 
REMARK    4  A    between atoms: N2_9  and  C7_10 
REMARK    5  A    between atoms: C7_10  and  C8_11 
REMARK    6  A    between atoms: C10_13  and  N3_14 
REMARK    7  A    between atoms: C16_22  and  C17_23 
ROOT
HETATM    1  C8  UNL     1      24.472   1.837  52.468  1.00  0.00    -0.030 A 
HETATM    2  C9  UNL     1      25.741   1.331  52.637  1.00  0.00     0.039 A 
HETATM    3  C10 UNL     1      26.082   0.100  53.141  1.00  0.00     0.041 A 
HETATM    4  C14 UNL     1      25.009  -0.689  53.507  1.00  0.00     0.031 A 
HETATM    5  C15 UNL     1      23.701  -0.263  53.373  1.00  0.00     0.012 A 
HETATM    6  C16 UNL     1      23.431   0.999  52.854  1.00  0.00    -0.022 A 
ENDROOT
BRANCH   1   7
HETATM    7  C7  UNL     1      24.194   3.184  51.897  1.00  0.00     0.162 C 
BRANCH   7   8
HETATM    8  N2  UNL     1      25.318   3.701  51.158  1.00  0.00    -0.353 N 
HETATM    9  C6  UNL     1      25.529   3.737  49.772  1.00  0.00     0.241 C 
HETATM   10  O1  UNL     1      24.567   3.222  49.119  1.00  0.00    -0.269 OA
HETATM   11  H11 UNL     1      26.092   4.110  51.738  1.00  0.00     0.163 HD
BRANCH   9  12
HETATM   12  C5  UNL     1      26.718   4.303  49.189  1.00  0.00     0.072 C 
HETATM   13  C4  UNL     1      26.897   5.548  48.802  1.00  0.00     0.008 C 
BRANCH  13  14
HETATM   14  C3  UNL     1      25.961   6.687  48.848  1.00  0.00     0.299 C 
BRANCH  14  15
HETATM   15  N1  UNL     1      25.970   7.321  50.181  1.00  0.00     0.083 N 
HETATM   16  C1  UNL     1      26.361   8.708  49.971  1.00  0.00     0.309 C 
HETATM   17  C2  UNL     1      24.578   7.297  50.648  1.00  0.00     0.309 C 
ENDBRANCH  14  15
ENDBRANCH  13  14
ENDBRANCH   9  12
ENDBRANCH   7   8
ENDBRANCH   1   7
BRANCH   6  18
HETATM   18  C17 UNL     1      22.018   1.445  52.719  1.00  0.00     0.261 C 
HETATM   19  F1  UNL     1      21.278   0.603  51.916  1.00  0.00    -0.251 F 
ENDBRANCH   6  18
BRANCH   3  20
HETATM   20  N3  UNL     1      27.410  -0.369  53.286  1.00  0.00    -0.299 N 
HETATM   21  C11 UNL     1      27.720  -1.693  53.159  1.00  0.00     0.215 A 
HETATM   22  N4  UNL     1      29.012  -1.929  53.325  1.00  0.00    -0.253 NA
HETATM   23  C12 UNL     1      29.613  -0.771  53.571  1.00  0.00     0.155 A 
HETATM   24  C13 UNL     1      28.607   0.192  53.543  1.00  0.00     0.105 A 
HETATM   25 BR1  UNL     1      28.785   2.055  53.820  1.00  0.00    -0.029 Br
ENDBRANCH   3  20
TORSDOF 7
ENDMDL
MODEL 2
REMARK VINA RESULT:      -7.4      3.785      7.290
REMARK  7 active torsions:
REMARK  status: ('A' for Active; 'I' for Inactive)
REMARK    1  A    between atoms: N1_2  and  C3_4 
REMARK    2  A    between atoms: C3_4  and  C4_5 
REMARK    3  A    between atoms: C5_6  and  C6_7 
REMARK       I    between atoms: C6_7  and  N2_9 
REMARK    4  A    between atoms: N2_9  and  C7_10 
REMARK    5  A    between atoms: C7_10  and  C8_11 
REMARK    6  A    between atoms: C10_13  and  N3_14 
REMARK    7  A    between atoms: C16_22  and  C17_23 
ROOT
HETATM    1  C8  UNL     1      25.001   0.514  52.891  1.00  0.00    -0.030 A 
HETATM    2  C9  UNL     1      24.228   1.583  52.498  1.00  0.00     0.039 A 
HETATM    3  C10 UNL     1      24.591   2.597  51.646  1.00  0.00     0.041 A 
HETATM    4  C14 UNL     1      25.876   2.500  51.148  1.00  0.00     0.031 A 
HETATM    5  C15 UNL     1      26.721   1.461  51.488  1.00  0.00     0.012 A 
HETATM    6  C16 UNL     1      26.285   0.467  52.359  1.00  0.00    -0.022 A 
ENDROOT
BRANCH   1   7
HETATM    7  C7  UNL     1      24.519  -0.553  53.813  1.00  0.00     0.162 C 
BRANCH   7   8
HETATM    8  N2  UNL     1      23.117  -0.835  53.627  1.00  0.00    -0.353 N 
HETATM    9  C6  UNL     1      22.185  -1.343  54.543  1.00  0.00     0.241 C 
HETATM   10  O1  UNL     1      22.699  -1.581  55.681  1.00  0.00    -0.269 OA
HETATM   11  H11 UNL     1      22.737  -0.629  52.671  1.00  0.00     0.163 HD
BRANCH   9  12
HETATM   12  C5  UNL     1      20.803  -1.558  54.195  1.00  0.00     0.072 C 
HETATM   13  C4  UNL     1      19.984  -0.699  53.628  1.00  0.00     0.008 C 
BRANCH  13  14
HETATM   14  C3  UNL     1      20.234   0.691  53.201  1.00  0.00     0.299 C 
BRANCH  14  15
HETATM   15  N1  UNL     1      19.839   0.886  51.792  1.00  0.00     0.083 N 
HETATM   16  C1  UNL     1      20.966   0.436  50.986  1.00  0.00     0.309 C 
HETATM   17  C2  UNL     1      18.711  -0.026  51.561  1.00  0.00     0.309 C 
ENDBRANCH  14  15
ENDBRANCH  13  14
ENDBRANCH   9  12
ENDBRANCH   7   8
ENDBRANCH   1   7
BRANCH   6  18
HETATM   18  C17 UNL     1      27.208  -0.644  52.718  1.00  0.00     0.261 C 
HETATM   19  F1  UNL     1      26.911  -1.809  52.045  1.00  0.00    -0.251 F 
ENDBRANCH   6  18
BRANCH   3  20
HETATM   20  N3  UNL     1      23.748   3.673  51.273  1.00  0.00    -0.299 N 
HETATM   21  C11 UNL     1      23.528   4.733  52.105  1.00  0.00     0.215 A 
HETATM   22  N4  UNL     1      22.716   5.634  51.574  1.00  0.00    -0.253 NA
HETATM   23  C12 UNL     1      22.363   5.208  50.367  1.00  0.00     0.155 A 
HETATM   24  C13 UNL     1      23.012   3.987  50.190  1.00  0.00     0.105 A 
HETATM   25 BR1  UNL     1      22.935   2.848  48.682  1.00  0.00    -0.029 Br
ENDBRANCH   3  20
TORSDOF 7
ENDMDL
MODEL 3
REMARK VINA RESULT:      -7.4      3.175      5.983
REMARK  7 active torsions:
REMARK  status: ('A' for Active; 'I' for Inactive)
REMARK    1  A    between atoms: N1_2  and  C3_4 
REMARK    2  A    between atoms: C3_4  and  C4_5 
REMARK    3  A    between atoms: C5_6  and  C6_7 
REMARK       I    between atoms: C6_7  and  N2_9 
REMARK    4  A    between atoms: N2_9  and  C7_10 
REMARK    5  A    between atoms: C7_10  and  C8_11 
REMARK    6  A    between atoms: C10_13  and  N3_14 
REMARK    7  A    between atoms: C16_22  and  C17_23 
ROOT
HETATM    1  C8  UNL     1      24.137   3.088  51.701  1.00  0.00    -0.030 A 
HETATM    2  C9  UNL     1      25.099   2.515  52.501  1.00  0.00     0.039 A 
HETATM    3  C10 UNL     1      26.391   2.206  52.151  1.00  0.00     0.041 A 
HETATM    4  C14 UNL     1      26.725   2.519  50.847  1.00  0.00     0.031 A 
HETATM    5  C15 UNL     1      25.822   3.096  49.974  1.00  0.00     0.012 A 
HETATM    6  C16 UNL     1      24.528   3.381  50.399  1.00  0.00    -0.022 A 
ENDROOT
BRANCH   1   7
HETATM    7  C7  UNL     1      22.759   3.403  52.171  1.00  0.00     0.162 C 
BRANCH   7   8
HETATM    8  N2  UNL     1      21.937   2.222  52.264  1.00  0.00    -0.353 N 
HETATM    9  C6  UNL     1      20.574   2.111  52.575  1.00  0.00     0.241 C 
HETATM   10  O1  UNL     1      20.034   3.238  52.810  1.00  0.00    -0.269 OA
HETATM   11  H11 UNL     1      22.425   1.314  52.069  1.00  0.00     0.163 HD
BRANCH   9  12
HETATM   12  C5  UNL     1      19.895   0.841  52.616  1.00  0.00     0.072 C 
HETATM   13  C4  UNL     1      20.120  -0.153  53.450  1.00  0.00     0.008 C 
BRANCH  13  14
HETATM   14  C3  UNL     1      21.102  -0.251  54.546  1.00  0.00     0.299 C 
BRANCH  14  15
HETATM   15  N1  UNL     1      21.991  -1.413  54.351  1.00  0.00     0.083 N 
HETATM   16  C1  UNL     1      22.692  -1.185  53.095  1.00  0.00     0.309 C 
HETATM   17  C2  UNL     1      22.970  -1.358  55.445  1.00  0.00     0.309 C 
ENDBRANCH  14  15
ENDBRANCH  13  14
ENDBRANCH   9  12
ENDBRANCH   7   8
ENDBRANCH   1   7
BRANCH   6  18
HETATM   18  C17 UNL     1      23.568   4.000  49.446  1.00  0.00     0.261 C 
HETATM   19  F1  UNL     1      23.240   3.153  48.409  1.00  0.00    -0.251 F 
ENDBRANCH   6  18
BRANCH   3  20
HETATM   20  N3  UNL     1      27.341   1.620  53.022  1.00  0.00    -0.299 N 
HETATM   21  C11 UNL     1      28.263   2.375  53.688  1.00  0.00     0.215 A 
HETATM   22  N4  UNL     1      29.058   1.644  54.455  1.00  0.00    -0.253 NA
HETATM   23  C12 UNL     1      28.697   0.373  54.327  1.00  0.00     0.155 A 
HETATM   24  C13 UNL     1      27.628   0.370  53.434  1.00  0.00     0.105 A 
HETATM   25 BR1  UNL     1      26.646  -1.123  52.815  1.00  0.00    -0.029 Br
ENDBRANCH   3  20
TORSDOF 7
ENDMDL
MODEL 4
REMARK VINA RESULT:      -7.1      2.365      3.440
REMARK  7 active torsions:
REMARK  status: ('A' for Active; 'I' for Inactive)
REMARK    1  A    between atoms: N1_2  and  C3_4 
REMARK    2  A    between atoms: C3_4  and  C4_5 
REMARK    3  A    between atoms: C5_6  and  C6_7 
REMARK       I    between atoms: C6_7  and  N2_9 
REMARK    4  A    between atoms: N2_9  and  C7_10 
REMARK    5  A    between atoms: C7_10  and  C8_11 
REMARK    6  A    between atoms: C10_13  and  N3_14 
REMARK    7  A    between atoms: C16_22  and  C17_23 
ROOT
HETATM    1  C8  UNL     1      25.880   3.314  50.324  1.00  0.00    -0.030 A 
HETATM    2  C9  UNL     1      26.748   2.732  51.219  1.00  0.00     0.039 A 
HETATM    3  C10 UNL     1      26.444   1.802  52.183  1.00  0.00     0.041 A 
HETATM    4  C14 UNL     1      25.113   1.435  52.230  1.00  0.00     0.031 A 
HETATM    5  C15 UNL     1      24.171   1.969  51.370  1.00  0.00     0.012 A 
HETATM    6  C16 UNL     1      24.553   2.908  50.417  1.00  0.00    -0.022 A 
ENDROOT
BRANCH   1   7
HETATM    7  C7  UNL     1      26.302   4.308  49.297  1.00  0.00     0.162 C 
BRANCH   7   8
HETATM    8  N2  UNL     1      26.529   5.612  49.869  1.00  0.00    -0.353 N 
HETATM    9  C6  UNL     1      26.014   6.856  49.475  1.00  0.00     0.241 C 
HETATM   10  O1  UNL     1      25.253   6.770  48.461  1.00  0.00    -0.269 OA
HETATM   11  H11 UNL     1      27.169   5.637  50.700  1.00  0.00     0.163 HD
BRANCH   9  12
HETATM   12  C5  UNL     1      26.337   8.076  50.169  1.00  0.00     0.072 C 
HETATM   13  C4  UNL     1      27.250   8.963  49.833  1.00  0.00     0.008 C 
BRANCH  13  14
HETATM   14  C3  UNL     1      28.179   8.961  48.687  1.00  0.00     0.299 C 
BRANCH  14  15
HETATM   15  N1  UNL     1      29.337   8.085  48.950  1.00  0.00     0.083 N 
HETATM   16  C1  UNL     1      29.410   7.157  47.830  1.00  0.00     0.309 C 
HETATM   17  C2  UNL     1      30.519   8.956  48.908  1.00  0.00     0.309 C 
ENDBRANCH  14  15
ENDBRANCH  13  14
ENDBRANCH   9  12
ENDBRANCH   7   8
ENDBRANCH   1   7
BRANCH   6  18
HETATM   18  C17 UNL     1      23.527   3.476  49.500  1.00  0.00     0.261 C 
HETATM   19  F1  UNL     1      23.407   2.749  48.335  1.00  0.00    -0.251 F 
ENDBRANCH   6  18
BRANCH   3  20
HETATM   20  N3  UNL     1      27.384   1.232  53.075  1.00  0.00    -0.299 N 
HETATM   21  C11 UNL     1      28.210   2.008  53.838  1.00  0.00     0.215 A 
HETATM   22  N4  UNL     1      29.012   1.288  54.608  1.00  0.00    -0.253 NA
HETATM   23  C12 UNL     1      28.752   0.005  54.387  1.00  0.00     0.155 A 
HETATM   24  C13 UNL     1      27.737  -0.018  53.432  1.00  0.00     0.105 A 
HETATM   25 BR1  UNL     1      26.903  -1.535  52.672  1.00  0.00    -0.029 Br
ENDBRANCH   3  20
TORSDOF 7
ENDMDL
MODEL 5
REMARK VINA RESULT:      -7.1      2.536      3.666
REMARK  7 active torsions:
REMARK  status: ('A' for Active; 'I' for Inactive)
REMARK    1  A    between atoms: N1_2  and  C3_4 
REMARK    2  A    between atoms: C3_4  and  C4_5 
REMARK    3  A    between atoms: C5_6  and  C6_7 
REMARK       I    between atoms: C6_7  and  N2_9 
REMARK    4  A    between atoms: N2_9  and  C7_10 
REMARK    5  A    between atoms: C7_10  and  C8_11 
REMARK    6  A    between atoms: C10_13  and  N3_14 
REMARK    7  A    between atoms: C16_22  and  C17_23 
ROOT
HETATM    1  C8  UNL     1      22.088   0.478  52.488  1.00  0.00    -0.030 A 
HETATM    2  C9  UNL     1      23.427   0.788  52.564  1.00  0.00     0.039 A 
HETATM    3  C10 UNL     1      24.338   0.308  53.473  1.00  0.00     0.041 A 
HETATM    4  C14 UNL     1      23.819  -0.581  54.394  1.00  0.00     0.031 A 
HETATM    5  C15 UNL     1      22.487  -0.949  54.392  1.00  0.00     0.012 A 
HETATM    6  C16 UNL     1      21.620  -0.421  53.441  1.00  0.00    -0.022 A 
ENDROOT
BRANCH   1   7
HETATM    7  C7  UNL     1      21.172   1.038  51.455  1.00  0.00     0.162 C 
BRANCH   7   8
HETATM    8  N2  UNL     1      21.445   2.428  51.188  1.00  0.00    -0.353 N 
HETATM    9  C6  UNL     1      20.949   3.570  51.833  1.00  0.00     0.241 C 
HETATM   10  O1  UNL     1      20.143   3.287  52.774  1.00  0.00    -0.269 OA
HETATM   11  H11 UNL     1      22.111   2.615  50.398  1.00  0.00     0.163 HD
BRANCH   9  12
HETATM   12  C5  UNL     1      21.335   4.902  51.443  1.00  0.00     0.072 C 
HETATM   13  C4  UNL     1      22.558   5.374  51.329  1.00  0.00     0.008 C 
BRANCH  13  14
HETATM   14  C3  UNL     1      23.848   4.697  51.564  1.00  0.00     0.299 C 
BRANCH  14  15
HETATM   15  N1  UNL     1      24.416   4.195  50.298  1.00  0.00     0.083 N 
HETATM   16  C1  UNL     1      24.912   5.362  49.582  1.00  0.00     0.309 C 
HETATM   17  C2  UNL     1      25.564   3.360  50.675  1.00  0.00     0.309 C 
ENDBRANCH  14  15
ENDBRANCH  13  14
ENDBRANCH   9  12
ENDBRANCH   7   8
ENDBRANCH   1   7
BRANCH   6  18
HETATM   18  C17 UNL     1      20.189  -0.826  53.454  1.00  0.00     0.261 C 
HETATM   19  F1  UNL     1      19.984  -2.005  54.137  1.00  0.00    -0.251 F 
ENDBRANCH   6  18
BRANCH   3  20
HETATM   20  N3  UNL     1      25.710   0.661  53.498  1.00  0.00    -0.299 N 
HETATM   21  C11 UNL     1      26.125   1.889  53.925  1.00  0.00     0.215 A 
HETATM   22  N4  UNL     1      27.442   2.023  53.877  1.00  0.00    -0.253 NA
HETATM   23  C12 UNL     1      27.954   0.888  53.416  1.00  0.00     0.155 A 
HETATM   24  C13 UNL     1      26.867   0.048  53.184  1.00  0.00     0.105 A 
HETATM   25 BR1  UNL     1      26.899  -1.722  52.519  1.00  0.00    -0.029 Br
ENDBRANCH   3  20
TORSDOF 7
ENDMDL
MODEL 6
REMARK VINA RESULT:      -7.1      3.388      5.167
REMARK  7 active torsions:
REMARK  status: ('A' for Active; 'I' for Inactive)
REMARK    1  A    between atoms: N1_2  and  C3_4 
REMARK    2  A    between atoms: C3_4  and  C4_5 
REMARK    3  A    between atoms: C5_6  and  C6_7 
REMARK       I    between atoms: C6_7  and  N2_9 
REMARK    4  A    between atoms: N2_9  and  C7_10 
REMARK    5  A    between atoms: C7_10  and  C8_11 
REMARK    6  A    between atoms: C10_13  and  N3_14 
REMARK    7  A    between atoms: C16_22  and  C17_23 
ROOT
HETATM    1  C8  UNL     1      24.156   1.532  52.995  1.00  0.00    -0.030 A 
HETATM    2  C9  UNL     1      22.849   1.409  52.581  1.00  0.00     0.039 A 
HETATM    3  C10 UNL     1      22.067   0.281  52.633  1.00  0.00     0.041 A 
HETATM    4  C14 UNL     1      22.692  -0.829  53.166  1.00  0.00     0.031 A 
HETATM    5  C15 UNL     1      24.002  -0.796  53.608  1.00  0.00     0.012 A 
HETATM    6  C16 UNL     1      24.735   0.383  53.523  1.00  0.00    -0.022 A 
ENDROOT
BRANCH   1   7
HETATM    7  C7  UNL     1      24.927   2.805  52.913  1.00  0.00     0.162 C 
BRANCH   7   8
HETATM    8  N2  UNL     1      25.238   3.162  51.552  1.00  0.00    -0.353 N 
HETATM    9  C6  UNL     1      26.463   3.092  50.873  1.00  0.00     0.241 C 
HETATM   10  O1  UNL     1      27.404   2.655  51.607  1.00  0.00    -0.269 OA
HETATM   11  H11 UNL     1      24.433   3.524  50.984  1.00  0.00     0.163 HD
BRANCH   9  12
HETATM   12  C5  UNL     1      26.601   3.484  49.493  1.00  0.00     0.072 C 
HETATM   13  C4  UNL     1      26.480   4.697  48.996  1.00  0.00     0.008 C 
BRANCH  13  14
HETATM   14  C3  UNL     1      26.173   5.964  49.685  1.00  0.00     0.299 C 
BRANCH  14  15
HETATM   15  N1  UNL     1      26.577   7.120  48.861  1.00  0.00     0.083 N 
HETATM   16  C1  UNL     1      26.616   8.267  49.759  1.00  0.00     0.309 C 
HETATM   17  C2  UNL     1      27.948   6.836  48.414  1.00  0.00     0.309 C 
ENDBRANCH  14  15
ENDBRANCH  13  14
ENDBRANCH   9  12
ENDBRANCH   7   8
ENDBRANCH   1   7
BRANCH   6  18
HETATM   18  C17 UNL     1      26.144   0.402  53.999  1.00  0.00     0.261 C 
HETATM   19  F1  UNL     1      27.016  -0.134  53.075  1.00  0.00    -0.251 F 
ENDBRANCH   6  18
BRANCH   3  20
HETATM   20  N3  UNL     1      20.722   0.216  52.195  1.00  0.00    -0.299 N 
HETATM   21  C11 UNL     1      19.720  -0.205  53.022  1.00  0.00     0.215 A 
HETATM   22  N4  UNL     1      18.536  -0.192  52.429  1.00  0.00    -0.253 NA
HETATM   23  C12 UNL     1      18.704   0.237  51.184  1.00  0.00     0.155 A 
HETATM   24  C13 UNL     1      20.068   0.488  51.050  1.00  0.00     0.105 A 
HETATM   25 BR1  UNL     1      20.979   1.120  49.518  1.00  0.00    -0.029 Br
ENDBRANCH   3  20
TORSDOF 7
ENDMDL
MODEL 7
REMARK VINA RESULT:      -6.9      3.149      5.221
REMARK  7 active torsions:
REMARK  status: ('A' for Active; 'I' for Inactive)
REMARK    1  A    between atoms: N1_2  and  C3_4 
REMARK    2  A    between atoms: C3_4  and  C4_5 
REMARK    3  A    between atoms: C5_6  and  C6_7 
REMARK       I    between atoms: C6_7  and  N2_9 
REMARK    4  A    between atoms: N2_9  and  C7_10 
REMARK    5  A    between atoms: C7_10  and  C8_11 
REMARK    6  A    between atoms: C10_13  and  N3_14 
REMARK    7  A    between atoms: C16_22  and  C17_23 
ROOT
HETATM    1  C8  UNL     1      25.104   1.452  52.297  1.00  0.00    -0.030 A 
HETATM    2  C9  UNL     1      23.867   1.930  51.929  1.00  0.00     0.039 A 
HETATM    3  C10 UNL     1      22.645   1.369  52.212  1.00  0.00     0.041 A 
HETATM    4  C14 UNL     1      22.703   0.201  52.948  1.00  0.00     0.031 A 
HETATM    5  C15 UNL     1      23.902  -0.351  53.360  1.00  0.00     0.012 A 
HETATM    6  C16 UNL     1      25.103   0.273  53.036  1.00  0.00    -0.022 A 
ENDROOT
BRANCH   1   7
HETATM    7  C7  UNL     1      26.383   2.136  51.957  1.00  0.00     0.162 C 
BRANCH   7   8
HETATM    8  N2  UNL     1      26.162   3.408  51.317  1.00  0.00    -0.353 N 
HETATM    9  C6  UNL     1      26.310   3.761  49.968  1.00  0.00     0.241 C 
HETATM   10  O1  UNL     1      26.705   2.789  49.250  1.00  0.00    -0.269 OA
HETATM   11  H11 UNL     1      25.842   4.183  51.949  1.00  0.00     0.163 HD
BRANCH   9  12
HETATM   12  C5  UNL     1      26.035   5.091  49.486  1.00  0.00     0.072 C 
HETATM   13  C4  UNL     1      24.868   5.698  49.455  1.00  0.00     0.008 C 
BRANCH  13  14
HETATM   14  C3  UNL     1      23.545   5.208  49.888  1.00  0.00     0.299 C 
BRANCH  14  15
HETATM   15  N1  UNL     1      23.055   5.977  51.048  1.00  0.00     0.083 N 
HETATM   16  C1  UNL     1      23.314   7.379  50.749  1.00  0.00     0.309 C 
HETATM   17  C2  UNL     1      21.600   5.772  51.080  1.00  0.00     0.309 C 
ENDBRANCH  14  15
ENDBRANCH  13  14
ENDBRANCH   9  12
ENDBRANCH   7   8
ENDBRANCH   1   7
BRANCH   6  18
HETATM   18  C17 UNL     1      26.385  -0.335  53.484  1.00  0.00     0.261 C 
HETATM   19  F1  UNL     1      26.695  -0.002  54.785  1.00  0.00    -0.251 F 
ENDBRANCH   6  18
BRANCH   3  20
HETATM   20  N3  UNL     1      21.400   1.911  51.810  1.00  0.00    -0.299 N 
HETATM   21  C11 UNL     1      20.589   2.570  52.689  1.00  0.00     0.215 A 
HETATM   22  N4  UNL     1      19.474   3.004  52.121  1.00  0.00    -0.253 NA
HETATM   23  C12 UNL     1      19.500   2.651  50.842  1.00  0.00     0.155 A 
HETATM   24  C13 UNL     1      20.703   1.972  50.660  1.00  0.00     0.105 A 
HETATM   25 BR1  UNL     1      21.361   1.199  49.064  1.00  0.00    -0.029 Br
ENDBRANCH   3  20
TORSDOF 7
ENDMDL
MODEL 8
REMARK VINA RESULT:      -6.9      1.873      2.283
REMARK  7 active torsions:
REMARK  status: ('A' for Active; 'I' for Inactive)
REMARK    1  A    between atoms: N1_2  and  C3_4 
REMARK    2  A    between atoms: C3_4  and  C4_5 
REMARK    3  A    between atoms: C5_6  and  C6_7 
REMARK       I    between atoms: C6_7  and  N2_9 
REMARK    4  A    between atoms: N2_9  and  C7_10 
REMARK    5  A    between atoms: C7_10  and  C8_11 
REMARK    6  A    between atoms: C10_13  and  N3_14 
REMARK    7  A    between atoms: C16_22  and  C17_23 
ROOT
HETATM    1  C8  UNL     1      23.076   1.832  50.862  1.00  0.00    -0.030 A 
HETATM    2  C9  UNL     1      24.089   1.550  51.750  1.00  0.00     0.039 A 
HETATM    3  C10 UNL     1      24.087   0.586  52.728  1.00  0.00     0.041 A 
HETATM    4  C14 UNL     1      22.928  -0.163  52.798  1.00  0.00     0.031 A 
HETATM    5  C15 UNL     1      21.861   0.051  51.946  1.00  0.00     0.012 A 
HETATM    6  C16 UNL     1      21.933   1.048  50.977  1.00  0.00    -0.022 A 
ENDROOT
BRANCH   1   7
HETATM    7  C7  UNL     1      23.170   2.892  49.818  1.00  0.00     0.162 C 
BRANCH   7   8
HETATM    8  N2  UNL     1      24.533   3.142  49.423  1.00  0.00    -0.353 N 
HETATM    9  C6  UNL     1      25.402   4.166  49.828  1.00  0.00     0.241 C 
HETATM   10  O1  UNL     1      24.861   4.966  50.654  1.00  0.00    -0.269 OA
HETATM   11  H11 UNL     1      24.937   2.460  48.735  1.00  0.00     0.163 HD
BRANCH   9  12
HETATM   12  C5  UNL     1      26.753   4.267  49.338  1.00  0.00     0.072 C 
HETATM   13  C4  UNL     1      27.288   5.278  48.687  1.00  0.00     0.008 C 
BRANCH  13  14
HETATM   14  C3  UNL     1      26.677   6.558  48.280  1.00  0.00     0.299 C 
BRANCH  14  15
HETATM   15  N1  UNL     1      27.354   7.694  48.936  1.00  0.00     0.083 N 
HETATM   16  C1  UNL     1      27.388   8.770  47.955  1.00  0.00     0.309 C 
HETATM   17  C2  UNL     1      26.476   8.102  50.041  1.00  0.00     0.309 C 
ENDBRANCH  14  15
ENDBRANCH  13  14
ENDBRANCH   9  12
ENDBRANCH   7   8
ENDBRANCH   1   7
BRANCH   6  18
HETATM   18  C17 UNL     1      20.775   1.268  50.070  1.00  0.00     0.261 C 
HETATM   19  F1  UNL     1      20.969   0.703  48.827  1.00  0.00    -0.251 F 
ENDBRANCH   6  18
BRANCH   3  20
HETATM   20  N3  UNL     1      25.165   0.337  53.613  1.00  0.00    -0.299 N 
HETATM   21  C11 UNL     1      25.054  -0.551  54.644  1.00  0.00     0.215 A 
HETATM   22  N4  UNL     1      26.170  -0.645  55.352  1.00  0.00    -0.253 NA
HETATM   23  C12 UNL     1      27.066   0.177  54.820  1.00  0.00     0.155 A 
HETATM   24  C13 UNL     1      26.430   0.782  53.738  1.00  0.00     0.105 A 
HETATM   25 BR1  UNL     1      27.148   2.066  52.549  1.00  0.00    -0.029 Br
ENDBRANCH   3  20
TORSDOF 7
ENDMDL
MODEL 9
REMARK VINA RESULT:      -6.8      3.773      7.549
REMARK  7 active torsions:
REMARK  status: ('A' for Active; 'I' for Inactive)
REMARK    1  A    between atoms: N1_2  and  C3_4 
REMARK    2  A    between atoms: C3_4  and  C4_5 
REMARK    3  A    between atoms: C5_6  and  C6_7 
REMARK       I    between atoms: C6_7  and  N2_9 
REMARK    4  A    between atoms: N2_9  and  C7_10 
REMARK    5  A    between atoms: C7_10  and  C8_11 
REMARK    6  A    between atoms: C10_13  and  N3_14 
REMARK    7  A    between atoms: C16_22  and  C17_23 
ROOT
HETATM    1  C8  UNL     1      25.444   3.251  50.567  1.00  0.00    -0.030 A 
HETATM    2  C9  UNL     1      24.136   3.055  50.948  1.00  0.00     0.039 A 
HETATM    3  C10 UNL     1      23.022   3.675  50.437  1.00  0.00     0.041 A 
HETATM    4  C14 UNL     1      23.282   4.587  49.432  1.00  0.00     0.031 A 
HETATM    5  C15 UNL     1      24.564   4.847  48.986  1.00  0.00     0.012 A 
HETATM    6  C16 UNL     1      25.646   4.181  49.553  1.00  0.00    -0.022 A 
ENDROOT
BRANCH   1   7
HETATM    7  C7  UNL     1      26.593   2.520  51.171  1.00  0.00     0.162 C 
BRANCH   7   8
HETATM    8  N2  UNL     1      26.162   1.401  51.971  1.00  0.00    -0.353 N 
HETATM    9  C6  UNL     1      26.209   1.235  53.363  1.00  0.00     0.241 C 
HETATM   10  O1  UNL     1      26.719   2.235  53.957  1.00  0.00    -0.269 OA
HETATM   11  H11 UNL     1      25.753   0.595  51.438  1.00  0.00     0.163 HD
BRANCH   9  12
HETATM   12  C5  UNL     1      25.722   0.044  54.011  1.00  0.00     0.072 C 
HETATM   13  C4  UNL     1      24.485  -0.405  54.021  1.00  0.00     0.008 C 
BRANCH  13  14
HETATM   14  C3  UNL     1      23.277   0.163  53.392  1.00  0.00     0.299 C 
BRANCH  14  15
HETATM   15  N1  UNL     1      22.234  -0.869  53.232  1.00  0.00     0.083 N 
HETATM   16  C1  UNL     1      22.064  -1.484  54.542  1.00  0.00     0.309 C 
HETATM   17  C2  UNL     1      21.000  -0.144  52.897  1.00  0.00     0.309 C 
ENDBRANCH  14  15
ENDBRANCH  13  14
ENDBRANCH   9  12
ENDBRANCH   7   8
ENDBRANCH   1   7
BRANCH   6  18
HETATM   18  C17 UNL     1      27.020   4.474  49.064  1.00  0.00     0.261 C 
HETATM   19  F1  UNL     1      27.084   5.658  48.361  1.00  0.00    -0.251 F 
ENDBRANCH   6  18
BRANCH   3  20
HETATM   20  N3  UNL     1      21.696   3.428  50.866  1.00  0.00    -0.299 N 
HETATM   21  C11 UNL     1      21.280   3.745  52.128  1.00  0.00     0.215 A 
HETATM   22  N4  UNL     1      20.008   3.440  52.333  1.00  0.00    -0.253 NA
HETATM   23  C12 UNL     1      19.527   2.907  51.217  1.00  0.00     0.155 A 
HETATM   24  C13 UNL     1      20.586   2.905  50.310  1.00  0.00     0.105 A 
HETATM   25 BR1  UNL     1      20.576   2.276  48.527  1.00  0.00    -0.029 Br
ENDBRANCH   3  20
TORSDOF 7
ENDMDL
