MODEL 1
REMARK VINA RESULT:      -8.2      0.000      0.000
REMARK  4 active torsions:
REMARK  status: ('A' for Active; 'I' for Inactive)
REMARK    1  A    between atoms: O1_2  and  C2_3 
REMARK    2  A    between atoms: C4_5  and  O2_6 
REMARK    3  A    between atoms: C11_16  and  N3_17 
REMARK    4  A    between atoms: N3_17  and  C12_18 
ROOT
HETATM    1  C2  UNL     1      20.606  -0.226  53.004  1.00  0.00     0.073 A 
HETATM    2  C3  UNL     1      20.157   0.274  51.799  1.00  0.00     0.074 A 
HETATM    3  C4  UNL     1      20.777   1.264  51.076  1.00  0.00     0.081 A 
HETATM    4  C6  UNL     1      21.949   1.805  51.596  1.00  0.00     0.027 A 
HETATM    5  C7  UNL     1      22.411   1.317  52.798  1.00  0.00     0.091 A 
HETATM    6  C8  UNL     1      21.778   0.322  53.511  1.00  0.00     0.074 A 
HETATM    7  O3  UNL     1      23.591   1.807  53.397  1.00  0.00    -0.289 OA
HETATM    8  C9  UNL     1      24.799   2.070  52.728  1.00  0.00     0.202 A 
HETATM    9  N1  UNL     1      25.946   1.888  53.442  1.00  0.00    -0.215 NA
HETATM   10  C10 UNL     1      27.147   2.123  52.858  1.00  0.00     0.238 A 
HETATM   11  N2  UNL     1      27.249   2.534  51.581  1.00  0.00    -0.222 NA
HETATM   12  C11 UNL     1      26.159   2.734  50.816  1.00  0.00     0.160 A 
HETATM   13  C18 UNL     1      24.951   2.491  51.427  1.00  0.00     0.129 A 
HETATM   14  N4  UNL     1      23.913   2.762  50.496  1.00  0.00    -0.379 N 
HETATM   15  C19 UNL     1      22.479   2.852  50.694  1.00  0.00     0.164 C 
HETATM   16  H15 UNL     1      24.197   2.930  49.509  1.00  0.00     0.160 HD
ENDROOT
BRANCH  12  17
HETATM   17  N3  UNL     1      26.389   3.158  49.498  1.00  0.00    -0.339 N 
HETATM   18  H10 UNL     1      26.332   2.519  48.661  1.00  0.00     0.167 HD
BRANCH  17  19
HETATM   19  C12 UNL     1      26.735   4.507  49.189  1.00  0.00     0.035 A 
HETATM   20  C13 UNL     1      27.899   4.861  48.538  1.00  0.00     0.029 A 
HETATM   21  C14 UNL     1      28.198   6.167  48.255  1.00  0.00     0.004 A 
HETATM   22  C15 UNL     1      27.348   7.200  48.606  1.00  0.00     0.019 A 
HETATM   23  C16 UNL     1      26.169   6.906  49.258  1.00  0.00     0.013 A 
HETATM   24 BR1  UNL     1      24.911   8.226  49.797  1.00  0.00    -0.051 Br
HETATM   25  C17 UNL     1      25.928   5.578  49.513  1.00  0.00     0.048 A 
ENDBRANCH  17  19
ENDBRANCH  12  17
BRANCH   3  26
HETATM   26  O2  UNL     1      20.326   1.764  49.871  1.00  0.00    -0.355 OA
HETATM   27  C5  UNL     1      19.008   2.013  49.506  1.00  0.00     0.210 C 
ENDBRANCH   3  26
BRANCH   1  28
HETATM   28  O1  UNL     1      19.936  -1.223  53.682  1.00  0.00    -0.356 OA
HETATM   29  C1  UNL     1      18.555  -1.380  53.431  1.00  0.00     0.210 C 
ENDBRANCH   1  28
TORSDOF 4
ENDMDL
MODEL 2
REMARK VINA RESULT:      -8.0      2.220      4.071
REMARK  4 active torsions:
REMARK  status: ('A' for Active; 'I' for Inactive)
REMARK    1  A    between atoms: O1_2  and  C2_3 
REMARK    2  A    between atoms: C4_5  and  O2_6 
REMARK    3  A    between atoms: C11_16  and  N3_17 
REMARK    4  A    between atoms: N3_17  and  C12_18 
ROOT
HETATM    1  C2  UNL     1      23.120  -0.382  53.661  1.00  0.00     0.073 A 
HETATM    2  C3  UNL     1      24.492  -0.247  53.690  1.00  0.00     0.074 A 
HETATM    3  C4  UNL     1      25.207   0.695  52.992  1.00  0.00     0.081 A 
HETATM    4  C6  UNL     1      24.494   1.584  52.192  1.00  0.00     0.027 A 
HETATM    5  C7  UNL     1      23.123   1.463  52.152  1.00  0.00     0.091 A 
HETATM    6  C8  UNL     1      22.420   0.512  52.860  1.00  0.00     0.074 A 
HETATM    7  O3  UNL     1      22.322   2.322  51.370  1.00  0.00    -0.289 OA
HETATM    8  C9  UNL     1      22.475   3.716  51.269  1.00  0.00     0.202 A 
HETATM    9  N1  UNL     1      21.339   4.443  51.066  1.00  0.00    -0.215 NA
HETATM   10  C10 UNL     1      21.414   5.792  50.961  1.00  0.00     0.238 A 
HETATM   11  N2  UNL     1      22.585   6.449  51.050  1.00  0.00    -0.222 NA
HETATM   12  C11 UNL     1      23.745   5.797  51.249  1.00  0.00     0.160 A 
HETATM   13  C18 UNL     1      23.648   4.429  51.353  1.00  0.00     0.129 A 
HETATM   14  N4  UNL     1      24.952   3.898  51.545  1.00  0.00    -0.379 N 
HETATM   15  C19 UNL     1      25.416   2.524  51.516  1.00  0.00     0.164 C 
HETATM   16  H15 UNL     1      25.716   4.579  51.733  1.00  0.00     0.160 HD
ENDROOT
BRANCH  12  17
HETATM   17  N3  UNL     1      24.902   6.587  51.331  1.00  0.00    -0.339 N 
HETATM   18  H10 UNL     1      25.337   6.894  52.241  1.00  0.00     0.167 HD
BRANCH  17  19
HETATM   19  C12 UNL     1      25.580   7.054  50.166  1.00  0.00     0.035 A 
HETATM   20  C13 UNL     1      26.272   6.223  49.307  1.00  0.00     0.029 A 
HETATM   21  C14 UNL     1      26.910   6.705  48.196  1.00  0.00     0.004 A 
HETATM   22  C15 UNL     1      26.893   8.049  47.873  1.00  0.00     0.019 A 
HETATM   23  C16 UNL     1      26.217   8.927  48.694  1.00  0.00     0.013 A 
HETATM   24 BR1  UNL     1      26.113  10.798  48.370  1.00  0.00    -0.051 Br
HETATM   25  C17 UNL     1      25.599   8.381  49.793  1.00  0.00     0.048 A 
ENDBRANCH  17  19
ENDBRANCH  12  17
BRANCH   3  26
HETATM   26  O2  UNL     1      26.581   0.829  53.021  1.00  0.00    -0.355 OA
HETATM   27  C5  UNL     1      27.448   0.368  54.006  1.00  0.00     0.210 C 
ENDBRANCH   3  26
BRANCH   1  28
HETATM   28  O1  UNL     1      22.460  -1.352  54.387  1.00  0.00    -0.356 OA
HETATM   29  C1  UNL     1      21.055  -1.426  54.270  1.00  0.00     0.210 C 
ENDBRANCH   1  28
TORSDOF 4
ENDMDL
MODEL 3
REMARK VINA RESULT:      -8.0      2.395      4.319
REMARK  4 active torsions:
REMARK  status: ('A' for Active; 'I' for Inactive)
REMARK    1  A    between atoms: O1_2  and  C2_3 
REMARK    2  A    between atoms: C4_5  and  O2_6 
REMARK    3  A    between atoms: C11_16  and  N3_17 
REMARK    4  A    between atoms: N3_17  and  C12_18 
ROOT
HETATM    1  C2  UNL     1      24.121  -0.133  53.719  1.00  0.00     0.073 A 
HETATM    2  C3  UNL     1      25.482   0.032  53.877  1.00  0.00     0.074 A 
HETATM    3  C4  UNL     1      26.279   0.820  53.084  1.00  0.00     0.081 A 
HETATM    4  C6  UNL     1      25.669   1.507  52.038  1.00  0.00     0.027 A 
HETATM    5  C7  UNL     1      24.311   1.355  51.867  1.00  0.00     0.091 A 
HETATM    6  C8  UNL     1      23.525   0.560  52.673  1.00  0.00     0.074 A 
HETATM    7  O3  UNL     1      23.612   2.016  50.834  1.00  0.00    -0.289 OA
HETATM    8  C9  UNL     1      23.783   3.359  50.460  1.00  0.00     0.202 A 
HETATM    9  N1  UNL     1      22.683   4.006  49.980  1.00  0.00    -0.215 NA
HETATM   10  C10 UNL     1      22.777   5.305  49.602  1.00  0.00     0.238 A 
HETATM   11  N2  UNL     1      23.933   5.988  49.686  1.00  0.00    -0.222 NA
HETATM   12  C11 UNL     1      25.059   5.414  50.150  1.00  0.00     0.160 A 
HETATM   13  C18 UNL     1      24.943   4.097  50.527  1.00  0.00     0.129 A 
HETATM   14  N4  UNL     1      26.212   3.643  50.975  1.00  0.00    -0.379 N 
HETATM   15  C19 UNL     1      26.669   2.302  51.290  1.00  0.00     0.164 C 
HETATM   16  H15 UNL     1      26.953   4.362  51.103  1.00  0.00     0.160 HD
ENDROOT
BRANCH  12  17
HETATM   17  N3  UNL     1      26.203   6.226  50.196  1.00  0.00    -0.339 N 
HETATM   18  H10 UNL     1      26.727   6.446  51.083  1.00  0.00     0.167 HD
BRANCH  17  19
HETATM   19  C12 UNL     1      26.743   6.835  49.024  1.00  0.00     0.035 A 
HETATM   20  C13 UNL     1      27.903   6.404  48.411  1.00  0.00     0.029 A 
HETATM   21  C14 UNL     1      28.391   7.011  47.285  1.00  0.00     0.004 A 
HETATM   22  C15 UNL     1      27.747   8.087  46.702  1.00  0.00     0.019 A 
HETATM   23  C16 UNL     1      26.584   8.561  47.271  1.00  0.00     0.013 A 
HETATM   24 BR1  UNL     1      25.598  10.030  46.573  1.00  0.00    -0.051 Br
HETATM   25  C17 UNL     1      26.147   7.910  48.398  1.00  0.00     0.048 A 
ENDBRANCH  17  19
ENDBRANCH  12  17
BRANCH   3  26
HETATM   26  O2  UNL     1      27.640   0.983  53.242  1.00  0.00    -0.355 OA
HETATM   27  C5  UNL     1      28.390   0.712  54.381  1.00  0.00     0.210 C 
ENDBRANCH   3  26
BRANCH   1  28
HETATM   28  O1  UNL     1      23.376  -0.941  54.553  1.00  0.00    -0.356 OA
HETATM   29  C1  UNL     1      21.969  -0.861  54.467  1.00  0.00     0.210 C 
ENDBRANCH   1  28
TORSDOF 4
ENDMDL
MODEL 4
REMARK VINA RESULT:      -7.9      3.297      7.356
REMARK  4 active torsions:
REMARK  status: ('A' for Active; 'I' for Inactive)
REMARK    1  A    between atoms: O1_2  and  C2_3 
REMARK    2  A    between atoms: C4_5  and  O2_6 
REMARK    3  A    between atoms: C11_16  and  N3_17 
REMARK    4  A    between atoms: N3_17  and  C12_18 
ROOT
HETATM    1  C2  UNL     1      27.796   1.040  53.183  1.00  0.00     0.073 A 
HETATM    2  C3  UNL     1      27.512   2.079  52.319  1.00  0.00     0.074 A 
HETATM    3  C4  UNL     1      26.300   2.290  51.710  1.00  0.00     0.081 A 
HETATM    4  C6  UNL     1      25.276   1.387  51.982  1.00  0.00     0.027 A 
HETATM    5  C7  UNL     1      25.541   0.345  52.841  1.00  0.00     0.091 A 
HETATM    6  C8  UNL     1      26.764   0.147  53.446  1.00  0.00     0.074 A 
HETATM    7  O3  UNL     1      24.561  -0.615  53.174  1.00  0.00    -0.289 OA
HETATM    8  C9  UNL     1      23.220  -0.339  53.489  1.00  0.00     0.202 A 
HETATM    9  N1  UNL     1      22.615  -1.177  54.378  1.00  0.00    -0.215 NA
HETATM   10  C10 UNL     1      21.322  -0.967  54.728  1.00  0.00     0.238 A 
HETATM   11  N2  UNL     1      20.604   0.052  54.222  1.00  0.00    -0.222 NA
HETATM   12  C11 UNL     1      21.136   0.919  53.340  1.00  0.00     0.160 A 
HETATM   13  C18 UNL     1      22.448   0.689  52.998  1.00  0.00     0.129 A 
HETATM   14  N4  UNL     1      22.847   1.675  52.056  1.00  0.00    -0.379 N 
HETATM   15  C19 UNL     1      24.048   1.763  51.246  1.00  0.00     0.164 C 
HETATM   16  H15 UNL     1      22.194   2.469  51.898  1.00  0.00     0.160 HD
ENDROOT
BRANCH  12  17
HETATM   17  N3  UNL     1      20.294   1.945  52.885  1.00  0.00    -0.339 N 
HETATM   18  H10 UNL     1      20.347   2.940  53.229  1.00  0.00     0.167 HD
BRANCH  17  19
HETATM   19  C12 UNL     1      19.276   1.710  51.914  1.00  0.00     0.035 A 
HETATM   20  C13 UNL     1      19.126   0.511  51.247  1.00  0.00     0.029 A 
HETATM   21  C14 UNL     1      18.134   0.320  50.322  1.00  0.00     0.004 A 
HETATM   22  C15 UNL     1      17.231   1.318  50.007  1.00  0.00     0.019 A 
HETATM   23  C16 UNL     1      17.333   2.538  50.641  1.00  0.00     0.013 A 
HETATM   24 BR1  UNL     1      16.159   3.996  50.305  1.00  0.00    -0.051 Br
HETATM   25  C17 UNL     1      18.348   2.667  51.558  1.00  0.00     0.048 A 
ENDBRANCH  17  19
ENDBRANCH  12  17
BRANCH   3  26
HETATM   26  O2  UNL     1      26.018   3.329  50.846  1.00  0.00    -0.355 OA
HETATM   27  C5  UNL     1      26.670   3.631  49.656  1.00  0.00     0.210 C 
ENDBRANCH   3  26
BRANCH   1  28
HETATM   28  O1  UNL     1      29.037   0.884  53.763  1.00  0.00    -0.356 OA
HETATM   29  C1  UNL     1      29.599  -0.412  53.784  1.00  0.00     0.210 C 
ENDBRANCH   1  28
TORSDOF 4
ENDMDL
MODEL 5
REMARK VINA RESULT:      -7.9      2.639      4.556
REMARK  4 active torsions:
REMARK  status: ('A' for Active; 'I' for Inactive)
REMARK    1  A    between atoms: O1_2  and  C2_3 
REMARK    2  A    between atoms: C4_5  and  O2_6 
REMARK    3  A    between atoms: C11_16  and  N3_17 
REMARK    4  A    between atoms: N3_17  and  C12_18 
ROOT
HETATM    1  C2  UNL     1      23.247   0.594  52.966  1.00  0.00     0.073 A 
HETATM    2  C3  UNL     1      24.521   0.720  53.480  1.00  0.00     0.074 A 
HETATM    3  C4  UNL     1      25.554   1.390  52.873  1.00  0.00     0.081 A 
HETATM    4  C6  UNL     1      25.300   1.990  51.643  1.00  0.00     0.027 A 
HETATM    5  C7  UNL     1      24.033   1.875  51.115  1.00  0.00     0.091 A 
HETATM    6  C8  UNL     1      23.006   1.199  51.738  1.00  0.00     0.074 A 
HETATM    7  O3  UNL     1      23.687   2.453  49.875  1.00  0.00    -0.289 OA
HETATM    8  C9  UNL     1      24.043   3.743  49.447  1.00  0.00     0.202 A 
HETATM    9  N1  UNL     1      23.161   4.380  48.625  1.00  0.00    -0.215 NA
HETATM   10  C10 UNL     1      23.441   5.629  48.176  1.00  0.00     0.238 A 
HETATM   11  N2  UNL     1      24.573   6.270  48.517  1.00  0.00    -0.222 NA
HETATM   12  C11 UNL     1      25.489   5.703  49.324  1.00  0.00     0.160 A 
HETATM   13  C18 UNL     1      25.187   4.437  49.769  1.00  0.00     0.129 A 
HETATM   14  N4  UNL     1      26.253   3.982  50.590  1.00  0.00    -0.379 N 
HETATM   15  C19 UNL     1      26.516   2.664  51.136  1.00  0.00     0.164 C 
HETATM   16  H15 UNL     1      26.977   4.681  50.855  1.00  0.00     0.160 HD
ENDROOT
BRANCH  12  17
HETATM   17  N3  UNL     1      26.628   6.469  49.615  1.00  0.00    -0.339 N 
HETATM   18  H10 UNL     1      26.826   6.885  50.563  1.00  0.00     0.167 HD
BRANCH  17  19
HETATM   19  C12 UNL     1      27.615   6.758  48.626  1.00  0.00     0.035 A 
HETATM   20  C13 UNL     1      27.505   7.799  47.725  1.00  0.00     0.029 A 
HETATM   21  C14 UNL     1      28.474   8.049  46.791  1.00  0.00     0.004 A 
HETATM   22  C15 UNL     1      29.614   7.272  46.700  1.00  0.00     0.019 A 
HETATM   23  C16 UNL     1      29.779   6.218  47.574  1.00  0.00     0.013 A 
HETATM   24 BR1  UNL     1      31.296   5.072  47.560  1.00  0.00    -0.051 Br
HETATM   25  C17 UNL     1      28.772   6.020  48.487  1.00  0.00     0.048 A 
ENDBRANCH  17  19
ENDBRANCH  12  17
BRANCH   3  26
HETATM   26  O2  UNL     1      26.829   1.515  53.389  1.00  0.00    -0.355 OA
HETATM   27  C5  UNL     1      27.720   0.487  53.680  1.00  0.00     0.210 C 
ENDBRANCH   3  26
BRANCH   1  28
HETATM   28  O1  UNL     1      22.251  -0.094  53.627  1.00  0.00    -0.356 OA
HETATM   29  C1  UNL     1      22.620  -0.894  54.730  1.00  0.00     0.210 C 
ENDBRANCH   1  28
TORSDOF 4
ENDMDL
MODEL 6
REMARK VINA RESULT:      -7.6      5.117      7.813
REMARK  4 active torsions:
REMARK  status: ('A' for Active; 'I' for Inactive)
REMARK    1  A    between atoms: O1_2  and  C2_3 
REMARK    2  A    between atoms: C4_5  and  O2_6 
REMARK    3  A    between atoms: C11_16  and  N3_17 
REMARK    4  A    between atoms: N3_17  and  C12_18 
ROOT
HETATM    1  C2  UNL     1      24.045   6.080  48.923  1.00  0.00     0.073 A 
HETATM    2  C3  UNL     1      24.674   4.934  49.365  1.00  0.00     0.074 A 
HETATM    3  C4  UNL     1      26.018   4.678  49.252  1.00  0.00     0.081 A 
HETATM    4  C6  UNL     1      26.811   5.648  48.644  1.00  0.00     0.027 A 
HETATM    5  C7  UNL     1      26.199   6.798  48.197  1.00  0.00     0.091 A 
HETATM    6  C8  UNL     1      24.848   7.040  48.319  1.00  0.00     0.074 A 
HETATM    7  O3  UNL     1      26.926   7.833  47.570  1.00  0.00    -0.289 OA
HETATM    8  C9  UNL     1      28.168   8.334  47.997  1.00  0.00     0.202 A 
HETATM    9  N1  UNL     1      28.409   9.655  47.758  1.00  0.00    -0.215 NA
HETATM   10  C10 UNL     1      29.587  10.204  48.145  1.00  0.00     0.238 A 
HETATM   11  N2  UNL     1      30.539   9.483  48.765  1.00  0.00    -0.222 NA
HETATM   12  C11 UNL     1      30.369   8.175  49.034  1.00  0.00     0.160 A 
HETATM   13  C18 UNL     1      29.168   7.637  48.634  1.00  0.00     0.129 A 
HETATM   14  N4  UNL     1      29.156   6.258  48.976  1.00  0.00    -0.379 N 
HETATM   15  C19 UNL     1      28.224   5.210  48.606  1.00  0.00     0.164 C 
HETATM   16  H15 UNL     1      29.928   5.916  49.585  1.00  0.00     0.160 HD
ENDROOT
BRANCH  12  17
HETATM   17  N3  UNL     1      31.428   7.528  49.690  1.00  0.00    -0.339 N 
HETATM   18  H10 UNL     1      31.504   7.449  50.738  1.00  0.00     0.167 HD
BRANCH  17  19
HETATM   19  C12 UNL     1      32.505   6.929  48.972  1.00  0.00     0.035 A 
HETATM   20  C13 UNL     1      33.648   7.613  48.610  1.00  0.00     0.029 A 
HETATM   21  C14 UNL     1      34.665   7.005  47.924  1.00  0.00     0.004 A 
HETATM   22  C15 UNL     1      34.601   5.673  47.558  1.00  0.00     0.019 A 
HETATM   23  C16 UNL     1      33.482   4.940  47.893  1.00  0.00     0.013 A 
HETATM   24 BR1  UNL     1      33.263   3.103  47.453  1.00  0.00    -0.051 Br
HETATM   25  C17 UNL     1      32.498   5.607  48.581  1.00  0.00     0.048 A 
ENDBRANCH  17  19
ENDBRANCH  12  17
BRANCH   3  26
HETATM   26  O2  UNL     1      26.647   3.531  49.695  1.00  0.00    -0.355 OA
HETATM   27  C5  UNL     1      26.388   2.833  50.869  1.00  0.00     0.210 C 
ENDBRANCH   3  26
BRANCH   1  28
HETATM   28  O1  UNL     1      22.688   6.277  49.067  1.00  0.00    -0.356 OA
HETATM   29  C1  UNL     1      22.158   6.299  50.376  1.00  0.00     0.210 C 
ENDBRANCH   1  28
TORSDOF 4
ENDMDL
MODEL 7
REMARK VINA RESULT:      -7.6      3.013      5.458
REMARK  4 active torsions:
REMARK  status: ('A' for Active; 'I' for Inactive)
REMARK    1  A    between atoms: O1_2  and  C2_3 
REMARK    2  A    between atoms: C4_5  and  O2_6 
REMARK    3  A    between atoms: C11_16  and  N3_17 
REMARK    4  A    between atoms: N3_17  and  C12_18 
ROOT
HETATM    1  C2  UNL     1      26.606  -1.121  52.836  1.00  0.00     0.073 A 
HETATM    2  C3  UNL     1      25.330  -1.008  53.350  1.00  0.00     0.074 A 
HETATM    3  C4  UNL     1      24.578   0.140  53.350  1.00  0.00     0.081 A 
HETATM    4  C6  UNL     1      25.144   1.282  52.789  1.00  0.00     0.027 A 
HETATM    5  C7  UNL     1      26.417   1.188  52.272  1.00  0.00     0.091 A 
HETATM    6  C8  UNL     1      27.159   0.026  52.279  1.00  0.00     0.074 A 
HETATM    7  O3  UNL     1      27.067   2.295  51.685  1.00  0.00    -0.289 OA
HETATM    8  C9  UNL     1      26.479   3.209  50.794  1.00  0.00     0.202 A 
HETATM    9  N1  UNL     1      27.298   3.758  49.852  1.00  0.00    -0.215 NA
HETATM   10  C10 UNL     1      26.796   4.646  48.959  1.00  0.00     0.238 A 
HETATM   11  N2  UNL     1      25.501   5.011  48.970  1.00  0.00    -0.222 NA
HETATM   12  C11 UNL     1      24.635   4.511  49.871  1.00  0.00     0.160 A 
HETATM   13  C18 UNL     1      25.163   3.611  50.767  1.00  0.00     0.129 A 
HETATM   14  N4  UNL     1      24.131   3.194  51.649  1.00  0.00    -0.379 N 
HETATM   15  C19 UNL     1      24.202   2.420  52.874  1.00  0.00     0.164 C 
HETATM   16  H15 UNL     1      23.159   3.478  51.406  1.00  0.00     0.160 HD
ENDROOT
BRANCH  12  17
HETATM   17  N3  UNL     1      23.309   4.961  49.782  1.00  0.00    -0.339 N 
HETATM   18  H10 UNL     1      22.937   5.789  50.317  1.00  0.00     0.167 HD
BRANCH  17  19
HETATM   19  C12 UNL     1      22.345   4.310  48.955  1.00  0.00     0.035 A 
HETATM   20  C13 UNL     1      22.356   4.383  47.577  1.00  0.00     0.029 A 
HETATM   21  C14 UNL     1      21.417   3.742  46.814  1.00  0.00     0.004 A 
HETATM   22  C15 UNL     1      20.407   2.988  47.385  1.00  0.00     0.019 A 
HETATM   23  C16 UNL     1      20.347   2.880  48.758  1.00  0.00     0.013 A 
HETATM   24 BR1  UNL     1      19.015   1.877  49.672  1.00  0.00    -0.051 Br
HETATM   25  C17 UNL     1      21.317   3.545  49.466  1.00  0.00     0.048 A 
ENDBRANCH  17  19
ENDBRANCH  12  17
BRANCH   3  26
HETATM   26  O2  UNL     1      23.302   0.252  53.864  1.00  0.00    -0.355 OA
HETATM   27  C5  UNL     1      22.295  -0.706  53.822  1.00  0.00     0.210 C 
ENDBRANCH   3  26
BRANCH   1  28
HETATM   28  O1  UNL     1      27.310  -2.306  52.868  1.00  0.00    -0.356 OA
HETATM   29  C1  UNL     1      28.712  -2.240  53.029  1.00  0.00     0.210 C 
ENDBRANCH   1  28
TORSDOF 4
ENDMDL
MODEL 8
REMARK VINA RESULT:      -7.6      3.570      7.909
REMARK  4 active torsions:
REMARK  status: ('A' for Active; 'I' for Inactive)
REMARK    1  A    between atoms: O1_2  and  C2_3 
REMARK    2  A    between atoms: C4_5  and  O2_6 
REMARK    3  A    between atoms: C11_16  and  N3_17 
REMARK    4  A    between atoms: N3_17  and  C12_18 
ROOT
HETATM    1  C2  UNL     1      27.902   6.812  48.001  1.00  0.00     0.073 A 
HETATM    2  C3  UNL     1      26.625   7.312  47.843  1.00  0.00     0.074 A 
HETATM    3  C4  UNL     1      25.472   6.658  48.202  1.00  0.00     0.081 A 
HETATM    4  C6  UNL     1      25.598   5.393  48.768  1.00  0.00     0.027 A 
HETATM    5  C7  UNL     1      26.865   4.879  48.933  1.00  0.00     0.091 A 
HETATM    6  C8  UNL     1      28.013   5.548  48.568  1.00  0.00     0.074 A 
HETATM    7  O3  UNL     1      27.085   3.605  49.499  1.00  0.00    -0.289 OA
HETATM    8  C9  UNL     1      26.434   3.091  50.634  1.00  0.00     0.202 A 
HETATM    9  N1  UNL     1      27.151   2.233  51.414  1.00  0.00    -0.215 NA
HETATM   10  C10 UNL     1      26.586   1.702  52.526  1.00  0.00     0.238 A 
HETATM   11  N2  UNL     1      25.325   1.996  52.892  1.00  0.00    -0.222 NA
HETATM   12  C11 UNL     1      24.558   2.834  52.171  1.00  0.00     0.160 A 
HETATM   13  C18 UNL     1      25.150   3.362  51.047  1.00  0.00     0.129 A 
HETATM   14  N4  UNL     1      24.211   4.207  50.397  1.00  0.00    -0.379 N 
HETATM   15  C19 UNL     1      24.265   4.837  49.092  1.00  0.00     0.164 C 
HETATM   16  H15 UNL     1      23.333   4.422  50.914  1.00  0.00     0.160 HD
ENDROOT
BRANCH  12  17
HETATM   17  N3  UNL     1      23.261   3.069  52.652  1.00  0.00    -0.339 N 
HETATM   18  H10 UNL     1      22.972   3.957  53.141  1.00  0.00     0.167 HD
BRANCH  17  19
HETATM   19  C12 UNL     1      22.223   2.100  52.525  1.00  0.00     0.035 A 
HETATM   20  C13 UNL     1      21.158   2.238  51.657  1.00  0.00     0.029 A 
HETATM   21  C14 UNL     1      20.180   1.285  51.558  1.00  0.00     0.004 A 
HETATM   22  C15 UNL     1      20.207   0.134  52.324  1.00  0.00     0.019 A 
HETATM   23  C16 UNL     1      21.246  -0.059  53.209  1.00  0.00     0.013 A 
HETATM   24 BR1  UNL     1      21.407  -1.594  54.320  1.00  0.00    -0.051 Br
HETATM   25  C17 UNL     1      22.195   0.933  53.260  1.00  0.00     0.048 A 
ENDBRANCH  17  19
ENDBRANCH  12  17
BRANCH   3  26
HETATM   26  O2  UNL     1      24.195   7.159  48.044  1.00  0.00    -0.355 OA
HETATM   27  C5  UNL     1      23.698   7.855  46.948  1.00  0.00     0.210 C 
ENDBRANCH   3  26
BRANCH   1  28
HETATM   28  O1  UNL     1      29.022   7.521  47.619  1.00  0.00    -0.356 OA
HETATM   29  C1  UNL     1      28.910   8.925  47.509  1.00  0.00     0.210 C 
ENDBRANCH   1  28
TORSDOF 4
ENDMDL
MODEL 9
REMARK VINA RESULT:      -7.3      3.044      5.966
REMARK  4 active torsions:
REMARK  status: ('A' for Active; 'I' for Inactive)
REMARK    1  A    between atoms: O1_2  and  C2_3 
REMARK    2  A    between atoms: C4_5  and  O2_6 
REMARK    3  A    between atoms: C11_16  and  N3_17 
REMARK    4  A    between atoms: N3_17  and  C12_18 
ROOT
HETATM    1  C2  UNL     1      26.232   0.129  54.438  1.00  0.00     0.073 A 
HETATM    2  C3  UNL     1      25.145  -0.717  54.370  1.00  0.00     0.074 A 
HETATM    3  C4  UNL     1      23.967  -0.438  53.721  1.00  0.00     0.081 A 
HETATM    4  C6  UNL     1      23.860   0.794  53.081  1.00  0.00     0.027 A 
HETATM    5  C7  UNL     1      24.936   1.650  53.139  1.00  0.00     0.091 A 
HETATM    6  C8  UNL     1      26.112   1.355  53.794  1.00  0.00     0.074 A 
HETATM    7  O3  UNL     1      24.914   2.918  52.517  1.00  0.00    -0.289 OA
HETATM    8  C9  UNL     1      24.421   3.188  51.230  1.00  0.00     0.202 A 
HETATM    9  N1  UNL     1      25.027   4.197  50.541  1.00  0.00    -0.215 NA
HETATM   10  C10 UNL     1      24.602   4.510  49.293  1.00  0.00     0.238 A 
HETATM   11  N2  UNL     1      23.590   3.851  48.699  1.00  0.00    -0.222 NA
HETATM   12  C11 UNL     1      22.945   2.845  49.319  1.00  0.00     0.160 A 
HETATM   13  C18 UNL     1      23.391   2.543  50.585  1.00  0.00     0.129 A 
HETATM   14  N4  UNL     1      22.602   1.479  51.098  1.00  0.00    -0.379 N 
HETATM   15  C19 UNL     1      22.534   0.927  52.438  1.00  0.00     0.164 C 
HETATM   16  H15 UNL     1      21.960   1.003  50.431  1.00  0.00     0.160 HD
ENDROOT
BRANCH  12  17
HETATM   17  N3  UNL     1      21.909   2.229  48.600  1.00  0.00    -0.339 N 
HETATM   18  H10 UNL     1      22.000   1.288  48.136  1.00  0.00     0.167 HD
BRANCH  17  19
HETATM   19  C12 UNL     1      20.635   2.849  48.433  1.00  0.00     0.035 A 
HETATM   20  C13 UNL     1      20.134   3.232  47.205  1.00  0.00     0.029 A 
HETATM   21  C14 UNL     1      18.905   3.823  47.081  1.00  0.00     0.004 A 
HETATM   22  C15 UNL     1      18.101   4.067  48.179  1.00  0.00     0.019 A 
HETATM   23  C16 UNL     1      18.550   3.706  49.432  1.00  0.00     0.013 A 
HETATM   24 BR1  UNL     1      17.548   3.982  51.024  1.00  0.00    -0.051 Br
HETATM   25  C17 UNL     1      19.790   3.118  49.489  1.00  0.00     0.048 A 
ENDBRANCH  17  19
ENDBRANCH  12  17
BRANCH   3  26
HETATM   26  O2  UNL     1      22.879  -1.285  53.654  1.00  0.00    -0.355 OA
HETATM   27  C5  UNL     1      22.020  -1.630  54.692  1.00  0.00     0.210 C 
ENDBRANCH   3  26
BRANCH   1  28
HETATM   28  O1  UNL     1      27.389  -0.211  55.108  1.00  0.00    -0.356 OA
HETATM   29  C1  UNL     1      28.618   0.240  54.578  1.00  0.00     0.210 C 
ENDBRANCH   1  28
TORSDOF 4
ENDMDL
