MODEL 1
REMARK VINA RESULT:      -8.3      0.000      0.000
REMARK  1 active torsions:
REMARK  status: ('A' for Active; 'I' for Inactive)
REMARK    1  A    between atoms: O1_1  and  C1_2 
ROOT
HETATM    1  C1  UNL     1      24.979   1.728  52.924  1.00  0.00     0.077 C 
HETATM    2  C2  UNL     1      24.454   2.960  52.824  1.00  0.00     0.151 C 
HETATM    3  N1  UNL     1      24.597   3.546  51.522  1.00  0.00    -0.252 NA
HETATM    4  C3  UNL     1      23.733   3.274  50.586  1.00  0.00     0.229 C 
HETATM    5  N2  UNL     1      22.622   2.396  50.815  1.00  0.00    -0.260 N 
HETATM    6  O2  UNL     1      22.414   1.070  50.961  1.00  0.00    -0.270 OA
HETATM    7  C4  UNL     1      22.231   0.294  52.053  1.00  0.00     0.243 C 
HETATM    8  C5  UNL     1      22.922  -0.206  53.149  1.00  0.00     0.028 A 
HETATM    9  C6  UNL     1      21.739  -0.950  53.710  1.00  0.00     0.010 A 
HETATM   10  C7  UNL     1      21.693  -1.693  54.841  1.00  0.00     0.138 A 
HETATM   11  O3  UNL     1      22.904  -1.731  55.509  1.00  0.00    -0.335 OA
HETATM   12  C8  UNL     1      24.005  -1.069  55.033  1.00  0.00     0.146 A 
HETATM   13  C9  UNL     1      24.176  -0.334  53.979  1.00  0.00    -0.027 A 
HETATM   14  C10 UNL     1      25.395   0.392  53.495  1.00  0.00     0.057 A 
HETATM   15  C11 UNL     1      26.298   0.611  54.650  1.00  0.00    -0.005 A 
HETATM   16  C12 UNL     1      27.532   0.203  54.770  1.00  0.00    -0.003 A 
HETATM   17  C13 UNL     1      28.243  -0.563  53.750  1.00  0.00    -0.004 A 
HETATM   18  C14 UNL     1      27.461  -0.783  52.705  1.00  0.00    -0.025 A 
HETATM   19  C15 UNL     1      26.064  -0.398  52.434  1.00  0.00     0.052 A 
HETATM   20  H4  UNL     1      21.739   2.961  50.873  1.00  0.00     0.195 HD
ENDROOT
BRANCH   1  21
HETATM   21  O1  UNL     1      25.242   2.105  51.591  1.00  0.00    -0.362 OA
HETATM   22  H1  UNL     1      24.745   1.621  50.832  1.00  0.00     0.217 HD
ENDBRANCH   1  21
TORSDOF 1
ENDMDL
MODEL 2
REMARK VINA RESULT:      -8.2      2.159      4.312
REMARK  1 active torsions:
REMARK  status: ('A' for Active; 'I' for Inactive)
REMARK    1  A    between atoms: O1_1  and  C1_2 
ROOT
HETATM    1  C1  UNL     1      25.506   0.855  52.303  1.00  0.00     0.077 C 
HETATM    2  C2  UNL     1      26.522   0.031  51.997  1.00  0.00     0.151 C 
HETATM    3  N1  UNL     1      27.786   0.447  52.535  1.00  0.00    -0.252 NA
HETATM    4  C3  UNL     1      28.108   0.131  53.757  1.00  0.00     0.229 C 
HETATM    5  N2  UNL     1      27.231  -0.630  54.599  1.00  0.00    -0.260 N 
HETATM    6  O2  UNL     1      26.084  -0.430  55.283  1.00  0.00    -0.270 OA
HETATM    7  C4  UNL     1      24.797  -0.738  55.009  1.00  0.00     0.243 C 
HETATM    8  C5  UNL     1      23.759  -0.380  54.159  1.00  0.00     0.028 A 
HETATM    9  C6  UNL     1      22.783  -1.372  54.734  1.00  0.00     0.010 A 
HETATM   10  C7  UNL     1      21.503  -1.587  54.348  1.00  0.00     0.138 A 
HETATM   11  O3  UNL     1      21.111  -0.771  53.303  1.00  0.00    -0.335 OA
HETATM   12  C8  UNL     1      21.968   0.145  52.750  1.00  0.00     0.146 A 
HETATM   13  C9  UNL     1      23.200   0.444  53.025  1.00  0.00    -0.027 A 
HETATM   14  C10 UNL     1      24.116   1.444  52.387  1.00  0.00     0.057 A 
HETATM   15  C11 UNL     1      23.620   1.728  51.021  1.00  0.00    -0.005 A 
HETATM   16  C12 UNL     1      23.271   2.890  50.537  1.00  0.00    -0.003 A 
HETATM   17  C13 UNL     1      23.315   4.137  51.295  1.00  0.00    -0.004 A 
HETATM   18  C14 UNL     1      23.748   3.917  52.526  1.00  0.00    -0.025 A 
HETATM   19  C15 UNL     1      24.165   2.678  53.207  1.00  0.00     0.052 A 
HETATM   20  H4  UNL     1      27.609  -1.604  54.703  1.00  0.00     0.195 HD
ENDROOT
BRANCH   1  21
HETATM   21  O1  UNL     1      26.628   1.454  52.912  1.00  0.00    -0.362 OA
HETATM   22  H1  UNL     1      26.946   2.371  52.572  1.00  0.00     0.217 HD
ENDBRANCH   1  21
TORSDOF 1
ENDMDL
MODEL 3
REMARK VINA RESULT:      -7.2      2.327      4.700
REMARK  1 active torsions:
REMARK  status: ('A' for Active; 'I' for Inactive)
REMARK    1  A    between atoms: O1_1  and  C1_2 
ROOT
HETATM    1  C1  UNL     1      23.827   1.339  52.055  1.00  0.00     0.077 C 
HETATM    2  C2  UNL     1      22.646   0.977  51.526  1.00  0.00     0.151 C 
HETATM    3  N1  UNL     1      21.555   1.030  52.457  1.00  0.00    -0.252 NA
HETATM    4  C3  UNL     1      20.935   2.155  52.670  1.00  0.00     0.229 C 
HETATM    5  N2  UNL     1      21.309   3.365  51.996  1.00  0.00    -0.260 N 
HETATM    6  O2  UNL     1      22.313   4.267  52.050  1.00  0.00    -0.270 OA
HETATM    7  C4  UNL     1      23.419   4.440  51.293  1.00  0.00     0.243 C 
HETATM    8  C5  UNL     1      24.645   3.846  51.022  1.00  0.00     0.028 A 
HETATM    9  C6  UNL     1      25.069   4.891  50.025  1.00  0.00     0.010 A 
HETATM   10  C7  UNL     1      26.223   4.936  49.317  1.00  0.00     0.138 A 
HETATM   11  O3  UNL     1      27.062   3.870  49.589  1.00  0.00    -0.335 OA
HETATM   12  C8  UNL     1      26.715   2.898  50.490  1.00  0.00     0.146 A 
HETATM   13  C9  UNL     1      25.655   2.742  51.221  1.00  0.00    -0.027 A 
HETATM   14  C10 UNL     1      25.299   1.653  52.187  1.00  0.00     0.057 A 
HETATM   15  C11 UNL     1      26.092   0.449  51.846  1.00  0.00    -0.005 A 
HETATM   16  C12 UNL     1      26.924  -0.191  52.623  1.00  0.00    -0.003 A 
HETATM   17  C13 UNL     1      27.218   0.197  54.000  1.00  0.00    -0.004 A 
HETATM   18  C14 UNL     1      26.531   1.277  54.335  1.00  0.00    -0.025 A 
HETATM   19  C15 UNL     1      25.574   2.100  53.574  1.00  0.00     0.052 A 
HETATM   20  H4  UNL     1      20.584   3.597  51.272  1.00  0.00     0.195 HD
ENDROOT
BRANCH   1  21
HETATM   21  O1  UNL     1      22.922   1.451  53.130  1.00  0.00    -0.362 OA
HETATM   22  H1  UNL     1      22.077   2.024  53.009  1.00  0.00     0.217 HD
ENDBRANCH   1  21
TORSDOF 1
ENDMDL
MODEL 4
REMARK VINA RESULT:      -7.0      1.719      2.043
REMARK  1 active torsions:
REMARK  status: ('A' for Active; 'I' for Inactive)
REMARK    1  A    between atoms: O1_1  and  C1_2 
ROOT
HETATM    1  C1  UNL     1      24.199   3.399  52.680  1.00  0.00     0.077 C 
HETATM    2  C2  UNL     1      23.580   4.547  52.999  1.00  0.00     0.151 C 
HETATM    3  N1  UNL     1      23.645   5.544  51.968  1.00  0.00    -0.252 NA
HETATM    4  C3  UNL     1      22.779   5.532  50.995  1.00  0.00     0.229 C 
HETATM    5  N2  UNL     1      21.744   4.541  50.915  1.00  0.00    -0.260 N 
HETATM    6  O2  UNL     1      21.641   3.230  50.608  1.00  0.00    -0.270 OA
HETATM    7  C4  UNL     1      21.547   2.123  51.377  1.00  0.00     0.243 C 
HETATM    8  C5  UNL     1      22.302   1.342  52.242  1.00  0.00     0.028 A 
HETATM    9  C6  UNL     1      21.194   0.361  52.520  1.00  0.00     0.010 A 
HETATM   10  C7  UNL     1      21.234  -0.718  53.336  1.00  0.00     0.138 A 
HETATM   11  O3  UNL     1      22.461  -0.881  53.954  1.00  0.00    -0.335 OA
HETATM   12  C8  UNL     1      23.496  -0.011  53.729  1.00  0.00     0.146 A 
HETATM   13  C9  UNL     1      23.584   1.045  52.982  1.00  0.00    -0.027 A 
HETATM   14  C10 UNL     1      24.731   1.986  52.771  1.00  0.00     0.057 A 
HETATM   15  C11 UNL     1      25.644   1.878  53.932  1.00  0.00    -0.005 A 
HETATM   16  C12 UNL     1      26.909   1.554  53.911  1.00  0.00    -0.003 A 
HETATM   17  C13 UNL     1      27.649   1.233  52.693  1.00  0.00    -0.004 A 
HETATM   18  C14 UNL     1      26.859   1.313  51.634  1.00  0.00    -0.025 A 
HETATM   19  C15 UNL     1      25.430   1.653  51.507  1.00  0.00     0.052 A 
HETATM   20  H4  UNL     1      20.823   4.982  51.158  1.00  0.00     0.195 HD
ENDROOT
BRANCH   1  21
HETATM   21  O1  UNL     1      24.398   4.219  51.551  1.00  0.00    -0.362 OA
HETATM   22  H1  UNL     1      24.328   3.800  50.615  1.00  0.00     0.217 HD
ENDBRANCH   1  21
TORSDOF 1
ENDMDL
MODEL 5
REMARK VINA RESULT:      -7.0      2.553      5.454
REMARK  1 active torsions:
REMARK  status: ('A' for Active; 'I' for Inactive)
REMARK    1  A    between atoms: O1_1  and  C1_2 
ROOT
HETATM    1  C1  UNL     1      25.616   2.790  51.194  1.00  0.00     0.077 C 
HETATM    2  C2  UNL     1      26.411   1.772  51.562  1.00  0.00     0.151 C 
HETATM    3  N1  UNL     1      26.767   1.789  52.952  1.00  0.00    -0.252 NA
HETATM    4  C3  UNL     1      25.962   1.272  53.836  1.00  0.00     0.229 C 
HETATM    5  N2  UNL     1      24.712   0.675  53.465  1.00  0.00    -0.260 N 
HETATM    6  O2  UNL     1      23.494   1.088  53.054  1.00  0.00    -0.270 OA
HETATM    7  C4  UNL     1      22.920   1.150  51.832  1.00  0.00     0.243 C 
HETATM    8  C5  UNL     1      23.002   1.852  50.636  1.00  0.00     0.028 A 
HETATM    9  C6  UNL     1      21.890   1.088  49.970  1.00  0.00     0.010 A 
HETATM   10  C7  UNL     1      21.416   1.251  48.711  1.00  0.00     0.138 A 
HETATM   11  O3  UNL     1      22.074   2.248  48.014  1.00  0.00    -0.335 OA
HETATM   12  C8  UNL     1      23.092   2.967  48.583  1.00  0.00     0.146 A 
HETATM   13  C9  UNL     1      23.631   2.909  49.761  1.00  0.00    -0.027 A 
HETATM   14  C10 UNL     1      24.759   3.703  50.347  1.00  0.00     0.057 A 
HETATM   15  C11 UNL     1      25.572   4.250  49.236  1.00  0.00    -0.005 A 
HETATM   16  C12 UNL     1      25.831   5.508  48.997  1.00  0.00    -0.003 A 
HETATM   17  C13 UNL     1      25.340   6.613  49.816  1.00  0.00    -0.004 A 
HETATM   18  C14 UNL     1      24.602   6.158  50.815  1.00  0.00    -0.025 A 
HETATM   19  C15 UNL     1      24.220   4.788  51.202  1.00  0.00     0.052 A 
HETATM   20  H4  UNL     1      24.787  -0.369  53.551  1.00  0.00     0.195 HD
ENDROOT
BRANCH   1  21
HETATM   21  O1  UNL     1      25.844   3.013  52.567  1.00  0.00    -0.362 OA
HETATM   22  H1  UNL     1      25.180   3.598  53.092  1.00  0.00     0.217 HD
ENDBRANCH   1  21
TORSDOF 1
ENDMDL
MODEL 6
REMARK VINA RESULT:      -7.0      3.582      5.537
REMARK  1 active torsions:
REMARK  status: ('A' for Active; 'I' for Inactive)
REMARK    1  A    between atoms: O1_1  and  C1_2 
ROOT
HETATM    1  C1  UNL     1      20.220   0.639  51.704  1.00  0.00     0.077 C 
HETATM    2  C2  UNL     1      19.548   0.574  50.543  1.00  0.00     0.151 C 
HETATM    3  N1  UNL     1      18.135   0.387  50.703  1.00  0.00    -0.252 NA
HETATM    4  C3  UNL     1      17.361   1.413  50.910  1.00  0.00     0.229 C 
HETATM    5  N2  UNL     1      17.879   2.749  50.987  1.00  0.00    -0.260 N 
HETATM    6  O2  UNL     1      18.585   3.496  51.862  1.00  0.00    -0.270 OA
HETATM    7  C4  UNL     1      19.892   3.834  51.921  1.00  0.00     0.243 C 
HETATM    8  C5  UNL     1      21.140   3.277  52.168  1.00  0.00     0.028 A 
HETATM    9  C6  UNL     1      21.891   4.566  51.964  1.00  0.00     0.010 A 
HETATM   10  C7  UNL     1      23.228   4.763  52.044  1.00  0.00     0.138 A 
HETATM   11  O3  UNL     1      23.925   3.608  52.351  1.00  0.00    -0.335 OA
HETATM   12  C8  UNL     1      23.280   2.414  52.544  1.00  0.00     0.146 A 
HETATM   13  C9  UNL     1      22.023   2.098  52.496  1.00  0.00    -0.027 A 
HETATM   14  C10 UNL     1      21.352   0.773  52.697  1.00  0.00     0.057 A 
HETATM   15  C11 UNL     1      22.348  -0.297  52.455  1.00  0.00    -0.005 A 
HETATM   16  C12 UNL     1      22.721  -1.227  53.292  1.00  0.00    -0.003 A 
HETATM   17  C13 UNL     1      22.198  -1.363  54.649  1.00  0.00    -0.004 A 
HETATM   18  C14 UNL     1      21.309  -0.415  54.901  1.00  0.00    -0.025 A 
HETATM   19  C15 UNL     1      20.800   0.691  54.070  1.00  0.00     0.052 A 
HETATM   20  H4  UNL     1      17.620   3.271  50.113  1.00  0.00     0.195 HD
ENDROOT
BRANCH   1  21
HETATM   21  O1  UNL     1      18.880   0.442  52.095  1.00  0.00    -0.362 OA
HETATM   22  H1  UNL     1      18.183   0.209  51.375  1.00  0.00     0.217 HD
ENDBRANCH   1  21
TORSDOF 1
ENDMDL
MODEL 7
REMARK VINA RESULT:      -6.9      3.360      4.807
REMARK  1 active torsions:
REMARK  status: ('A' for Active; 'I' for Inactive)
REMARK    1  A    between atoms: O1_1  and  C1_2 
ROOT
HETATM    1  C1  UNL     1      20.873   2.091  52.403  1.00  0.00     0.077 C 
HETATM    2  C2  UNL     1      20.685   3.420  52.348  1.00  0.00     0.151 C 
HETATM    3  N1  UNL     1      21.716   4.120  51.637  1.00  0.00    -0.252 NA
HETATM    4  C3  UNL     1      21.661   4.219  50.340  1.00  0.00     0.229 C 
HETATM    5  N2  UNL     1      20.588   3.642  49.581  1.00  0.00    -0.260 N 
HETATM    6  O2  UNL     1      20.191   2.411  49.194  1.00  0.00    -0.270 OA
HETATM    7  C4  UNL     1      19.249   1.569  49.673  1.00  0.00     0.243 C 
HETATM    8  C5  UNL     1      18.983   0.757  50.768  1.00  0.00     0.028 A 
HETATM    9  C6  UNL     1      17.652   0.283  50.248  1.00  0.00     0.010 A 
HETATM   10  C7  UNL     1      16.789  -0.571  50.849  1.00  0.00     0.138 A 
HETATM   11  O3  UNL     1      17.243  -1.020  52.076  1.00  0.00    -0.335 OA
HETATM   12  C8  UNL     1      18.448  -0.613  52.586  1.00  0.00     0.146 A 
HETATM   13  C9  UNL     1      19.353   0.189  52.117  1.00  0.00    -0.027 A 
HETATM   14  C10 UNL     1      20.658   0.626  52.711  1.00  0.00     0.057 A 
HETATM   15  C11 UNL     1      20.589   0.437  54.178  1.00  0.00    -0.005 A 
HETATM   16  C12 UNL     1      21.382  -0.295  54.914  1.00  0.00    -0.003 A 
HETATM   17  C13 UNL     1      22.499  -1.073  54.386  1.00  0.00    -0.004 A 
HETATM   18  C14 UNL     1      22.584  -0.932  53.073  1.00  0.00    -0.025 A 
HETATM   19  C15 UNL     1      21.768  -0.158  52.120  1.00  0.00     0.052 A 
HETATM   20  H4  UNL     1      19.956   4.408  49.238  1.00  0.00     0.195 HD
ENDROOT
BRANCH   1  21
HETATM   21  O1  UNL     1      21.990   2.565  51.686  1.00  0.00    -0.362 OA
HETATM   22  H1  UNL     1      21.834   3.082  50.810  1.00  0.00     0.217 HD
ENDBRANCH   1  21
TORSDOF 1
ENDMDL
MODEL 8
REMARK VINA RESULT:      -6.9      2.520      3.369
REMARK  1 active torsions:
REMARK  status: ('A' for Active; 'I' for Inactive)
REMARK    1  A    between atoms: O1_1  and  C1_2 
ROOT
HETATM    1  C1  UNL     1      24.447   4.100  51.490  1.00  0.00     0.077 C 
HETATM    2  C2  UNL     1      23.875   5.314  51.414  1.00  0.00     0.151 C 
HETATM    3  N1  UNL     1      24.543   6.211  50.515  1.00  0.00    -0.252 NA
HETATM    4  C3  UNL     1      24.272   6.178  49.241  1.00  0.00     0.229 C 
HETATM    5  N2  UNL     1      23.314   5.261  48.694  1.00  0.00    -0.260 N 
HETATM    6  O2  UNL     1      23.238   3.940  48.429  1.00  0.00    -0.270 OA
HETATM    7  C4  UNL     1      22.661   2.912  49.090  1.00  0.00     0.243 C 
HETATM    8  C5  UNL     1      22.806   2.156  50.246  1.00  0.00     0.028 A 
HETATM    9  C6  UNL     1      21.609   1.285  49.973  1.00  0.00     0.010 A 
HETATM   10  C7  UNL     1      21.128   0.279  50.742  1.00  0.00     0.138 A 
HETATM   11  O3  UNL     1      21.867   0.083  51.894  1.00  0.00    -0.335 OA
HETATM   12  C8  UNL     1      22.964   0.853  52.181  1.00  0.00     0.146 A 
HETATM   13  C9  UNL     1      23.518   1.832  51.537  1.00  0.00    -0.027 A 
HETATM   14  C10 UNL     1      24.713   2.667  51.889  1.00  0.00     0.057 A 
HETATM   15  C11 UNL     1      24.918   2.593  53.354  1.00  0.00    -0.005 A 
HETATM   16  C12 UNL     1      25.988   2.178  53.977  1.00  0.00    -0.003 A 
HETATM   17  C13 UNL     1      27.193   1.701  53.304  1.00  0.00    -0.004 A 
HETATM   18  C14 UNL     1      27.040   1.746  51.990  1.00  0.00    -0.025 A 
HETATM   19  C15 UNL     1      25.904   2.177  51.155  1.00  0.00     0.052 A 
HETATM   20  H4  UNL     1      22.444   5.787  48.429  1.00  0.00     0.195 HD
ENDROOT
BRANCH   1  21
HETATM   21  O1  UNL     1      25.260   4.805  50.580  1.00  0.00    -0.362 OA
HETATM   22  H1  UNL     1      25.761   5.641  50.907  1.00  0.00     0.217 HD
ENDBRANCH   1  21
TORSDOF 1
ENDMDL
MODEL 9
REMARK VINA RESULT:      -6.8      2.508      4.401
REMARK  1 active torsions:
REMARK  status: ('A' for Active; 'I' for Inactive)
REMARK    1  A    between atoms: O1_1  and  C1_2 
ROOT
HETATM    1  C1  UNL     1      21.627   2.958  51.891  1.00  0.00     0.077 C 
HETATM    2  C2  UNL     1      20.538   3.233  52.628  1.00  0.00     0.151 C 
HETATM    3  N1  UNL     1      19.305   3.123  51.901  1.00  0.00    -0.252 NA
HETATM    4  C3  UNL     1      18.728   1.963  51.768  1.00  0.00     0.229 C 
HETATM    5  N2  UNL     1      19.289   0.770  52.333  1.00  0.00    -0.260 N 
HETATM    6  O2  UNL     1      20.322  -0.062  52.079  1.00  0.00    -0.270 OA
HETATM    7  C4  UNL     1      21.553  -0.175  52.626  1.00  0.00     0.243 C 
HETATM    8  C5  UNL     1      22.768   0.494  52.695  1.00  0.00     0.028 A 
HETATM    9  C6  UNL     1      23.425  -0.537  53.573  1.00  0.00     0.010 A 
HETATM   10  C7  UNL     1      24.686  -0.517  54.066  1.00  0.00     0.138 A 
HETATM   11  O3  UNL     1      25.397   0.605  53.681  1.00  0.00    -0.335 OA
HETATM   12  C8  UNL     1      24.837   1.567  52.882  1.00  0.00     0.146 A 
HETATM   13  C9  UNL     1      23.657   1.665  52.353  1.00  0.00    -0.027 A 
HETATM   14  C10 UNL     1      23.070   2.744  51.494  1.00  0.00     0.057 A 
HETATM   15  C11 UNL     1      23.833   3.992  51.725  1.00  0.00    -0.005 A 
HETATM   16  C12 UNL     1      24.475   4.697  50.832  1.00  0.00    -0.003 A 
HETATM   17  C13 UNL     1      24.544   4.353  49.415  1.00  0.00    -0.004 A 
HETATM   18  C14 UNL     1      23.877   3.235  49.175  1.00  0.00    -0.025 A 
HETATM   19  C15 UNL     1      23.122   2.339  50.069  1.00  0.00     0.052 A 
HETATM   20  H4  UNL     1      18.719   0.479  53.166  1.00  0.00     0.195 HD
ENDROOT
BRANCH   1  21
HETATM   21  O1  UNL     1      20.555   2.805  50.988  1.00  0.00    -0.362 OA
HETATM   22  H1  UNL     1      19.619   2.600  51.360  1.00  0.00     0.217 HD
ENDBRANCH   1  21
TORSDOF 1
ENDMDL
