MODEL 1
REMARK VINA RESULT:      -7.2      0.000      0.000
REMARK  8 active torsions:
REMARK  status: ('A' for Active; 'I' for Inactive)
REMARK    1  A    between atoms: O1_2  and  C2_3 
REMARK    2  A    between atoms: C5_8  and  N3_9 
REMARK    3  A    between atoms: N3_9  and  C6_10 
REMARK    4  A    between atoms: C8_12  and  O2_13 
REMARK    5  A    between atoms: C10_15  and  O3_16 
REMARK    6  A    between atoms: C12_18  and  O4_19 
REMARK    7  A    between atoms: C17_24  and  O5_25 
REMARK    8  A    between atoms: C17_24  and  O6_27 
ROOT
HETATM    1  C2  UNL     1      26.348   1.391  53.944  1.00  0.00     0.142 A 
HETATM    2  C3  UNL     1      25.212   1.871  53.408  1.00  0.00     0.107 A 
HETATM    3  N1  UNL     1      24.773   3.107  53.114  1.00  0.00    -0.238 NA
HETATM    4  C4  UNL     1      23.591   3.398  52.576  1.00  0.00     0.236 A 
HETATM    5  N2  UNL     1      22.784   2.367  52.311  1.00  0.00    -0.224 NA
HETATM    6  C5  UNL     1      23.080   1.087  52.547  1.00  0.00     0.142 A 
HETATM    7  C15 UNL     1      24.321   0.866  53.105  1.00  0.00     0.043 A 
HETATM    8  C16 UNL     1      24.886  -0.281  53.447  1.00  0.00     0.066 A 
HETATM    9  C17 UNL     1      26.269  -0.080  54.031  1.00  0.00     0.237 A 
ENDROOT
BRANCH   6  10
HETATM   10  N3  UNL     1      22.237  -0.016  52.271  1.00  0.00    -0.340 N 
HETATM   11  H5  UNL     1      22.675  -0.967  52.180  1.00  0.00     0.167 HD
BRANCH  10  12
HETATM   12  C6  UNL     1      20.837   0.006  52.099  1.00  0.00     0.039 A 
HETATM   13  C7  UNL     1      19.894  -0.566  52.919  1.00  0.00     0.069 A 
HETATM   14  C8  UNL     1      18.532  -0.538  52.732  1.00  0.00     0.106 A 
HETATM   15  C10 UNL     1      18.046   0.115  51.634  1.00  0.00     0.135 A 
HETATM   16  C12 UNL     1      18.925   0.716  50.761  1.00  0.00     0.106 A 
HETATM   17  C14 UNL     1      20.272   0.647  51.012  1.00  0.00     0.069 A 
BRANCH  14  18
HETATM   18  O2  UNL     1      17.647  -1.142  53.612  1.00  0.00    -0.353 OA
HETATM   19  C9  UNL     1      17.660  -2.556  53.698  1.00  0.00     0.210 C 
ENDBRANCH  14  18
BRANCH  15  20
HETATM   20  O3  UNL     1      16.701   0.190  51.374  1.00  0.00    -0.351 OA
HETATM   21  C11 UNL     1      15.803   1.149  51.844  1.00  0.00     0.210 C 
ENDBRANCH  15  20
BRANCH  16  22
HETATM   22  O4  UNL     1      18.425   1.376  49.650  1.00  0.00    -0.353 OA
HETATM   23  C13 UNL     1      18.459   2.787  49.542  1.00  0.00     0.210 C 
ENDBRANCH  16  22
ENDBRANCH  10  12
ENDBRANCH   6  10
BRANCH   1  24
HETATM   24  O1  UNL     1      27.328   2.343  54.294  1.00  0.00    -0.352 OA
HETATM   25  C1  UNL     1      28.517   2.406  53.568  1.00  0.00     0.210 C 
ENDBRANCH   1  24
BRANCH   9  26
HETATM   26  O5  UNL     1      27.216  -0.673  53.252  1.00  0.00    -0.351 OA
HETATM   27  C18 UNL     1      26.740  -1.772  52.598  1.00  0.00     0.206 C 
ENDBRANCH   9  26
BRANCH   9  28
HETATM   28  O6  UNL     1      26.317  -0.589  55.321  1.00  0.00    -0.351 OA
HETATM   29  C19 UNL     1      25.097  -1.026  55.785  1.00  0.00     0.206 C 
ENDBRANCH   9  28
TORSDOF 8
ENDMDL
MODEL 2
REMARK VINA RESULT:      -7.1      2.095      3.295
REMARK  8 active torsions:
REMARK  status: ('A' for Active; 'I' for Inactive)
REMARK    1  A    between atoms: O1_2  and  C2_3 
REMARK    2  A    between atoms: C5_8  and  N3_9 
REMARK    3  A    between atoms: N3_9  and  C6_10 
REMARK    4  A    between atoms: C8_12  and  O2_13 
REMARK    5  A    between atoms: C10_15  and  O3_16 
REMARK    6  A    between atoms: C12_18  and  O4_19 
REMARK    7  A    between atoms: C17_24  and  O5_25 
REMARK    8  A    between atoms: C17_24  and  O6_27 
ROOT
HETATM    1  C2  UNL     1      26.311  -0.092  54.227  1.00  0.00     0.142 A 
HETATM    2  C3  UNL     1      25.092  -0.566  54.540  1.00  0.00     0.107 A 
HETATM    3  N1  UNL     1      24.578  -1.160  55.632  1.00  0.00    -0.238 NA
HETATM    4  C4  UNL     1      23.320  -1.574  55.765  1.00  0.00     0.236 A 
HETATM    5  N2  UNL     1      22.513  -1.378  54.719  1.00  0.00    -0.224 NA
HETATM    6  C5  UNL     1      22.878  -0.805  53.570  1.00  0.00     0.142 A 
HETATM    7  C15 UNL     1      24.195  -0.402  53.509  1.00  0.00     0.043 A 
HETATM    8  C16 UNL     1      24.839   0.187  52.514  1.00  0.00     0.066 A 
HETATM    9  C17 UNL     1      26.288   0.462  52.860  1.00  0.00     0.237 A 
ENDROOT
BRANCH   6  10
HETATM   10  N3  UNL     1      22.035  -0.590  52.454  1.00  0.00    -0.340 N 
HETATM   11  H5  UNL     1      22.101  -1.257  51.645  1.00  0.00     0.167 HD
BRANCH  10  12
HETATM   12  C6  UNL     1      21.088   0.442  52.289  1.00  0.00     0.039 A 
HETATM   13  C7  UNL     1      19.761   0.301  51.958  1.00  0.00     0.069 A 
HETATM   14  C8  UNL     1      18.852   1.321  51.798  1.00  0.00     0.106 A 
HETATM   15  C10 UNL     1      19.286   2.605  51.980  1.00  0.00     0.135 A 
HETATM   16  C12 UNL     1      20.602   2.833  52.314  1.00  0.00     0.106 A 
HETATM   17  C14 UNL     1      21.452   1.766  52.457  1.00  0.00     0.069 A 
BRANCH  14  18
HETATM   18  O2  UNL     1      17.527   1.092  51.462  1.00  0.00    -0.353 OA
HETATM   19  C9  UNL     1      17.235   0.731  50.125  1.00  0.00     0.210 C 
ENDBRANCH  14  18
BRANCH  15  20
HETATM   20  O3  UNL     1      18.445   3.679  51.840  1.00  0.00    -0.351 OA
HETATM   21  C11 UNL     1      18.137   4.361  50.662  1.00  0.00     0.210 C 
ENDBRANCH  15  20
BRANCH  16  22
HETATM   22  O4  UNL     1      21.035   4.137  52.497  1.00  0.00    -0.353 OA
HETATM   23  C13 UNL     1      21.817   4.807  51.526  1.00  0.00     0.210 C 
ENDBRANCH  16  22
ENDBRANCH  10  12
ENDBRANCH   6  10
BRANCH   1  24
HETATM   24  O1  UNL     1      27.306  -0.215  55.219  1.00  0.00    -0.352 OA
HETATM   25  C1  UNL     1      28.624   0.124  54.917  1.00  0.00     0.210 C 
ENDBRANCH   1  24
BRANCH   9  26
HETATM   26  O5  UNL     1      26.540   1.800  52.863  1.00  0.00    -0.351 OA
HETATM   27  C18 UNL     1      26.788   2.288  51.614  1.00  0.00     0.206 C 
ENDBRANCH   9  26
BRANCH   9  28
HETATM   28  O6  UNL     1      27.120  -0.185  51.957  1.00  0.00    -0.351 OA
HETATM   29  C19 UNL     1      27.039  -1.557  52.020  1.00  0.00     0.206 C 
ENDBRANCH   9  28
TORSDOF 8
ENDMDL
MODEL 3
REMARK VINA RESULT:      -7.1      4.063      7.036
REMARK  8 active torsions:
REMARK  status: ('A' for Active; 'I' for Inactive)
REMARK    1  A    between atoms: O1_2  and  C2_3 
REMARK    2  A    between atoms: C5_8  and  N3_9 
REMARK    3  A    between atoms: N3_9  and  C6_10 
REMARK    4  A    between atoms: C8_12  and  O2_13 
REMARK    5  A    between atoms: C10_15  and  O3_16 
REMARK    6  A    between atoms: C12_18  and  O4_19 
REMARK    7  A    between atoms: C17_24  and  O5_25 
REMARK    8  A    between atoms: C17_24  and  O6_27 
ROOT
HETATM    1  C2  UNL     1      25.661  -0.583  54.219  1.00  0.00     0.142 A 
HETATM    2  C3  UNL     1      24.879   0.151  53.407  1.00  0.00     0.107 A 
HETATM    3  N1  UNL     1      23.552   0.354  53.329  1.00  0.00    -0.238 NA
HETATM    4  C4  UNL     1      22.942   1.131  52.436  1.00  0.00     0.236 A 
HETATM    5  N2  UNL     1      23.725   1.754  51.551  1.00  0.00    -0.224 NA
HETATM    6  C5  UNL     1      25.056   1.650  51.503  1.00  0.00     0.142 A 
HETATM    7  C15 UNL     1      25.613   0.828  52.459  1.00  0.00     0.043 A 
HETATM    8  C16 UNL     1      26.888   0.532  52.660  1.00  0.00     0.066 A 
HETATM    9  C17 UNL     1      27.073  -0.417  53.826  1.00  0.00     0.237 A 
ENDROOT
BRANCH   6  10
HETATM   10  N3  UNL     1      25.898   2.303  50.573  1.00  0.00    -0.340 N 
HETATM   11  H5  UNL     1      26.626   1.732  50.074  1.00  0.00     0.167 HD
BRANCH  10  12
HETATM   12  C6  UNL     1      25.881   3.669  50.223  1.00  0.00     0.039 A 
HETATM   13  C7  UNL     1      24.987   4.621  50.652  1.00  0.00     0.069 A 
HETATM   14  C8  UNL     1      24.983   5.949  50.296  1.00  0.00     0.106 A 
HETATM   15  C10 UNL     1      25.950   6.388  49.435  1.00  0.00     0.135 A 
HETATM   16  C12 UNL     1      26.885   5.497  48.957  1.00  0.00     0.106 A 
HETATM   17  C14 UNL     1      26.827   4.186  49.356  1.00  0.00     0.069 A 
BRANCH  14  18
HETATM   18  O2  UNL     1      24.042   6.847  50.777  1.00  0.00    -0.353 OA
HETATM   19  C9  UNL     1      22.716   6.385  50.952  1.00  0.00     0.210 C 
ENDBRANCH  14  18
BRANCH  15  20
HETATM   20  O3  UNL     1      26.018   7.697  49.029  1.00  0.00    -0.351 OA
HETATM   21  C11 UNL     1      26.585   8.767  49.722  1.00  0.00     0.210 C 
ENDBRANCH  15  20
BRANCH  16  22
HETATM   22  O4  UNL     1      27.862   5.949  48.084  1.00  0.00    -0.353 OA
HETATM   23  C13 UNL     1      29.215   5.553  48.210  1.00  0.00     0.210 C 
ENDBRANCH  16  22
ENDBRANCH  10  12
ENDBRANCH   6  10
BRANCH   1  24
HETATM   24  O1  UNL     1      25.003  -1.319  55.226  1.00  0.00    -0.352 OA
HETATM   25  C1  UNL     1      25.044  -0.871  56.546  1.00  0.00     0.210 C 
ENDBRANCH   1  24
BRANCH   9  26
HETATM   26  O5  UNL     1      27.798   0.170  54.819  1.00  0.00    -0.351 OA
HETATM   27  C18 UNL     1      29.052   0.519  54.413  1.00  0.00     0.206 C 
ENDBRANCH   9  26
BRANCH   9  28
HETATM   28  O6  UNL     1      27.696  -1.580  53.395  1.00  0.00    -0.351 OA
HETATM   29  C19 UNL     1      27.000  -2.246  52.413  1.00  0.00     0.206 C 
ENDBRANCH   9  28
TORSDOF 8
ENDMDL
MODEL 4
REMARK VINA RESULT:      -7.0      0.522      2.432
REMARK  8 active torsions:
REMARK  status: ('A' for Active; 'I' for Inactive)
REMARK    1  A    between atoms: O1_2  and  C2_3 
REMARK    2  A    between atoms: C5_8  and  N3_9 
REMARK    3  A    between atoms: N3_9  and  C6_10 
REMARK    4  A    between atoms: C8_12  and  O2_13 
REMARK    5  A    between atoms: C10_15  and  O3_16 
REMARK    6  A    between atoms: C12_18  and  O4_19 
REMARK    7  A    between atoms: C17_24  and  O5_25 
REMARK    8  A    between atoms: C17_24  and  O6_27 
ROOT
HETATM    1  C2  UNL     1      26.185   1.372  53.763  1.00  0.00     0.142 A 
HETATM    2  C3  UNL     1      25.061   1.913  53.259  1.00  0.00     0.107 A 
HETATM    3  N1  UNL     1      24.632   3.176  53.093  1.00  0.00    -0.238 NA
HETATM    4  C4  UNL     1      23.462   3.529  52.565  1.00  0.00     0.236 A 
HETATM    5  N2  UNL     1      22.658   2.537  52.173  1.00  0.00    -0.224 NA
HETATM    6  C5  UNL     1      22.946   1.237  52.274  1.00  0.00     0.142 A 
HETATM    7  C15 UNL     1      24.175   0.951  52.829  1.00  0.00     0.043 A 
HETATM    8  C16 UNL     1      24.731  -0.229  53.057  1.00  0.00     0.066 A 
HETATM    9  C17 UNL     1      26.102  -0.099  53.687  1.00  0.00     0.237 A 
ENDROOT
BRANCH   6  10
HETATM   10  N3  UNL     1      22.107   0.174  51.863  1.00  0.00    -0.340 N 
HETATM   11  H5  UNL     1      22.550  -0.750  51.633  1.00  0.00     0.167 HD
BRANCH  10  12
HETATM   12  C6  UNL     1      20.704   0.206  51.719  1.00  0.00     0.039 A 
HETATM   13  C7  UNL     1      19.990   0.806  50.709  1.00  0.00     0.069 A 
HETATM   14  C8  UNL     1      18.620   0.830  50.587  1.00  0.00     0.106 A 
HETATM   15  C10 UNL     1      17.877   0.205  51.549  1.00  0.00     0.135 A 
HETATM   16  C12 UNL     1      18.516  -0.422  52.596  1.00  0.00     0.106 A 
HETATM   17  C14 UNL     1      19.886  -0.405  52.652  1.00  0.00     0.069 A 
BRANCH  14  18
HETATM   18  O2  UNL     1      17.977   1.460  49.533  1.00  0.00    -0.353 OA
HETATM   19  C9  UNL     1      17.885   2.872  49.563  1.00  0.00     0.210 C 
ENDBRANCH  14  18
BRANCH  15  20
HETATM   20  O3  UNL     1      16.507   0.181  51.503  1.00  0.00    -0.351 OA
HETATM   21  C11 UNL     1      15.701  -0.729  50.818  1.00  0.00     0.210 C 
ENDBRANCH  15  20
BRANCH  16  22
HETATM   22  O4  UNL     1      17.756  -1.054  53.568  1.00  0.00    -0.353 OA
HETATM   23  C13 UNL     1      17.686  -2.465  53.659  1.00  0.00     0.210 C 
ENDBRANCH  16  22
ENDBRANCH  10  12
ENDBRANCH   6  10
BRANCH   1  24
HETATM   24  O1  UNL     1      27.160   2.276  54.234  1.00  0.00    -0.352 OA
HETATM   25  C1  UNL     1      28.382   2.378  53.570  1.00  0.00     0.210 C 
ENDBRANCH   1  24
BRANCH   9  26
HETATM   26  O5  UNL     1      27.063  -0.608  52.867  1.00  0.00    -0.351 OA
HETATM   27  C18 UNL     1      26.867  -1.929  52.591  1.00  0.00     0.206 C 
ENDBRANCH   9  26
BRANCH   9  28
HETATM   28  O6  UNL     1      26.121  -0.746  54.915  1.00  0.00    -0.351 OA
HETATM   29  C19 UNL     1      24.868  -1.032  55.406  1.00  0.00     0.206 C 
ENDBRANCH   9  28
TORSDOF 8
ENDMDL
MODEL 5
REMARK VINA RESULT:      -7.0      2.108      3.319
REMARK  8 active torsions:
REMARK  status: ('A' for Active; 'I' for Inactive)
REMARK    1  A    between atoms: O1_2  and  C2_3 
REMARK    2  A    between atoms: C5_8  and  N3_9 
REMARK    3  A    between atoms: N3_9  and  C6_10 
REMARK    4  A    between atoms: C8_12  and  O2_13 
REMARK    5  A    between atoms: C10_15  and  O3_16 
REMARK    6  A    between atoms: C12_18  and  O4_19 
REMARK    7  A    between atoms: C17_24  and  O5_25 
REMARK    8  A    between atoms: C17_24  and  O6_27 
ROOT
HETATM    1  C2  UNL     1      27.850   0.746  53.187  1.00  0.00     0.142 A 
HETATM    2  C3  UNL     1      27.084   1.478  52.358  1.00  0.00     0.107 A 
HETATM    3  N1  UNL     1      27.307   2.576  51.615  1.00  0.00    -0.238 NA
HETATM    4  C4  UNL     1      26.409   3.177  50.839  1.00  0.00     0.236 A 
HETATM    5  N2  UNL     1      25.189   2.634  50.804  1.00  0.00    -0.224 NA
HETATM    6  C5  UNL     1      24.818   1.547  51.486  1.00  0.00     0.142 A 
HETATM    7  C15 UNL     1      25.803   0.982  52.267  1.00  0.00     0.043 A 
HETATM    8  C16 UNL     1      25.737  -0.087  53.045  1.00  0.00     0.066 A 
HETATM    9  C17 UNL     1      27.055  -0.370  53.735  1.00  0.00     0.237 A 
ENDROOT
BRANCH   6  10
HETATM   10  N3  UNL     1      23.531   0.960  51.460  1.00  0.00    -0.340 N 
HETATM   11  H5  UNL     1      23.462  -0.082  51.334  1.00  0.00     0.167 HD
BRANCH  10  12
HETATM   12  C6  UNL     1      22.292   1.621  51.585  1.00  0.00     0.039 A 
HETATM   13  C7  UNL     1      22.058   2.969  51.455  1.00  0.00     0.069 A 
HETATM   14  C8  UNL     1      20.841   3.598  51.585  1.00  0.00     0.106 A 
HETATM   15  C10 UNL     1      19.747   2.830  51.871  1.00  0.00     0.135 A 
HETATM   16  C12 UNL     1      19.896   1.469  52.018  1.00  0.00     0.106 A 
HETATM   17  C14 UNL     1      21.141   0.911  51.874  1.00  0.00     0.069 A 
BRANCH  14  18
HETATM   18  O2  UNL     1      20.691   4.968  51.436  1.00  0.00    -0.353 OA
HETATM   19  C9  UNL     1      21.861   5.749  51.276  1.00  0.00     0.210 C 
ENDBRANCH  14  18
BRANCH  15  20
HETATM   20  O3  UNL     1      18.498   3.377  52.017  1.00  0.00    -0.351 OA
HETATM   21  C11 UNL     1      17.580   3.667  51.006  1.00  0.00     0.210 C 
ENDBRANCH  15  20
BRANCH  16  22
HETATM   22  O4  UNL     1      18.782   0.697  52.308  1.00  0.00    -0.353 OA
HETATM   23  C13 UNL     1      18.174  -0.131  51.334  1.00  0.00     0.210 C 
ENDBRANCH  16  22
ENDBRANCH  10  12
ENDBRANCH   6  10
BRANCH   1  24
HETATM   24  O1  UNL     1      29.183   1.174  53.352  1.00  0.00    -0.352 OA
HETATM   25  C1  UNL     1      29.522   1.961  54.452  1.00  0.00     0.210 C 
ENDBRANCH   1  24
BRANCH   9  26
HETATM   26  O5  UNL     1      27.558  -1.574  53.343  1.00  0.00    -0.351 OA
HETATM   27  C18 UNL     1      26.779  -2.186  52.405  1.00  0.00     0.206 C 
ENDBRANCH   9  26
BRANCH   9  28
HETATM   28  O6  UNL     1      26.885  -0.342  55.112  1.00  0.00    -0.351 OA
HETATM   29  C19 UNL     1      25.585  -0.553  55.510  1.00  0.00     0.206 C 
ENDBRANCH   9  28
TORSDOF 8
ENDMDL
MODEL 6
REMARK VINA RESULT:      -6.9      4.718      8.502
REMARK  8 active torsions:
REMARK  status: ('A' for Active; 'I' for Inactive)
REMARK    1  A    between atoms: O1_2  and  C2_3 
REMARK    2  A    between atoms: C5_8  and  N3_9 
REMARK    3  A    between atoms: N3_9  and  C6_10 
REMARK    4  A    between atoms: C8_12  and  O2_13 
REMARK    5  A    between atoms: C10_15  and  O3_16 
REMARK    6  A    between atoms: C12_18  and  O4_19 
REMARK    7  A    between atoms: C17_24  and  O5_25 
REMARK    8  A    between atoms: C17_24  and  O6_27 
ROOT
HETATM    1  C2  UNL     1      23.397   1.288  52.630  1.00  0.00     0.142 A 
HETATM    2  C3  UNL     1      24.699   1.559  52.430  1.00  0.00     0.107 A 
HETATM    3  N1  UNL     1      25.817   1.322  53.139  1.00  0.00    -0.238 NA
HETATM    4  C4  UNL     1      27.048   1.674  52.777  1.00  0.00     0.236 A 
HETATM    5  N2  UNL     1      27.169   2.313  51.611  1.00  0.00    -0.224 NA
HETATM    6  C5  UNL     1      26.154   2.619  50.799  1.00  0.00     0.142 A 
HETATM    7  C15 UNL     1      24.911   2.222  51.242  1.00  0.00     0.043 A 
HETATM    8  C16 UNL     1      23.731   2.383  50.663  1.00  0.00     0.066 A 
HETATM    9  C17 UNL     1      22.607   1.795  51.491  1.00  0.00     0.237 A 
ENDROOT
BRANCH   6  10
HETATM   10  N3  UNL     1      26.266   3.296  49.562  1.00  0.00    -0.340 N 
HETATM   11  H5  UNL     1      26.168   2.736  48.678  1.00  0.00     0.167 HD
BRANCH  10  12
HETATM   12  C6  UNL     1      26.500   4.672  49.363  1.00  0.00     0.039 A 
HETATM   13  C7  UNL     1      25.735   5.716  49.827  1.00  0.00     0.069 A 
HETATM   14  C8  UNL     1      25.977   7.054  49.620  1.00  0.00     0.106 A 
HETATM   15  C10 UNL     1      27.077   7.404  48.887  1.00  0.00     0.135 A 
HETATM   16  C12 UNL     1      27.896   6.418  48.385  1.00  0.00     0.106 A 
HETATM   17  C14 UNL     1      27.592   5.103  48.632  1.00  0.00     0.069 A 
BRANCH  14  18
HETATM   18  O2  UNL     1      25.153   8.047  50.126  1.00  0.00    -0.353 OA
HETATM   19  C9  UNL     1      24.007   7.648  50.856  1.00  0.00     0.210 C 
ENDBRANCH  14  18
BRANCH  15  20
HETATM   20  O3  UNL     1      27.390   8.715  48.634  1.00  0.00    -0.351 OA
HETATM   21  C11 UNL     1      28.036   9.608  49.490  1.00  0.00     0.210 C 
ENDBRANCH  15  20
BRANCH  16  22
HETATM   22  O4  UNL     1      29.009   6.779  47.642  1.00  0.00    -0.353 OA
HETATM   23  C13 UNL     1      30.308   6.793  48.204  1.00  0.00     0.210 C 
ENDBRANCH  16  22
ENDBRANCH  10  12
ENDBRANCH   6  10
BRANCH   1  24
HETATM   24  O1  UNL     1      23.072   0.610  53.824  1.00  0.00    -0.352 OA
HETATM   25  C1  UNL     1      23.022  -0.783  53.832  1.00  0.00     0.210 C 
ENDBRANCH   1  24
BRANCH   9  26
HETATM   26  O5  UNL     1      21.993   0.779  50.823  1.00  0.00    -0.351 OA
HETATM   27  C18 UNL     1      20.713   0.575  51.247  1.00  0.00     0.206 C 
ENDBRANCH   9  26
BRANCH   9  28
HETATM   28  O6  UNL     1      21.690   2.785  51.815  1.00  0.00    -0.351 OA
HETATM   29  C19 UNL     1      21.976   4.006  51.248  1.00  0.00     0.206 C 
ENDBRANCH   9  28
TORSDOF 8
ENDMDL
MODEL 7
REMARK VINA RESULT:      -6.9      4.179      7.325
REMARK  8 active torsions:
REMARK  status: ('A' for Active; 'I' for Inactive)
REMARK    1  A    between atoms: O1_2  and  C2_3 
REMARK    2  A    between atoms: C5_8  and  N3_9 
REMARK    3  A    between atoms: N3_9  and  C6_10 
REMARK    4  A    between atoms: C8_12  and  O2_13 
REMARK    5  A    between atoms: C10_15  and  O3_16 
REMARK    6  A    between atoms: C12_18  and  O4_19 
REMARK    7  A    between atoms: C17_24  and  O5_25 
REMARK    8  A    between atoms: C17_24  and  O6_27 
ROOT
HETATM    1  C2  UNL     1      25.879  -0.526  54.012  1.00  0.00     0.142 A 
HETATM    2  C3  UNL     1      25.139   0.216  53.169  1.00  0.00     0.107 A 
HETATM    3  N1  UNL     1      23.817   0.412  53.018  1.00  0.00    -0.238 NA
HETATM    4  C4  UNL     1      23.254   1.200  52.105  1.00  0.00     0.236 A 
HETATM    5  N2  UNL     1      24.082   1.844  51.278  1.00  0.00    -0.224 NA
HETATM    6  C5  UNL     1      25.413   1.750  51.305  1.00  0.00     0.142 A 
HETATM    7  C15 UNL     1      25.922   0.916  52.278  1.00  0.00     0.043 A 
HETATM    8  C16 UNL     1      27.185   0.624  52.546  1.00  0.00     0.066 A 
HETATM    9  C17 UNL     1      27.310  -0.344  53.705  1.00  0.00     0.237 A 
ENDROOT
BRANCH   6  10
HETATM   10  N3  UNL     1      26.303   2.425  50.437  1.00  0.00    -0.340 N 
HETATM   11  H5  UNL     1      27.108   1.885  50.031  1.00  0.00     0.167 HD
BRANCH  10  12
HETATM   12  C6  UNL     1      26.240   3.776  50.037  1.00  0.00     0.039 A 
HETATM   13  C7  UNL     1      27.064   4.412  49.138  1.00  0.00     0.069 A 
HETATM   14  C8  UNL     1      26.990   5.733  48.763  1.00  0.00     0.106 A 
HETATM   15  C10 UNL     1      26.013   6.508  49.324  1.00  0.00     0.135 A 
HETATM   16  C12 UNL     1      25.145   5.948  50.234  1.00  0.00     0.106 A 
HETATM   17  C14 UNL     1      25.279   4.622  50.561  1.00  0.00     0.069 A 
BRANCH  14  18
HETATM   18  O2  UNL     1      27.863   6.297  47.846  1.00  0.00    -0.353 OA
HETATM   19  C9  UNL     1      29.245   6.280  48.151  1.00  0.00     0.210 C 
ENDBRANCH  14  18
BRANCH  15  20
HETATM   20  O3  UNL     1      25.869   7.834  49.005  1.00  0.00    -0.351 OA
HETATM   21  C11 UNL     1      26.494   8.921  49.617  1.00  0.00     0.210 C 
ENDBRANCH  15  20
BRANCH  16  22
HETATM   22  O4  UNL     1      24.157   6.739  50.798  1.00  0.00    -0.353 OA
HETATM   23  C13 UNL     1      22.803   6.641  50.397  1.00  0.00     0.210 C 
ENDBRANCH  16  22
ENDBRANCH  10  12
ENDBRANCH   6  10
BRANCH   1  24
HETATM   24  O1  UNL     1      25.169  -1.285  54.967  1.00  0.00    -0.352 OA
HETATM   25  C1  UNL     1      25.029  -0.799  56.266  1.00  0.00     0.210 C 
ENDBRANCH   1  24
BRANCH   9  26
HETATM   26  O5  UNL     1      27.971   0.231  54.747  1.00  0.00    -0.351 OA
HETATM   27  C18 UNL     1      29.149   0.804  54.367  1.00  0.00     0.206 C 
ENDBRANCH   9  26
BRANCH   9  28
HETATM   28  O6  UNL     1      27.966  -1.495  53.290  1.00  0.00    -0.351 OA
HETATM   29  C19 UNL     1      27.187  -2.324  52.518  1.00  0.00     0.206 C 
ENDBRANCH   9  28
TORSDOF 8
ENDMDL
MODEL 8
REMARK VINA RESULT:      -6.8      3.575      5.665
REMARK  8 active torsions:
REMARK  status: ('A' for Active; 'I' for Inactive)
REMARK    1  A    between atoms: O1_2  and  C2_3 
REMARK    2  A    between atoms: C5_8  and  N3_9 
REMARK    3  A    between atoms: N3_9  and  C6_10 
REMARK    4  A    between atoms: C8_12  and  O2_13 
REMARK    5  A    between atoms: C10_15  and  O3_16 
REMARK    6  A    between atoms: C12_18  and  O4_19 
REMARK    7  A    between atoms: C17_24  and  O5_25 
REMARK    8  A    between atoms: C17_24  and  O6_27 
ROOT
HETATM    1  C2  UNL     1      26.091   0.349  53.355  1.00  0.00     0.142 A 
HETATM    2  C3  UNL     1      24.747   0.296  53.313  1.00  0.00     0.107 A 
HETATM    3  N1  UNL     1      23.849  -0.679  53.541  1.00  0.00    -0.238 NA
HETATM    4  C4  UNL     1      22.528  -0.546  53.447  1.00  0.00     0.236 A 
HETATM    5  N2  UNL     1      22.071   0.659  53.096  1.00  0.00    -0.224 NA
HETATM    6  C5  UNL     1      22.839   1.721  52.838  1.00  0.00     0.142 A 
HETATM    7  C15 UNL     1      24.195   1.505  52.957  1.00  0.00     0.043 A 
HETATM    8  C16 UNL     1      25.192   2.355  52.766  1.00  0.00     0.066 A 
HETATM    9  C17 UNL     1      26.541   1.710  53.003  1.00  0.00     0.237 A 
ENDROOT
BRANCH   6  10
HETATM   10  N3  UNL     1      22.370   3.003  52.466  1.00  0.00    -0.340 N 
HETATM   11  H5  UNL     1      21.772   3.532  53.150  1.00  0.00     0.167 HD
BRANCH  10  12
HETATM   12  C6  UNL     1      22.615   3.679  51.253  1.00  0.00     0.039 A 
HETATM   13  C7  UNL     1      22.376   3.209  49.982  1.00  0.00     0.069 A 
HETATM   14  C8  UNL     1      22.626   3.882  48.809  1.00  0.00     0.106 A 
HETATM   15  C10 UNL     1      23.160   5.138  48.887  1.00  0.00     0.135 A 
HETATM   16  C12 UNL     1      23.429   5.682  50.123  1.00  0.00     0.106 A 
HETATM   17  C14 UNL     1      23.154   4.952  51.252  1.00  0.00     0.069 A 
BRANCH  14  18
HETATM   18  O2  UNL     1      22.354   3.334  47.565  1.00  0.00    -0.353 OA
HETATM   19  C9  UNL     1      20.999   3.238  47.165  1.00  0.00     0.210 C 
ENDBRANCH  14  18
BRANCH  15  20
HETATM   20  O3  UNL     1      23.438   5.876  47.766  1.00  0.00    -0.351 OA
HETATM   21  C11 UNL     1      22.561   6.699  47.058  1.00  0.00     0.210 C 
ENDBRANCH  15  20
BRANCH  16  22
HETATM   22  O4  UNL     1      23.971   6.956  50.195  1.00  0.00    -0.353 OA
HETATM   23  C13 UNL     1      25.349   7.168  50.435  1.00  0.00     0.210 C 
ENDBRANCH  16  22
ENDBRANCH  10  12
ENDBRANCH   6  10
BRANCH   1  24
HETATM   24  O1  UNL     1      26.756  -0.843  53.708  1.00  0.00    -0.352 OA
HETATM   25  C1  UNL     1      27.103  -1.758  52.715  1.00  0.00     0.210 C 
ENDBRANCH   1  24
BRANCH   9  26
HETATM   26  O5  UNL     1      27.186   2.303  54.046  1.00  0.00    -0.351 OA
HETATM   27  C18 UNL     1      28.536   2.360  53.860  1.00  0.00     0.206 C 
ENDBRANCH   9  26
BRANCH   9  28
HETATM   28  O6  UNL     1      27.311   1.787  51.851  1.00  0.00    -0.351 OA
HETATM   29  C19 UNL     1      26.688   2.445  50.815  1.00  0.00     0.206 C 
ENDBRANCH   9  28
TORSDOF 8
ENDMDL
MODEL 9
REMARK VINA RESULT:      -6.7      3.506      5.765
REMARK  8 active torsions:
REMARK  status: ('A' for Active; 'I' for Inactive)
REMARK    1  A    between atoms: O1_2  and  C2_3 
REMARK    2  A    between atoms: C5_8  and  N3_9 
REMARK    3  A    between atoms: N3_9  and  C6_10 
REMARK    4  A    between atoms: C8_12  and  O2_13 
REMARK    5  A    between atoms: C10_15  and  O3_16 
REMARK    6  A    between atoms: C12_18  and  O4_19 
REMARK    7  A    between atoms: C17_24  and  O5_25 
REMARK    8  A    between atoms: C17_24  and  O6_27 
ROOT
HETATM    1  C2  UNL     1      25.798   0.017  53.331  1.00  0.00     0.142 A 
HETATM    2  C3  UNL     1      24.457   0.071  53.251  1.00  0.00     0.107 A 
HETATM    3  N1  UNL     1      23.481  -0.846  53.372  1.00  0.00    -0.238 NA
HETATM    4  C4  UNL     1      22.177  -0.604  53.257  1.00  0.00     0.236 A 
HETATM    5  N2  UNL     1      21.823   0.658  53.000  1.00  0.00    -0.224 NA
HETATM    6  C5  UNL     1      22.676   1.675  52.853  1.00  0.00     0.142 A 
HETATM    7  C15 UNL     1      24.008   1.345  52.986  1.00  0.00     0.043 A 
HETATM    8  C16 UNL     1      25.072   2.128  52.894  1.00  0.00     0.066 A 
HETATM    9  C17 UNL     1      26.361   1.363  53.109  1.00  0.00     0.237 A 
ENDROOT
BRANCH   6  10
HETATM   10  N3  UNL     1      22.317   3.016  52.581  1.00  0.00    -0.340 N 
HETATM   11  H5  UNL     1      21.736   3.529  53.290  1.00  0.00     0.167 HD
BRANCH  10  12
HETATM   12  C6  UNL     1      22.654   3.771  51.438  1.00  0.00     0.039 A 
HETATM   13  C7  UNL     1      23.151   5.053  51.412  1.00  0.00     0.069 A 
HETATM   14  C8  UNL     1      23.470   5.776  50.287  1.00  0.00     0.106 A 
HETATM   15  C10 UNL     1      23.285   5.186  49.067  1.00  0.00     0.135 A 
HETATM   16  C12 UNL     1      22.790   3.903  49.006  1.00  0.00     0.106 A 
HETATM   17  C14 UNL     1      22.493   3.241  50.171  1.00  0.00     0.069 A 
BRANCH  14  18
HETATM   18  O2  UNL     1      23.969   7.068  50.348  1.00  0.00    -0.353 OA
HETATM   19  C9  UNL     1      25.370   7.231  50.472  1.00  0.00     0.210 C 
ENDBRANCH  14  18
BRANCH  15  20
HETATM   20  O3  UNL     1      23.578   5.837  47.896  1.00  0.00    -0.351 OA
HETATM   21  C11 UNL     1      22.741   6.685  47.170  1.00  0.00     0.210 C 
ENDBRANCH  15  20
BRANCH  16  22
HETATM   22  O4  UNL     1      22.604   3.311  47.766  1.00  0.00    -0.353 OA
HETATM   23  C13 UNL     1      22.273   1.941  47.636  1.00  0.00     0.210 C 
ENDBRANCH  16  22
ENDBRANCH  10  12
ENDBRANCH   6  10
BRANCH   1  24
HETATM   24  O1  UNL     1      26.361  -1.249  53.598  1.00  0.00    -0.352 OA
HETATM   25  C1  UNL     1      26.939  -1.978  52.559  1.00  0.00     0.210 C 
ENDBRANCH   1  24
BRANCH   9  26
HETATM   26  O5  UNL     1      27.015   1.815  54.214  1.00  0.00    -0.351 OA
HETATM   27  C18 UNL     1      28.344   1.508  54.196  1.00  0.00     0.206 C 
ENDBRANCH   9  26
BRANCH   9  28
HETATM   28  O6  UNL     1      27.170   1.476  51.987  1.00  0.00    -0.351 OA
HETATM   29  C19 UNL     1      26.712   2.392  51.068  1.00  0.00     0.206 C 
ENDBRANCH   9  28
TORSDOF 8
ENDMDL
