MODEL 1
REMARK VINA RESULT:      -9.0      0.000      0.000
REMARK  2 active torsions:
REMARK  status: ('A' for Active; 'I' for Inactive)
REMARK    1  A    between atoms: N1_1  and  C1_2 
REMARK    2  A    between atoms: C6_9  and  C7_10 
ROOT
HETATM    1  C1  UNL     1      26.988   0.309  54.688  1.00  0.00     0.136 A 
HETATM    2  N2  UNL     1      28.298   0.490  54.865  1.00  0.00    -0.224 NA
HETATM    3  C2  UNL     1      29.018   1.299  54.066  1.00  0.00     0.237 A 
HETATM    4  N3  UNL     1      28.524   2.015  53.009  1.00  0.00    -0.223 NA
HETATM    5  C3  UNL     1      27.183   1.843  52.809  1.00  0.00     0.143 A 
HETATM    6  C4  UNL     1      26.398   0.999  53.632  1.00  0.00     0.056 A 
HETATM    7  C5  UNL     1      24.945   0.788  53.403  1.00  0.00     0.028 C 
HETATM    8  C6  UNL     1      23.948   1.563  52.944  1.00  0.00    -0.033 C 
HETATM    9  C13 UNL     1      24.253   2.952  52.638  1.00  0.00     0.092 A 
HETATM   10  C14 UNL     1      23.203   3.799  52.116  1.00  0.00    -0.011 A 
HETATM   11  C15 UNL     1      23.635   4.417  50.997  1.00  0.00    -0.001 A 
HETATM   12  C16 UNL     1      25.030   4.009  50.716  1.00  0.00     0.026 A 
HETATM   13  C17 UNL     1      25.395   3.155  51.679  1.00  0.00     0.023 A 
HETATM   14  N4  UNL     1      26.746   2.637  51.676  1.00  0.00    -0.343 N 
HETATM   15  H14 UNL     1      27.417   2.806  50.921  1.00  0.00     0.167 HD
ENDROOT
BRANCH   8  16
HETATM   16  C7  UNL     1      22.699   0.850  52.913  1.00  0.00    -0.029 A 
HETATM   17  C8  UNL     1      21.970   0.724  51.772  1.00  0.00     0.012 A 
HETATM   18  C9  UNL     1      20.750   0.101  51.708  1.00  0.00     0.001 A 
HETATM   19  C10 UNL     1      20.152  -0.462  52.843  1.00  0.00     0.000 A 
HETATM   20  C11 UNL     1      20.853  -0.363  54.036  1.00  0.00     0.001 A 
HETATM   21  C12 UNL     1      22.069   0.281  53.996  1.00  0.00     0.012 A 
ENDBRANCH   8  16
BRANCH   1  22
HETATM   22  N1  UNL     1      26.072  -0.486  55.407  1.00  0.00    -0.383 N 
HETATM   23  H1  UNL     1      25.786  -0.369  56.423  1.00  0.00     0.157 HD
HETATM   24  H2  UNL     1      25.744  -1.207  54.721  1.00  0.00     0.157 HD
ENDBRANCH   1  22
TORSDOF 2
ENDMDL
MODEL 2
REMARK VINA RESULT:      -9.0      1.380      3.827
REMARK  2 active torsions:
REMARK  status: ('A' for Active; 'I' for Inactive)
REMARK    1  A    between atoms: N1_1  and  C1_2 
REMARK    2  A    between atoms: C6_9  and  C7_10 
ROOT
HETATM    1  C1  UNL     1      27.577   1.794  52.851  1.00  0.00     0.136 A 
HETATM    2  N2  UNL     1      28.791   1.370  53.204  1.00  0.00    -0.224 NA
HETATM    3  C2  UNL     1      28.970   0.440  54.160  1.00  0.00     0.237 A 
HETATM    4  N3  UNL     1      27.971  -0.170  54.870  1.00  0.00    -0.223 NA
HETATM    5  C3  UNL     1      26.717   0.250  54.524  1.00  0.00     0.143 A 
HETATM    6  C4  UNL     1      26.497   1.227  53.522  1.00  0.00     0.056 A 
HETATM    7  C5  UNL     1      25.137   1.707  53.162  1.00  0.00     0.028 C 
HETATM    8  C6  UNL     1      23.923   1.133  53.118  1.00  0.00    -0.033 C 
HETATM    9  C13 UNL     1      23.832  -0.288  53.413  1.00  0.00     0.092 A 
HETATM   10  C14 UNL     1      22.533  -0.923  53.400  1.00  0.00    -0.011 A 
HETATM   11  C15 UNL     1      22.355  -1.612  54.547  1.00  0.00    -0.001 A 
HETATM   12  C16 UNL     1      23.558  -1.473  55.397  1.00  0.00     0.026 A 
HETATM   13  C17 UNL     1      24.427  -0.703  54.732  1.00  0.00     0.023 A 
HETATM   14  N4  UNL     1      25.724  -0.448  55.319  1.00  0.00    -0.343 N 
HETATM   15  H14 UNL     1      25.986  -0.740  56.266  1.00  0.00     0.167 HD
ENDROOT
BRANCH   8  16
HETATM   16  C7  UNL     1      22.913   2.068  52.698  1.00  0.00    -0.029 A 
HETATM   17  C8  UNL     1      23.216   3.346  52.350  1.00  0.00     0.012 A 
HETATM   18  C9  UNL     1      22.280   4.285  51.997  1.00  0.00     0.001 A 
HETATM   19  C10 UNL     1      20.912   3.985  51.970  1.00  0.00     0.000 A 
HETATM   20  C11 UNL     1      20.546   2.694  52.316  1.00  0.00     0.001 A 
HETATM   21  C12 UNL     1      21.559   1.825  52.656  1.00  0.00     0.012 A 
ENDBRANCH   8  16
BRANCH   1  22
HETATM   22  N1  UNL     1      27.188   2.747  51.887  1.00  0.00    -0.383 N 
HETATM   23  H1  UNL     1      26.514   2.600  51.080  1.00  0.00     0.157 HD
HETATM   24  H2  UNL     1      27.709   3.620  52.145  1.00  0.00     0.157 HD
ENDBRANCH   1  22
TORSDOF 2
ENDMDL
MODEL 3
REMARK VINA RESULT:      -9.0      2.333      5.727
REMARK  2 active torsions:
REMARK  status: ('A' for Active; 'I' for Inactive)
REMARK    1  A    between atoms: N1_1  and  C1_2 
REMARK    2  A    between atoms: C6_9  and  C7_10 
ROOT
HETATM    1  C1  UNL     1      25.396   3.535  50.629  1.00  0.00     0.136 A 
HETATM    2  N2  UNL     1      24.597   4.457  50.090  1.00  0.00    -0.224 NA
HETATM    3  C2  UNL     1      23.266   4.279  49.996  1.00  0.00     0.237 A 
HETATM    4  N3  UNL     1      22.582   3.174  50.425  1.00  0.00    -0.223 NA
HETATM    5  C3  UNL     1      23.382   2.215  50.982  1.00  0.00     0.143 A 
HETATM    6  C4  UNL     1      24.785   2.373  51.093  1.00  0.00     0.056 A 
HETATM    7  C5  UNL     1      25.662   1.323  51.673  1.00  0.00     0.028 C 
HETATM    8  C6  UNL     1      25.510   0.408  52.645  1.00  0.00    -0.033 C 
HETATM    9  C13 UNL     1      24.263   0.414  53.395  1.00  0.00     0.092 A 
HETATM   10  C14 UNL     1      24.065  -0.579  54.428  1.00  0.00    -0.011 A 
HETATM   11  C15 UNL     1      22.879  -1.195  54.239  1.00  0.00    -0.001 A 
HETATM   12  C16 UNL     1      22.210  -0.624  53.048  1.00  0.00     0.026 A 
HETATM   13  C17 UNL     1      23.017   0.322  52.556  1.00  0.00     0.023 A 
HETATM   14  N4  UNL     1      22.577   1.086  51.409  1.00  0.00    -0.343 N 
HETATM   15  H14 UNL     1      21.722   0.879  50.883  1.00  0.00     0.167 HD
ENDROOT
BRANCH   8  16
HETATM   16  C7  UNL     1      26.696  -0.390  52.808  1.00  0.00    -0.029 A 
HETATM   17  C8  UNL     1      26.723  -1.713  52.496  1.00  0.00     0.012 A 
HETATM   18  C9  UNL     1      27.814  -2.522  52.686  1.00  0.00     0.001 A 
HETATM   19  C10 UNL     1      29.007  -2.030  53.231  1.00  0.00     0.000 A 
HETATM   20  C11 UNL     1      29.036  -0.686  53.567  1.00  0.00     0.001 A 
HETATM   21  C12 UNL     1      27.890   0.042  53.338  1.00  0.00     0.012 A 
ENDBRANCH   8  16
BRANCH   1  22
HETATM   22  N1  UNL     1      26.793   3.535  50.814  1.00  0.00    -0.383 N 
HETATM   23  H1  UNL     1      27.315   3.460  51.736  1.00  0.00     0.157 HD
HETATM   24  H2  UNL     1      27.193   3.626  49.849  1.00  0.00     0.157 HD
ENDBRANCH   1  22
TORSDOF 2
ENDMDL
MODEL 4
REMARK VINA RESULT:      -8.8      1.958      4.354
REMARK  2 active torsions:
REMARK  status: ('A' for Active; 'I' for Inactive)
REMARK    1  A    between atoms: N1_1  and  C1_2 
REMARK    2  A    between atoms: C6_9  and  C7_10 
ROOT
HETATM    1  C1  UNL     1      23.767   3.185  49.868  1.00  0.00     0.136 A 
HETATM    2  N2  UNL     1      24.240   4.141  49.068  1.00  0.00    -0.224 NA
HETATM    3  C2  UNL     1      25.497   4.607  49.182  1.00  0.00     0.237 A 
HETATM    4  N3  UNL     1      26.421   4.179  50.096  1.00  0.00    -0.223 NA
HETATM    5  C3  UNL     1      25.958   3.199  50.927  1.00  0.00     0.143 A 
HETATM    6  C4  UNL     1      24.640   2.688  50.833  1.00  0.00     0.056 A 
HETATM    7  C5  UNL     1      24.122   1.641  51.752  1.00  0.00     0.028 C 
HETATM    8  C6  UNL     1      24.675   0.587  52.376  1.00  0.00    -0.033 C 
HETATM    9  C13 UNL     1      26.071   0.291  52.101  1.00  0.00     0.092 A 
HETATM   10  C14 UNL     1      26.696  -0.822  52.783  1.00  0.00    -0.011 A 
HETATM   11  C15 UNL     1      27.849  -0.412  53.352  1.00  0.00    -0.001 A 
HETATM   12  C16 UNL     1      28.058   1.025  53.065  1.00  0.00     0.026 A 
HETATM   13  C17 UNL     1      27.021   1.437  52.328  1.00  0.00     0.023 A 
HETATM   14  N4  UNL     1      26.999   2.805  51.858  1.00  0.00    -0.343 N 
HETATM   15  H14 UNL     1      27.684   3.513  52.139  1.00  0.00     0.167 HD
ENDROOT
BRANCH   8  16
HETATM   16  C7  UNL     1      23.708  -0.116  53.177  1.00  0.00    -0.029 A 
HETATM   17  C8  UNL     1      22.415  -0.259  52.785  1.00  0.00     0.012 A 
HETATM   18  C9  UNL     1      21.449  -0.874  53.540  1.00  0.00     0.001 A 
HETATM   19  C10 UNL     1      21.735  -1.410  54.802  1.00  0.00     0.000 A 
HETATM   20  C11 UNL     1      23.041  -1.294  55.253  1.00  0.00     0.001 A 
HETATM   21  C12 UNL     1      23.936  -0.659  54.421  1.00  0.00     0.012 A 
ENDBRANCH   8  16
BRANCH   1  22
HETATM   22  N1  UNL     1      22.497   2.573  49.907  1.00  0.00    -0.383 N 
HETATM   23  H1  UNL     1      21.570   3.007  49.625  1.00  0.00     0.157 HD
HETATM   24  H2  UNL     1      22.674   1.606  50.272  1.00  0.00     0.157 HD
ENDBRANCH   1  22
TORSDOF 2
ENDMDL
MODEL 5
REMARK VINA RESULT:      -8.6      2.401      5.410
REMARK  2 active torsions:
REMARK  status: ('A' for Active; 'I' for Inactive)
REMARK    1  A    between atoms: N1_1  and  C1_2 
REMARK    2  A    between atoms: C6_9  and  C7_10 
ROOT
HETATM    1  C1  UNL     1      22.261   0.692  53.364  1.00  0.00     0.136 A 
HETATM    2  N2  UNL     1      20.947   0.903  53.276  1.00  0.00    -0.224 NA
HETATM    3  C2  UNL     1      20.442   2.010  52.700  1.00  0.00     0.237 A 
HETATM    4  N3  UNL     1      21.178   3.025  52.151  1.00  0.00    -0.223 NA
HETATM    5  C3  UNL     1      22.528   2.829  52.231  1.00  0.00     0.143 A 
HETATM    6  C4  UNL     1      23.090   1.676  52.831  1.00  0.00     0.056 A 
HETATM    7  C5  UNL     1      24.558   1.471  52.945  1.00  0.00     0.028 C 
HETATM    8  C6  UNL     1      25.611   1.802  52.180  1.00  0.00    -0.033 C 
HETATM    9  C13 UNL     1      25.348   2.455  50.907  1.00  0.00     0.092 A 
HETATM   10  C14 UNL     1      26.467   2.846  50.078  1.00  0.00    -0.011 A 
HETATM   11  C15 UNL     1      26.333   4.141  49.722  1.00  0.00    -0.001 A 
HETATM   12  C16 UNL     1      25.085   4.686  50.303  1.00  0.00     0.026 A 
HETATM   13  C17 UNL     1      24.505   3.698  50.992  1.00  0.00     0.023 A 
HETATM   14  N4  UNL     1      23.227   3.946  51.625  1.00  0.00    -0.343 N 
HETATM   15  H14 UNL     1      22.782   4.869  51.663  1.00  0.00     0.167 HD
ENDROOT
BRANCH   8  16
HETATM   16  C7  UNL     1      26.848   1.361  52.767  1.00  0.00    -0.029 A 
HETATM   17  C8  UNL     1      27.723   2.229  53.342  1.00  0.00     0.012 A 
HETATM   18  C9  UNL     1      28.936   1.860  53.864  1.00  0.00     0.001 A 
HETATM   19  C10 UNL     1      29.371   0.529  53.840  1.00  0.00     0.000 A 
HETATM   20  C11 UNL     1      28.518  -0.401  53.265  1.00  0.00     0.001 A 
HETATM   21  C12 UNL     1      27.323   0.069  52.769  1.00  0.00     0.012 A 
ENDBRANCH   8  16
BRANCH   1  22
HETATM   22  N1  UNL     1      22.976  -0.387  53.923  1.00  0.00    -0.383 N 
HETATM   23  H1  UNL     1      23.989  -0.387  54.241  1.00  0.00     0.157 HD
HETATM   24  H2  UNL     1      22.289  -1.179  53.952  1.00  0.00     0.157 HD
ENDBRANCH   1  22
TORSDOF 2
ENDMDL
MODEL 6
REMARK VINA RESULT:      -8.1      1.352      2.084
REMARK  2 active torsions:
REMARK  status: ('A' for Active; 'I' for Inactive)
REMARK    1  A    between atoms: N1_1  and  C1_2 
REMARK    2  A    between atoms: C6_9  and  C7_10 
ROOT
HETATM    1  C1  UNL     1      25.475  -0.306  54.268  1.00  0.00     0.136 A 
HETATM    2  N2  UNL     1      26.620  -0.527  54.916  1.00  0.00    -0.224 NA
HETATM    3  C2  UNL     1      27.788  -0.011  54.491  1.00  0.00     0.237 A 
HETATM    4  N3  UNL     1      27.952   0.777  53.384  1.00  0.00    -0.223 NA
HETATM    5  C3  UNL     1      26.790   1.015  52.704  1.00  0.00     0.143 A 
HETATM    6  C4  UNL     1      25.546   0.486  53.125  1.00  0.00     0.056 A 
HETATM    7  C5  UNL     1      24.284   0.720  52.374  1.00  0.00     0.028 C 
HETATM    8  C6  UNL     1      23.804   1.743  51.647  1.00  0.00    -0.033 C 
HETATM    9  C13 UNL     1      24.600   2.958  51.575  1.00  0.00     0.092 A 
HETATM   10  C14 UNL     1      24.118   4.063  50.776  1.00  0.00    -0.011 A 
HETATM   11  C15 UNL     1      25.092   4.472  49.936  1.00  0.00    -0.001 A 
HETATM   12  C16 UNL     1      26.302   3.646  50.145  1.00  0.00     0.026 A 
HETATM   13  C17 UNL     1      26.018   2.763  51.108  1.00  0.00     0.023 A 
HETATM   14  N4  UNL     1      27.055   1.857  51.552  1.00  0.00    -0.343 N 
HETATM   15  H14 UNL     1      27.972   1.781  51.102  1.00  0.00     0.167 HD
ENDROOT
BRANCH   8  16
HETATM   16  C7  UNL     1      22.501   1.446  51.117  1.00  0.00    -0.029 A 
HETATM   17  C8  UNL     1      21.473   1.047  51.912  1.00  0.00     0.012 A 
HETATM   18  C9  UNL     1      20.231   0.701  51.443  1.00  0.00     0.001 A 
HETATM   19  C10 UNL     1      19.928   0.734  50.076  1.00  0.00     0.000 A 
HETATM   20  C11 UNL     1      20.940   1.135  49.217  1.00  0.00     0.001 A 
HETATM   21  C12 UNL     1      22.151   1.461  49.785  1.00  0.00     0.012 A 
ENDBRANCH   8  16
BRANCH   1  22
HETATM   22  N1  UNL     1      24.168  -0.752  54.549  1.00  0.00    -0.383 N 
HETATM   23  H1  UNL     1      23.800  -1.108  55.480  1.00  0.00     0.157 HD
HETATM   24  H2  UNL     1      23.648  -0.655  53.643  1.00  0.00     0.157 HD
ENDBRANCH   1  22
TORSDOF 2
ENDMDL
MODEL 7
REMARK VINA RESULT:      -7.8      4.066      6.792
REMARK  2 active torsions:
REMARK  status: ('A' for Active; 'I' for Inactive)
REMARK    1  A    between atoms: N1_1  and  C1_2 
REMARK    2  A    between atoms: C6_9  and  C7_10 
ROOT
HETATM    1  C1  UNL     1      19.072  -1.166  53.461  1.00  0.00     0.136 A 
HETATM    2  N2  UNL     1      17.846  -1.691  53.449  1.00  0.00    -0.224 NA
HETATM    3  C2  UNL     1      16.917  -1.307  52.554  1.00  0.00     0.237 A 
HETATM    4  N3  UNL     1      17.097  -0.366  51.577  1.00  0.00    -0.223 NA
HETATM    5  C3  UNL     1      18.348   0.186  51.571  1.00  0.00     0.143 A 
HETATM    6  C4  UNL     1      19.346  -0.197  52.500  1.00  0.00     0.056 A 
HETATM    7  C5  UNL     1      20.699   0.420  52.516  1.00  0.00     0.028 C 
HETATM    8  C6  UNL     1      21.517   0.906  51.567  1.00  0.00    -0.033 C 
HETATM    9  C13 UNL     1      21.095   0.788  50.181  1.00  0.00     0.092 A 
HETATM   10  C14 UNL     1      21.946   1.328  49.143  1.00  0.00    -0.011 A 
HETATM   11  C15 UNL     1      21.220   2.127  48.335  1.00  0.00    -0.001 A 
HETATM   12  C16 UNL     1      19.814   2.154  48.800  1.00  0.00     0.026 A 
HETATM   13  C17 UNL     1      19.739   1.365  49.877  1.00  0.00     0.023 A 
HETATM   14  N4  UNL     1      18.452   1.166  50.507  1.00  0.00    -0.343 N 
HETATM   15  H14 UNL     1      17.604   1.674  50.238  1.00  0.00     0.167 HD
ENDROOT
BRANCH   8  16
HETATM   16  C7  UNL     1      22.741   1.408  52.134  1.00  0.00    -0.029 A 
HETATM   17  C8  UNL     1      23.712   0.579  52.599  1.00  0.00     0.012 A 
HETATM   18  C9  UNL     1      24.868   1.013  53.196  1.00  0.00     0.001 A 
HETATM   19  C10 UNL     1      25.136   2.377  53.373  1.00  0.00     0.000 A 
HETATM   20  C11 UNL     1      24.178   3.269  52.915  1.00  0.00     0.001 A 
HETATM   21  C12 UNL     1      23.052   2.734  52.331  1.00  0.00     0.012 A 
ENDBRANCH   8  16
BRANCH   1  22
HETATM   22  N1  UNL     1      20.169  -1.431  54.306  1.00  0.00    -0.383 N 
HETATM   23  H1  UNL     1      20.539  -2.384  54.591  1.00  0.00     0.157 HD
HETATM   24  H2  UNL     1      20.529  -0.487  54.584  1.00  0.00     0.157 HD
ENDBRANCH   1  22
TORSDOF 2
ENDMDL
MODEL 8
REMARK VINA RESULT:      -7.5      2.838      6.043
REMARK  2 active torsions:
REMARK  status: ('A' for Active; 'I' for Inactive)
REMARK    1  A    between atoms: N1_1  and  C1_2 
REMARK    2  A    between atoms: C6_9  and  C7_10 
ROOT
HETATM    1  C1  UNL     1      22.892   4.820  51.463  1.00  0.00     0.136 A 
HETATM    2  N2  UNL     1      22.039   5.765  51.067  1.00  0.00    -0.224 NA
HETATM    3  C2  UNL     1      20.744   5.496  50.820  1.00  0.00     0.237 A 
HETATM    4  N3  UNL     1      20.153   4.267  50.936  1.00  0.00    -0.223 NA
HETATM    5  C3  UNL     1      21.010   3.283  51.340  1.00  0.00     0.143 A 
HETATM    6  C4  UNL     1      22.378   3.534  51.608  1.00  0.00     0.056 A 
HETATM    7  C5  UNL     1      23.320   2.462  52.021  1.00  0.00     0.028 C 
HETATM    8  C6  UNL     1      23.200   1.342  52.755  1.00  0.00    -0.033 C 
HETATM    9  C13 UNL     1      21.912   1.070  53.374  1.00  0.00     0.092 A 
HETATM   10  C14 UNL     1      21.750  -0.143  54.146  1.00  0.00    -0.011 A 
HETATM   11  C15 UNL     1      20.652  -0.802  53.724  1.00  0.00    -0.001 A 
HETATM   12  C16 UNL     1      20.008  -0.040  52.630  1.00  0.00     0.026 A 
HETATM   13  C17 UNL     1      20.742   1.059  52.428  1.00  0.00     0.023 A 
HETATM   14  N4  UNL     1      20.302   2.020  51.440  1.00  0.00    -0.343 N 
HETATM   15  H14 UNL     1      19.511   1.862  50.808  1.00  0.00     0.167 HD
ENDROOT
BRANCH   8  16
HETATM   16  C7  UNL     1      24.450   0.636  52.846  1.00  0.00    -0.029 A 
HETATM   17  C8  UNL     1      24.700  -0.261  53.836  1.00  0.00     0.012 A 
HETATM   18  C9  UNL     1      25.895  -0.916  53.992  1.00  0.00     0.001 A 
HETATM   19  C10 UNL     1      26.970  -0.700  53.120  1.00  0.00     0.000 A 
HETATM   20  C11 UNL     1      26.770   0.206  52.090  1.00  0.00     0.001 A 
HETATM   21  C12 UNL     1      25.536   0.811  52.018  1.00  0.00     0.012 A 
ENDBRANCH   8  16
BRANCH   1  22
HETATM   22  N1  UNL     1      24.267   4.901  51.767  1.00  0.00    -0.383 N 
HETATM   23  H1  UNL     1      24.858   5.781  51.819  1.00  0.00     0.157 HD
HETATM   24  H2  UNL     1      24.567   3.909  51.927  1.00  0.00     0.157 HD
ENDBRANCH   1  22
TORSDOF 2
ENDMDL
MODEL 9
REMARK VINA RESULT:      -7.4      2.758      5.071
REMARK  2 active torsions:
REMARK  status: ('A' for Active; 'I' for Inactive)
REMARK    1  A    between atoms: N1_1  and  C1_2 
REMARK    2  A    between atoms: C6_9  and  C7_10 
ROOT
HETATM    1  C1  UNL     1      21.303   5.374  50.683  1.00  0.00     0.136 A 
HETATM    2  N2  UNL     1      21.783   6.577  50.363  1.00  0.00    -0.224 NA
HETATM    3  C2  UNL     1      22.963   7.019  50.835  1.00  0.00     0.237 A 
HETATM    4  N3  UNL     1      23.795   6.325  51.670  1.00  0.00    -0.223 NA
HETATM    5  C3  UNL     1      23.322   5.089  52.011  1.00  0.00     0.143 A 
HETATM    6  C4  UNL     1      22.084   4.595  51.532  1.00  0.00     0.056 A 
HETATM    7  C5  UNL     1      21.552   3.262  51.922  1.00  0.00     0.028 C 
HETATM    8  C6  UNL     1      22.116   2.077  52.208  1.00  0.00    -0.033 C 
HETATM    9  C13 UNL     1      23.559   1.960  52.072  1.00  0.00     0.092 A 
HETATM   10  C14 UNL     1      24.193   0.702  52.401  1.00  0.00    -0.011 A 
HETATM   11  C15 UNL     1      25.215   0.921  53.254  1.00  0.00    -0.001 A 
HETATM   12  C16 UNL     1      25.320   2.371  53.537  1.00  0.00     0.026 A 
HETATM   13  C17 UNL     1      24.355   2.981  52.841  1.00  0.00     0.023 A 
HETATM   14  N4  UNL     1      24.263   4.424  52.892  1.00  0.00    -0.343 N 
HETATM   15  H14 UNL     1      24.833   5.007  53.513  1.00  0.00     0.167 HD
ENDROOT
BRANCH   8  16
HETATM   16  C7  UNL     1      21.125   1.088  52.540  1.00  0.00    -0.029 A 
HETATM   17  C8  UNL     1      20.052   0.847  51.741  1.00  0.00     0.012 A 
HETATM   18  C9  UNL     1      19.056  -0.045  52.045  1.00  0.00     0.001 A 
HETATM   19  C10 UNL     1      19.074  -0.790  53.232  1.00  0.00     0.000 A 
HETATM   20  C11 UNL     1      20.147  -0.585  54.085  1.00  0.00     0.001 A 
HETATM   21  C12 UNL     1      21.095   0.333  53.690  1.00  0.00     0.012 A 
ENDBRANCH   8  16
BRANCH   1  22
HETATM   22  N1  UNL     1      20.104   4.739  50.298  1.00  0.00    -0.383 N 
HETATM   23  H1  UNL     1      19.543   4.037  50.864  1.00  0.00     0.157 HD
HETATM   24  H2  UNL     1      19.897   5.111  49.340  1.00  0.00     0.157 HD
ENDBRANCH   1  22
TORSDOF 2
ENDMDL
