MODEL 1
REMARK VINA RESULT:      -7.4      0.000      0.000
REMARK  1 active torsions:
REMARK  status: ('A' for Active; 'I' for Inactive)
REMARK    1  A    between atoms: O1_2  and  C2_3 
ROOT
HETATM    1  C2  UNL     1      25.271   0.725  53.393  1.00  0.00     0.081 C 
HETATM    2  C3  UNL     1      26.154   1.637  53.070  1.00  0.00     0.066 C 
HETATM    3  C4  UNL     1      26.135   2.488  51.898  1.00  0.00     0.070 C 
HETATM    4  N1  UNL     1      26.860   2.937  50.935  1.00  0.00    -0.242 NA
HETATM    5  C5  UNL     1      26.240   3.421  49.713  1.00  0.00     0.230 C 
HETATM    6  N2  UNL     1      24.932   3.429  49.525  1.00  0.00    -0.242 NA
HETATM    7  C6  UNL     1      24.255   2.553  50.454  1.00  0.00     0.386 C 
HETATM    8  C7  UNL     1      24.775   3.014  51.789  1.00  0.00     0.021 C 
HETATM    9  C8  UNL     1      24.171   3.733  52.684  1.00  0.00    -0.009 C 
HETATM   10  C9  UNL     1      22.958   4.398  52.218  1.00  0.00     0.098 C 
HETATM   11  C10 UNL     1      22.244   3.729  51.102  1.00  0.00     0.413 C 
HETATM   12  F1  UNL     1      22.118   4.669  50.069  1.00  0.00    -0.216 F 
HETATM   13  N3  UNL     1      22.858   2.586  50.527  1.00  0.00     0.179 N 
HETATM   14  C11 UNL     1      22.477   1.331  51.212  1.00  0.00     0.550 C 
HETATM   15  N4  UNL     1      23.017   1.207  52.520  1.00  0.00     0.127 N 
HETATM   16  C12 UNL     1      21.959   1.106  53.486  1.00  0.00     0.275 C 
HETATM   17  C13 UNL     1      21.196  -0.171  53.234  1.00  0.00     0.030 C 
HETATM   18  C14 UNL     1      22.171  -1.315  53.241  1.00  0.00     0.004 C 
HETATM   19  C15 UNL     1      23.562  -0.921  53.598  1.00  0.00     0.043 C 
HETATM   20  C16 UNL     1      24.047   0.268  52.747  1.00  0.00     0.281 C 
ENDROOT
BRANCH   1  21
HETATM   21  O1  UNL     1      25.765   0.206  54.609  1.00  0.00    -0.358 OA
HETATM   22  C1  UNL     1      27.175   0.242  54.776  1.00  0.00     0.209 C 
ENDBRANCH   1  21
TORSDOF 1
ENDMDL
MODEL 2
REMARK VINA RESULT:      -7.3      1.725      3.915
REMARK  1 active torsions:
REMARK  status: ('A' for Active; 'I' for Inactive)
REMARK    1  A    between atoms: O1_2  and  C2_3 
ROOT
HETATM    1  C2  UNL     1      22.787  -0.016  53.165  1.00  0.00     0.081 C 
HETATM    2  C3  UNL     1      21.641   0.401  52.689  1.00  0.00     0.066 C 
HETATM    3  C4  UNL     1      21.298   1.757  52.314  1.00  0.00     0.070 C 
HETATM    4  N1  UNL     1      20.393   2.665  52.430  1.00  0.00    -0.242 NA
HETATM    5  C5  UNL     1      20.731   4.065  52.241  1.00  0.00     0.230 C 
HETATM    6  N2  UNL     1      21.951   4.478  51.946  1.00  0.00    -0.242 NA
HETATM    7  C6  UNL     1      22.940   3.466  52.239  1.00  0.00     0.386 C 
HETATM    8  C7  UNL     1      22.412   2.260  51.511  1.00  0.00     0.021 C 
HETATM    9  C8  UNL     1      22.831   1.744  50.398  1.00  0.00    -0.009 C 
HETATM   10  C9  UNL     1      23.734   2.596  49.630  1.00  0.00     0.098 C 
HETATM   11  C10 UNL     1      24.528   3.569  50.419  1.00  0.00     0.413 C 
HETATM   12  F1  UNL     1      24.270   4.841  49.887  1.00  0.00    -0.216 F 
HETATM   13  N3  UNL     1      24.257   3.658  51.809  1.00  0.00     0.179 N 
HETATM   14  C11 UNL     1      25.066   2.708  52.606  1.00  0.00     0.550 C 
HETATM   15  N4  UNL     1      24.699   1.348  52.421  1.00  0.00     0.127 N 
HETATM   16  C12 UNL     1      25.811   0.602  51.900  1.00  0.00     0.275 C 
HETATM   17  C13 UNL     1      26.911   0.593  52.932  1.00  0.00     0.030 C 
HETATM   18  C14 UNL     1      26.346   0.070  54.223  1.00  0.00     0.004 C 
HETATM   19  C15 UNL     1      24.936  -0.396  54.121  1.00  0.00     0.043 C 
HETATM   20  C16 UNL     1      24.036   0.671  53.467  1.00  0.00     0.281 C 
ENDROOT
BRANCH   1  21
HETATM   21  O1  UNL     1      22.581  -1.400  53.354  1.00  0.00    -0.358 OA
HETATM   22  C1  UNL     1      21.505  -1.759  54.210  1.00  0.00     0.209 C 
ENDBRANCH   1  21
TORSDOF 1
ENDMDL
MODEL 3
REMARK VINA RESULT:      -7.2      2.761      5.188
REMARK  1 active torsions:
REMARK  status: ('A' for Active; 'I' for Inactive)
REMARK    1  A    between atoms: O1_2  and  C2_3 
ROOT
HETATM    1  C2  UNL     1      25.885   4.937  49.731  1.00  0.00     0.081 C 
HETATM    2  C3  UNL     1      26.356   3.716  49.761  1.00  0.00     0.066 C 
HETATM    3  C4  UNL     1      26.072   2.699  50.753  1.00  0.00     0.070 C 
HETATM    4  N1  UNL     1      26.617   1.814  51.511  1.00  0.00    -0.242 NA
HETATM    5  C5  UNL     1      25.927   1.342  52.700  1.00  0.00     0.230 C 
HETATM    6  N2  UNL     1      24.733   1.780  53.060  1.00  0.00    -0.242 NA
HETATM    7  C6  UNL     1      24.402   3.024  52.405  1.00  0.00     0.386 C 
HETATM    8  C7  UNL     1      24.623   2.707  50.951  1.00  0.00     0.021 C 
HETATM    9  C8  UNL     1      23.736   2.477  50.033  1.00  0.00    -0.009 C 
HETATM   10  C9  UNL     1      22.389   2.227  50.533  1.00  0.00     0.098 C 
HETATM   11  C10 UNL     1      22.058   2.852  51.838  1.00  0.00     0.413 C 
HETATM   12  F1  UNL     1      21.633   1.825  52.692  1.00  0.00    -0.216 F 
HETATM   13  N3  UNL     1      23.103   3.529  52.519  1.00  0.00     0.179 N 
HETATM   14  C11 UNL     1      23.206   4.953  52.129  1.00  0.00     0.550 C 
HETATM   15  N4  UNL     1      23.676   5.150  50.803  1.00  0.00     0.127 N 
HETATM   16  C12 UNL     1      22.689   5.845  50.025  1.00  0.00     0.275 C 
HETATM   17  C13 UNL     1      22.503   7.226  50.604  1.00  0.00     0.030 C 
HETATM   18  C14 UNL     1      23.847   7.897  50.668  1.00  0.00     0.004 C 
HETATM   19  C15 UNL     1      24.949   7.103  50.059  1.00  0.00     0.043 C 
HETATM   20  C16 UNL     1      24.977   5.664  50.610  1.00  0.00     0.281 C 
ENDROOT
BRANCH   1  21
HETATM   21  O1  UNL     1      26.473   5.488  48.571  1.00  0.00    -0.358 OA
HETATM   22  C1  UNL     1      27.880   5.332  48.451  1.00  0.00     0.209 C 
ENDBRANCH   1  21
TORSDOF 1
ENDMDL
MODEL 4
REMARK VINA RESULT:      -7.1      1.435      1.882
REMARK  1 active torsions:
REMARK  status: ('A' for Active; 'I' for Inactive)
REMARK    1  A    between atoms: O1_2  and  C2_3 
ROOT
HETATM    1  C2  UNL     1      23.348   0.320  52.879  1.00  0.00     0.081 C 
HETATM    2  C3  UNL     1      24.602   0.677  53.006  1.00  0.00     0.066 C 
HETATM    3  C4  UNL     1      25.317   1.641  52.194  1.00  0.00     0.070 C 
HETATM    4  N1  UNL     1      26.411   1.838  51.547  1.00  0.00    -0.242 NA
HETATM    5  C5  UNL     1      26.467   2.826  50.484  1.00  0.00     0.230 C 
HETATM    6  N2  UNL     1      25.427   3.561  50.129  1.00  0.00    -0.242 NA
HETATM    7  C6  UNL     1      24.187   2.995  50.609  1.00  0.00     0.386 C 
HETATM    8  C7  UNL     1      24.448   2.811  52.079  1.00  0.00     0.021 C 
HETATM    9  C8  UNL     1      24.013   3.527  53.069  1.00  0.00    -0.009 C 
HETATM   10  C9  UNL     1      23.435   4.812  52.689  1.00  0.00     0.098 C 
HETATM   11  C10 UNL     1      22.851   4.878  51.326  1.00  0.00     0.413 C 
HETATM   12  F1  UNL     1      23.477   5.942  50.660  1.00  0.00    -0.216 F 
HETATM   13  N3  UNL     1      23.009   3.740  50.493  1.00  0.00     0.179 N 
HETATM   14  C11 UNL     1      21.913   2.758  50.660  1.00  0.00     0.550 C 
HETATM   15  N4  UNL     1      21.930   2.089  51.913  1.00  0.00     0.127 N 
HETATM   16  C12 UNL     1      20.716   2.354  52.633  1.00  0.00     0.275 C 
HETATM   17  C13 UNL     1      19.561   1.757  51.865  1.00  0.00     0.030 C 
HETATM   18  C14 UNL     1      19.852   0.302  51.626  1.00  0.00     0.004 C 
HETATM   19  C15 UNL     1      21.097  -0.182  52.283  1.00  0.00     0.043 C 
HETATM   20  C16 UNL     1      22.298   0.726  51.954  1.00  0.00     0.281 C 
ENDROOT
BRANCH   1  21
HETATM   21  O1  UNL     1      23.171  -0.630  53.908  1.00  0.00    -0.358 OA
HETATM   22  C1  UNL     1      24.316  -0.911  54.702  1.00  0.00     0.209 C 
ENDBRANCH   1  21
TORSDOF 1
ENDMDL
MODEL 5
REMARK VINA RESULT:      -7.1      2.947      5.172
REMARK  1 active torsions:
REMARK  status: ('A' for Active; 'I' for Inactive)
REMARK    1  A    between atoms: O1_2  and  C2_3 
ROOT
HETATM    1  C2  UNL     1      19.502  -0.439  53.132  1.00  0.00     0.081 C 
HETATM    2  C3  UNL     1      18.657   0.139  52.316  1.00  0.00     0.066 C 
HETATM    3  C4  UNL     1      18.783   1.456  51.726  1.00  0.00     0.070 C 
HETATM    4  N1  UNL     1      18.146   2.549  51.493  1.00  0.00    -0.242 NA
HETATM    5  C5  UNL     1      18.872   3.787  51.266  1.00  0.00     0.230 C 
HETATM    6  N2  UNL     1      20.191   3.861  51.284  1.00  0.00    -0.242 NA
HETATM    7  C6  UNL     1      20.779   2.717  51.942  1.00  0.00     0.386 C 
HETATM    8  C7  UNL     1      20.151   1.555  51.220  1.00  0.00     0.021 C 
HETATM    9  C8  UNL     1      20.682   0.781  50.326  1.00  0.00    -0.009 C 
HETATM   10  C9  UNL     1      21.936   1.269  49.759  1.00  0.00     0.098 C 
HETATM   11  C10 UNL     1      22.737   2.157  50.637  1.00  0.00     0.413 C 
HETATM   12  F1  UNL     1      22.958   3.348  49.930  1.00  0.00    -0.216 F 
HETATM   13  N3  UNL     1      22.165   2.534  51.880  1.00  0.00     0.179 N 
HETATM   14  C11 UNL     1      22.476   1.573  52.963  1.00  0.00     0.550 C 
HETATM   15  N4  UNL     1      21.826   0.319  52.819  1.00  0.00     0.127 N 
HETATM   16  C12 UNL     1      22.797  -0.733  52.707  1.00  0.00     0.275 C 
HETATM   17  C13 UNL     1      23.568  -0.817  54.001  1.00  0.00     0.030 C 
HETATM   18  C14 UNL     1      22.587  -0.978  55.128  1.00  0.00     0.004 C 
HETATM   19  C15 UNL     1      21.174  -1.126  54.683  1.00  0.00     0.043 C 
HETATM   20  C16 UNL     1      20.773  -0.008  53.701  1.00  0.00     0.281 C 
ENDROOT
BRANCH   1  21
HETATM   21  O1  UNL     1      18.902  -1.690  53.394  1.00  0.00    -0.358 OA
HETATM   22  C1  UNL     1      17.494  -1.755  53.221  1.00  0.00     0.209 C 
ENDBRANCH   1  21
TORSDOF 1
ENDMDL
MODEL 6
REMARK VINA RESULT:      -7.1      2.486      4.817
REMARK  1 active torsions:
REMARK  status: ('A' for Active; 'I' for Inactive)
REMARK    1  A    between atoms: O1_2  and  C2_3 
ROOT
HETATM    1  C2  UNL     1      24.152   2.231  52.044  1.00  0.00     0.081 C 
HETATM    2  C3  UNL     1      24.175   0.970  52.394  1.00  0.00     0.066 C 
HETATM    3  C4  UNL     1      23.127   0.239  53.077  1.00  0.00     0.070 C 
HETATM    4  N1  UNL     1      22.898  -0.574  54.047  1.00  0.00    -0.242 NA
HETATM    5  C5  UNL     1      21.570  -0.664  54.631  1.00  0.00     0.230 C 
HETATM    6  N2  UNL     1      20.550   0.062  54.211  1.00  0.00    -0.242 NA
HETATM    7  C6  UNL     1      20.988   1.198  53.433  1.00  0.00     0.386 C 
HETATM    8  C7  UNL     1      21.878   0.570  52.395  1.00  0.00     0.021 C 
HETATM    9  C8  UNL     1      21.622   0.350  51.142  1.00  0.00    -0.009 C 
HETATM   10  C9  UNL     1      20.214   0.471  50.775  1.00  0.00     0.098 C 
HETATM   11  C10 UNL     1      19.405   1.388  51.616  1.00  0.00     0.413 C 
HETATM   12  F1  UNL     1      18.319   0.648  52.105  1.00  0.00    -0.216 F 
HETATM   13  N3  UNL     1      20.038   1.962  52.749  1.00  0.00     0.179 N 
HETATM   14  C11 UNL     1      20.722   3.236  52.431  1.00  0.00     0.550 C 
HETATM   15  N4  UNL     1      21.877   3.078  51.620  1.00  0.00     0.127 N 
HETATM   16  C12 UNL     1      21.716   3.792  50.384  1.00  0.00     0.275 C 
HETATM   17  C13 UNL     1      21.627   5.268  50.688  1.00  0.00     0.030 C 
HETATM   18  C14 UNL     1      22.833   5.659  51.494  1.00  0.00     0.004 C 
HETATM   19  C15 UNL     1      23.823   4.561  51.675  1.00  0.00     0.043 C 
HETATM   20  C16 UNL     1      23.150   3.278  52.199  1.00  0.00     0.281 C 
ENDROOT
BRANCH   1  21
HETATM   21  O1  UNL     1      25.405   2.422  51.421  1.00  0.00    -0.358 OA
HETATM   22  C1  UNL     1      26.537   1.953  52.140  1.00  0.00     0.209 C 
ENDBRANCH   1  21
TORSDOF 1
ENDMDL
MODEL 7
REMARK VINA RESULT:      -6.9      9.853     12.571
REMARK  1 active torsions:
REMARK  status: ('A' for Active; 'I' for Inactive)
REMARK    1  A    between atoms: O1_2  and  C2_3 
ROOT
HETATM    1  C2  UNL     1      33.898   7.600  45.774  1.00  0.00     0.081 C 
HETATM    2  C3  UNL     1      33.900   7.847  47.059  1.00  0.00     0.066 C 
HETATM    3  C4  UNL     1      33.247   7.071  48.094  1.00  0.00     0.070 C 
HETATM    4  N1  UNL     1      32.497   7.161  49.136  1.00  0.00    -0.242 NA
HETATM    5  C5  UNL     1      31.720   6.017  49.581  1.00  0.00     0.230 C 
HETATM    6  N2  UNL     1      31.737   4.851  48.960  1.00  0.00    -0.242 NA
HETATM    7  C6  UNL     1      32.259   4.969  47.618  1.00  0.00     0.386 C 
HETATM    8  C7  UNL     1      33.573   5.671  47.830  1.00  0.00     0.021 C 
HETATM    9  C8  UNL     1      34.769   5.169  47.796  1.00  0.00    -0.009 C 
HETATM   10  C9  UNL     1      34.822   3.711  47.833  1.00  0.00     0.098 C 
HETATM   11  C10 UNL     1      33.635   3.009  47.285  1.00  0.00     0.413 C 
HETATM   12  F1  UNL     1      33.160   2.153  48.290  1.00  0.00    -0.216 F 
HETATM   13  N3  UNL     1      32.531   3.807  46.888  1.00  0.00     0.179 N 
HETATM   14  C11 UNL     1      32.627   4.249  45.479  1.00  0.00     0.550 C 
HETATM   15  N4  UNL     1      33.653   5.204  45.248  1.00  0.00     0.127 N 
HETATM   16  C12 UNL     1      34.607   4.689  44.306  1.00  0.00     0.275 C 
HETATM   17  C13 UNL     1      33.918   4.499  42.978  1.00  0.00     0.030 C 
HETATM   18  C14 UNL     1      33.278   5.801  42.584  1.00  0.00     0.004 C 
HETATM   19  C15 UNL     1      33.579   6.926  43.511  1.00  0.00     0.043 C 
HETATM   20  C16 UNL     1      33.291   6.542  44.976  1.00  0.00     0.281 C 
ENDROOT
BRANCH   1  21
HETATM   21  O1  UNL     1      34.673   8.650  45.236  1.00  0.00    -0.358 OA
HETATM   22  C1  UNL     1      34.289   9.965  45.613  1.00  0.00     0.209 C 
ENDBRANCH   1  21
TORSDOF 1
ENDMDL
MODEL 8
REMARK VINA RESULT:      -6.8      1.667      2.308
REMARK  1 active torsions:
REMARK  status: ('A' for Active; 'I' for Inactive)
REMARK    1  A    between atoms: O1_2  and  C2_3 
ROOT
HETATM    1  C2  UNL     1      24.058   1.068  52.761  1.00  0.00     0.081 C 
HETATM    2  C3  UNL     1      24.453   2.076  52.025  1.00  0.00     0.066 C 
HETATM    3  C4  UNL     1      23.807   2.586  50.832  1.00  0.00     0.070 C 
HETATM    4  N1  UNL     1      24.023   2.967  49.622  1.00  0.00    -0.242 NA
HETATM    5  C5  UNL     1      22.944   2.963  48.649  1.00  0.00     0.230 C 
HETATM    6  N2  UNL     1      21.713   2.580  48.940  1.00  0.00    -0.242 NA
HETATM    7  C6  UNL     1      21.671   1.805  50.159  1.00  0.00     0.386 C 
HETATM    8  C7  UNL     1      22.383   2.692  51.145  1.00  0.00     0.021 C 
HETATM    9  C8  UNL     1      21.871   3.419  52.090  1.00  0.00    -0.009 C 
HETATM   10  C9  UNL     1      20.427   3.608  52.002  1.00  0.00     0.098 C 
HETATM   11  C10 UNL     1      19.675   2.528  51.316  1.00  0.00     0.413 C 
HETATM   12  F1  UNL     1      18.945   3.126  50.279  1.00  0.00    -0.216 F 
HETATM   13  N3  UNL     1      20.431   1.485  50.720  1.00  0.00     0.179 N 
HETATM   14  C11 UNL     1      20.706   0.375  51.661  1.00  0.00     0.550 C 
HETATM   15  N4  UNL     1      21.620   0.715  52.693  1.00  0.00     0.127 N 
HETATM   16  C12 UNL     1      20.992   0.572  53.977  1.00  0.00     0.275 C 
HETATM   17  C13 UNL     1      20.654  -0.883  54.190  1.00  0.00     0.030 C 
HETATM   18  C14 UNL     1      21.907  -1.692  54.004  1.00  0.00     0.004 C 
HETATM   19  C15 UNL     1      23.130  -0.872  53.785  1.00  0.00     0.043 C 
HETATM   20  C16 UNL     1      22.920   0.164  52.663  1.00  0.00     0.281 C 
ENDROOT
BRANCH   1  21
HETATM   21  O1  UNL     1      25.034   1.004  53.780  1.00  0.00    -0.358 OA
HETATM   22  C1  UNL     1      26.381   0.885  53.347  1.00  0.00     0.209 C 
ENDBRANCH   1  21
TORSDOF 1
ENDMDL
MODEL 9
REMARK VINA RESULT:      -6.7      9.179     11.461
REMARK  1 active torsions:
REMARK  status: ('A' for Active; 'I' for Inactive)
REMARK    1  A    between atoms: O1_2  and  C2_3 
ROOT
HETATM    1  C2  UNL     1      32.228   9.242  47.656  1.00  0.00     0.081 C 
HETATM    2  C3  UNL     1      33.493   9.064  47.370  1.00  0.00     0.066 C 
HETATM    3  C4  UNL     1      34.321   7.938  47.753  1.00  0.00     0.070 C 
HETATM    4  N1  UNL     1      35.464   7.617  48.249  1.00  0.00    -0.242 NA
HETATM    5  C5  UNL     1      35.651   6.321  48.879  1.00  0.00     0.230 C 
HETATM    6  N2  UNL     1      34.688   5.422  48.975  1.00  0.00    -0.242 NA
HETATM    7  C6  UNL     1      33.385   6.013  48.773  1.00  0.00     0.386 C 
HETATM    8  C7  UNL     1      33.544   6.734  47.462  1.00  0.00     0.021 C 
HETATM    9  C8  UNL     1      33.099   6.388  46.294  1.00  0.00    -0.009 C 
HETATM   10  C9  UNL     1      32.636   5.008  46.200  1.00  0.00     0.098 C 
HETATM   11  C10 UNL     1      32.141   4.406  47.463  1.00  0.00     0.413 C 
HETATM   12  F1  UNL     1      32.878   3.232  47.677  1.00  0.00    -0.216 F 
HETATM   13  N3  UNL     1      32.270   5.178  48.647  1.00  0.00     0.179 N 
HETATM   14  C11 UNL     1      31.101   6.055  48.882  1.00  0.00     0.550 C 
HETATM   15  N4  UNL     1      30.997   7.129  47.958  1.00  0.00     0.127 N 
HETATM   16  C12 UNL     1      29.762   7.037  47.230  1.00  0.00     0.275 C 
HETATM   17  C13 UNL     1      28.618   7.216  48.198  1.00  0.00     0.030 C 
HETATM   18  C14 UNL     1      28.822   8.507  48.940  1.00  0.00     0.004 C 
HETATM   19  C15 UNL     1      29.988   9.300  48.464  1.00  0.00     0.043 C 
HETATM   20  C16 UNL     1      31.267   8.441  48.403  1.00  0.00     0.281 C 
ENDROOT
BRANCH   1  21
HETATM   21  O1  UNL     1      31.925  10.480  47.048  1.00  0.00    -0.358 OA
HETATM   22  C1  UNL     1      32.980  11.429  47.006  1.00  0.00     0.209 C 
ENDBRANCH   1  21
TORSDOF 1
ENDMDL
