MODEL 1
REMARK VINA RESULT:      -8.4      0.000      0.000
REMARK  3 active torsions:
REMARK  status: ('A' for Active; 'I' for Inactive)
REMARK       I    between atoms: C1_2  and  N1_3 
REMARK       I    between atoms: C1_2  and  N2_10 
REMARK    1  A    between atoms: N1_3  and  C2_4 
REMARK    2  A    between atoms: C11_14  and  C12_15 
REMARK    3  A    between atoms: C17_22  and  O2_23 
ROOT
HETATM    1  O1  UNL     1      27.037   1.803  50.909  1.00  0.00    -0.247 OA
HETATM    2  C1  UNL     1      26.194   1.799  51.825  1.00  0.00     0.323 C 
HETATM    3  N1  UNL     1      26.391   1.132  53.045  1.00  0.00    -0.309 N 
HETATM    4  N2  UNL     1      25.061   2.574  51.383  1.00  0.00    -0.326 N 
HETATM    5  C8  UNL     1      25.541   2.936  50.087  1.00  0.00     0.156 C 
HETATM    6  C9  UNL     1      24.593   3.743  49.284  1.00  0.00     0.006 C 
HETATM    7  C10 UNL     1      23.366   3.988  49.015  1.00  0.00    -0.018 C 
HETATM    8  C11 UNL     1      22.427   3.056  49.086  1.00  0.00    -0.008 C 
HETATM    9  C13 UNL     1      22.233   2.251  50.313  1.00  0.00    -0.016 A 
HETATM   10  C14 UNL     1      21.168   1.453  49.952  1.00  0.00     0.014 A 
HETATM   11  C15 UNL     1      20.616   0.515  50.793  1.00  0.00     0.023 A 
HETATM   12  C16 UNL     1      21.144   0.350  52.066  1.00  0.00     0.044 A 
HETATM   13 BR1  UNL     1      20.501  -0.891  53.332  1.00  0.00    -0.048 Br
HETATM   14  C17 UNL     1      22.206   1.132  52.449  1.00  0.00     0.091 A 
HETATM   15  C18 UNL     1      22.735   2.062  51.583  1.00  0.00     0.005 A 
HETATM   16  C19 UNL     1      23.871   2.786  52.214  1.00  0.00     0.170 C 
HETATM   17  H1  UNL     1      25.589   1.231  53.697  1.00  0.00     0.170 HD
ENDROOT
BRANCH   3  18
HETATM   18  C2  UNL     1      27.608   0.424  53.253  1.00  0.00     0.036 A 
HETATM   19  C3  UNL     1      27.606  -0.945  53.025  1.00  0.00     0.029 A 
HETATM   20  C4  UNL     1      28.792  -1.653  53.226  1.00  0.00     0.002 A 
HETATM   21  C5  UNL     1      29.941  -1.014  53.641  1.00  0.00     0.000 A 
HETATM   22  C6  UNL     1      29.934   0.355  53.867  1.00  0.00     0.002 A 
HETATM   23  C7  UNL     1      28.758   1.079  53.672  1.00  0.00     0.029 A 
ENDBRANCH   3  18
BRANCH  14  24
HETATM   24  O2  UNL     1      22.813   1.059  53.684  1.00  0.00    -0.359 OA
HETATM   25  H14 UNL     1      23.807   0.839  53.684  1.00  0.00     0.217 HD
ENDBRANCH  14  24
BRANCH   8  26
HETATM   26  C12 UNL     1      21.561   2.811  47.945  1.00  0.00     0.262 C 
HETATM   27  F1  UNL     1      22.482   2.358  46.963  1.00  0.00    -0.251 F 
ENDBRANCH   8  26
TORSDOF 3
ENDMDL
MODEL 2
REMARK VINA RESULT:      -8.3      3.623      5.144
REMARK  3 active torsions:
REMARK  status: ('A' for Active; 'I' for Inactive)
REMARK       I    between atoms: C1_2  and  N1_3 
REMARK       I    between atoms: C1_2  and  N2_10 
REMARK    1  A    between atoms: N1_3  and  C2_4 
REMARK    2  A    between atoms: C11_14  and  C12_15 
REMARK    3  A    between atoms: C17_22  and  O2_23 
ROOT
HETATM    1  O1  UNL     1      25.099   2.561  53.022  1.00  0.00    -0.247 OA
HETATM    2  C1  UNL     1      25.616   2.629  51.891  1.00  0.00     0.323 C 
HETATM    3  N1  UNL     1      26.856   2.050  51.581  1.00  0.00    -0.309 N 
HETATM    4  N2  UNL     1      24.721   3.377  51.042  1.00  0.00    -0.326 N 
HETATM    5  C8  UNL     1      23.692   3.644  51.997  1.00  0.00     0.156 C 
HETATM    6  C9  UNL     1      22.568   4.457  51.477  1.00  0.00     0.006 C 
HETATM    7  C10 UNL     1      22.208   5.384  50.672  1.00  0.00    -0.018 C 
HETATM    8  C11 UNL     1      23.013   6.383  50.338  1.00  0.00    -0.008 C 
HETATM    9  C13 UNL     1      24.370   6.132  49.803  1.00  0.00    -0.016 A 
HETATM   10  C14 UNL     1      24.819   7.416  49.581  1.00  0.00     0.014 A 
HETATM   11  C15 UNL     1      26.066   7.697  49.072  1.00  0.00     0.023 A 
HETATM   12  C16 UNL     1      26.924   6.650  48.764  1.00  0.00     0.044 A 
HETATM   13 BR1  UNL     1      28.661   6.871  48.062  1.00  0.00    -0.048 Br
HETATM   14  C17 UNL     1      26.501   5.362  48.977  1.00  0.00     0.091 A 
HETATM   15  C18 UNL     1      25.246   5.115  49.488  1.00  0.00     0.005 A 
HETATM   16  C19 UNL     1      25.011   3.654  49.631  1.00  0.00     0.170 C 
HETATM   17  H1  UNL     1      27.140   2.200  50.593  1.00  0.00     0.170 HD
ENDROOT
BRANCH   3  18
HETATM   18  C2  UNL     1      27.564   1.351  52.599  1.00  0.00     0.036 A 
HETATM   19  C3  UNL     1      27.368  -0.020  52.697  1.00  0.00     0.029 A 
HETATM   20  C4  UNL     1      28.054  -0.719  53.691  1.00  0.00     0.002 A 
HETATM   21  C5  UNL     1      28.907  -0.070  54.558  1.00  0.00     0.000 A 
HETATM   22  C6  UNL     1      29.097   1.300  54.453  1.00  0.00     0.002 A 
HETATM   23  C7  UNL     1      28.420   2.016  53.466  1.00  0.00     0.029 A 
ENDBRANCH   3  18
BRANCH  14  24
HETATM   24  O2  UNL     1      27.262   4.244  48.710  1.00  0.00    -0.359 OA
HETATM   25  H14 UNL     1      27.449   3.629  49.500  1.00  0.00     0.217 HD
ENDBRANCH  14  24
BRANCH   8  26
HETATM   26  C12 UNL     1      22.566   7.757  50.494  1.00  0.00     0.262 C 
HETATM   27  F1  UNL     1      21.332   7.594  51.177  1.00  0.00    -0.251 F 
ENDBRANCH   8  26
TORSDOF 3
ENDMDL
MODEL 3
REMARK VINA RESULT:      -8.0      3.680      6.606
REMARK  3 active torsions:
REMARK  status: ('A' for Active; 'I' for Inactive)
REMARK       I    between atoms: C1_2  and  N1_3 
REMARK       I    between atoms: C1_2  and  N2_10 
REMARK    1  A    between atoms: N1_3  and  C2_4 
REMARK    2  A    between atoms: C11_14  and  C12_15 
REMARK    3  A    between atoms: C17_22  and  O2_23 
ROOT
HETATM    1  O1  UNL     1      23.747   4.014  51.910  1.00  0.00    -0.247 OA
HETATM    2  C1  UNL     1      23.000   3.389  51.134  1.00  0.00     0.323 C 
HETATM    3  N1  UNL     1      22.226   4.018  50.145  1.00  0.00    -0.309 N 
HETATM    4  N2  UNL     1      23.104   1.987  51.456  1.00  0.00    -0.326 N 
HETATM    5  C8  UNL     1      24.041   2.082  52.530  1.00  0.00     0.156 C 
HETATM    6  C9  UNL     1      24.382   0.788  53.165  1.00  0.00     0.006 C 
HETATM    7  C10 UNL     1      23.970  -0.380  53.487  1.00  0.00    -0.018 C 
HETATM    8  C11 UNL     1      22.704  -0.625  53.792  1.00  0.00    -0.008 C 
HETATM    9  C13 UNL     1      21.604  -0.241  52.880  1.00  0.00    -0.016 A 
HETATM   10  C14 UNL     1      20.502  -0.697  53.572  1.00  0.00     0.014 A 
HETATM   11  C15 UNL     1      19.215  -0.562  53.106  1.00  0.00     0.023 A 
HETATM   12  C16 UNL     1      18.998   0.061  51.885  1.00  0.00     0.044 A 
HETATM   13 BR1  UNL     1      17.298   0.323  51.112  1.00  0.00    -0.048 Br
HETATM   14  C17 UNL     1      20.079   0.525  51.177  1.00  0.00     0.091 A 
HETATM   15  C18 UNL     1      21.355   0.374  51.671  1.00  0.00     0.005 A 
HETATM   16  C19 UNL     1      22.357   0.950  50.737  1.00  0.00     0.170 C 
HETATM   17  H1  UNL     1      21.661   3.350  49.586  1.00  0.00     0.170 HD
ENDROOT
BRANCH   3  18
HETATM   18  C2  UNL     1      22.291   5.434  50.017  1.00  0.00     0.036 A 
HETATM   19  C3  UNL     1      23.208   5.959  49.116  1.00  0.00     0.029 A 
HETATM   20  C4  UNL     1      23.283   7.346  48.980  1.00  0.00     0.002 A 
HETATM   21  C5  UNL     1      22.471   8.179  49.718  1.00  0.00     0.000 A 
HETATM   22  C6  UNL     1      21.558   7.646  50.617  1.00  0.00     0.002 A 
HETATM   23  C7  UNL     1      21.468   6.262  50.767  1.00  0.00     0.029 A 
ENDBRANCH   3  18
BRANCH  14  24
HETATM   24  O2  UNL     1      19.989   1.159  49.956  1.00  0.00    -0.359 OA
HETATM   25  H14 UNL     1      19.087   1.572  49.730  1.00  0.00     0.217 HD
ENDBRANCH  14  24
BRANCH   8  26
HETATM   26  C12 UNL     1      22.376  -1.287  55.044  1.00  0.00     0.262 C 
HETATM   27  F1  UNL     1      23.627  -1.290  55.717  1.00  0.00    -0.251 F 
ENDBRANCH   8  26
TORSDOF 3
ENDMDL
MODEL 4
REMARK VINA RESULT:      -7.8      1.497      2.046
REMARK  3 active torsions:
REMARK  status: ('A' for Active; 'I' for Inactive)
REMARK       I    between atoms: C1_2  and  N1_3 
REMARK       I    between atoms: C1_2  and  N2_10 
REMARK    1  A    between atoms: N1_3  and  C2_4 
REMARK    2  A    between atoms: C11_14  and  C12_15 
REMARK    3  A    between atoms: C17_22  and  O2_23 
ROOT
HETATM    1  O1  UNL     1      26.986   3.180  50.712  1.00  0.00    -0.247 OA
HETATM    2  C1  UNL     1      25.981   3.108  51.443  1.00  0.00     0.323 C 
HETATM    3  N1  UNL     1      25.934   2.319  52.604  1.00  0.00    -0.309 N 
HETATM    4  N2  UNL     1      24.960   3.952  50.873  1.00  0.00    -0.326 N 
HETATM    5  C8  UNL     1      25.684   4.428  49.737  1.00  0.00     0.156 C 
HETATM    6  C9  UNL     1      24.915   5.334  48.854  1.00  0.00     0.006 C 
HETATM    7  C10 UNL     1      23.765   5.636  48.380  1.00  0.00    -0.018 C 
HETATM    8  C11 UNL     1      22.824   4.726  48.174  1.00  0.00    -0.008 C 
HETATM    9  C13 UNL     1      22.392   3.808  49.252  1.00  0.00    -0.016 A 
HETATM   10  C14 UNL     1      21.412   3.078  48.614  1.00  0.00     0.014 A 
HETATM   11  C15 UNL     1      20.702   2.076  49.233  1.00  0.00     0.023 A 
HETATM   12  C16 UNL     1      20.972   1.773  50.560  1.00  0.00     0.044 A 
HETATM   13 BR1  UNL     1      20.088   0.429  51.545  1.00  0.00    -0.048 Br
HETATM   14  C17 UNL     1      21.944   2.485  51.217  1.00  0.00     0.091 A 
HETATM   15  C18 UNL     1      22.637   3.483  50.570  1.00  0.00     0.005 A 
HETATM   16  C19 UNL     1      23.633   4.111  51.477  1.00  0.00     0.170 C 
HETATM   17  H1  UNL     1      25.022   2.373  53.096  1.00  0.00     0.170 HD
ENDROOT
BRANCH   3  18
HETATM   18  C2  UNL     1      27.084   1.563  52.969  1.00  0.00     0.036 A 
HETATM   19  C3  UNL     1      28.136   2.238  53.573  1.00  0.00     0.029 A 
HETATM   20  C4  UNL     1      29.270   1.509  53.936  1.00  0.00     0.002 A 
HETATM   21  C5  UNL     1      29.349   0.153  53.703  1.00  0.00     0.000 A 
HETATM   22  C6  UNL     1      28.293  -0.514  53.099  1.00  0.00     0.002 A 
HETATM   23  C7  UNL     1      27.151   0.197  52.729  1.00  0.00     0.029 A 
ENDBRANCH   3  18
BRANCH  14  24
HETATM   24  O2  UNL     1      22.300   2.275  52.532  1.00  0.00    -0.359 OA
HETATM   25  H14 UNL     1      21.573   1.903  53.141  1.00  0.00     0.217 HD
ENDBRANCH  14  24
BRANCH   8  26
HETATM   26  C12 UNL     1      22.194   4.617  46.869  1.00  0.00     0.262 C 
HETATM   27  F1  UNL     1      22.647   5.797  46.220  1.00  0.00    -0.251 F 
ENDBRANCH   8  26
TORSDOF 3
ENDMDL
MODEL 5
REMARK VINA RESULT:      -7.8      3.298      7.334
REMARK  3 active torsions:
REMARK  status: ('A' for Active; 'I' for Inactive)
REMARK       I    between atoms: C1_2  and  N1_3 
REMARK       I    between atoms: C1_2  and  N2_10 
REMARK    1  A    between atoms: N1_3  and  C2_4 
REMARK    2  A    between atoms: C11_14  and  C12_15 
REMARK    3  A    between atoms: C17_22  and  O2_23 
ROOT
HETATM    1  O1  UNL     1      21.629  -0.852  52.908  1.00  0.00    -0.247 OA
HETATM    2  C1  UNL     1      21.745   0.384  52.807  1.00  0.00     0.323 C 
HETATM    3  N1  UNL     1      20.737   1.207  52.280  1.00  0.00    -0.309 N 
HETATM    4  N2  UNL     1      23.046   0.747  53.314  1.00  0.00    -0.326 N 
HETATM    5  C8  UNL     1      23.510  -0.558  53.668  1.00  0.00     0.156 C 
HETATM    6  C9  UNL     1      24.885  -0.593  54.216  1.00  0.00     0.006 C 
HETATM    7  C10 UNL     1      26.051  -0.067  54.199  1.00  0.00    -0.018 C 
HETATM    8  C11 UNL     1      26.558   0.493  53.110  1.00  0.00    -0.008 C 
HETATM    9  C13 UNL     1      25.824   1.546  52.372  1.00  0.00    -0.016 A 
HETATM   10  C14 UNL     1      26.712   1.841  51.360  1.00  0.00     0.014 A 
HETATM   11  C15 UNL     1      26.460   2.789  50.395  1.00  0.00     0.023 A 
HETATM   12  C16 UNL     1      25.261   3.488  50.427  1.00  0.00     0.044 A 
HETATM   13 BR1  UNL     1      24.769   4.813  49.179  1.00  0.00    -0.048 Br
HETATM   14  C17 UNL     1      24.360   3.211  51.425  1.00  0.00     0.091 A 
HETATM   15  C18 UNL     1      24.643   2.257  52.376  1.00  0.00     0.005 A 
HETATM   16  C19 UNL     1      23.526   2.132  53.349  1.00  0.00     0.170 C 
HETATM   17  H1  UNL     1      20.998   2.213  52.268  1.00  0.00     0.170 HD
ENDROOT
BRANCH   3  18
HETATM   18  C2  UNL     1      19.522   0.611  51.838  1.00  0.00     0.036 A 
HETATM   19  C3  UNL     1      19.100   0.890  50.545  1.00  0.00     0.029 A 
HETATM   20  C4  UNL     1      17.910   0.313  50.098  1.00  0.00     0.002 A 
HETATM   21  C5  UNL     1      17.168  -0.514  50.914  1.00  0.00     0.000 A 
HETATM   22  C6  UNL     1      17.598  -0.787  52.205  1.00  0.00     0.002 A 
HETATM   23  C7  UNL     1      18.785  -0.219  52.670  1.00  0.00     0.029 A 
ENDBRANCH   3  18
BRANCH  14  24
HETATM   24  O2  UNL     1      23.140   3.839  51.561  1.00  0.00    -0.359 OA
HETATM   25  H14 UNL     1      23.024   4.420  52.389  1.00  0.00     0.217 HD
ENDBRANCH  14  24
BRANCH   8  26
HETATM   26  C12 UNL     1      27.862   0.076  52.620  1.00  0.00     0.262 C 
HETATM   27  F1  UNL     1      27.920  -1.278  53.043  1.00  0.00    -0.251 F 
ENDBRANCH   8  26
TORSDOF 3
ENDMDL
MODEL 6
REMARK VINA RESULT:      -7.4      3.646      7.710
REMARK  3 active torsions:
REMARK  status: ('A' for Active; 'I' for Inactive)
REMARK       I    between atoms: C1_2  and  N1_3 
REMARK       I    between atoms: C1_2  and  N2_10 
REMARK    1  A    between atoms: N1_3  and  C2_4 
REMARK    2  A    between atoms: C11_14  and  C12_15 
REMARK    3  A    between atoms: C17_22  and  O2_23 
ROOT
HETATM    1  O1  UNL     1      20.585   1.167  51.737  1.00  0.00    -0.247 OA
HETATM    2  C1  UNL     1      21.127   2.287  51.807  1.00  0.00     0.323 C 
HETATM    3  N1  UNL     1      20.524   3.459  51.325  1.00  0.00    -0.309 N 
HETATM    4  N2  UNL     1      22.409   2.117  52.444  1.00  0.00    -0.326 N 
HETATM    5  C8  UNL     1      22.359   0.704  52.656  1.00  0.00     0.156 C 
HETATM    6  C9  UNL     1      23.571   0.133  53.287  1.00  0.00     0.006 C 
HETATM    7  C10 UNL     1      24.841   0.215  53.418  1.00  0.00    -0.018 C 
HETATM    8  C11 UNL     1      25.625   0.666  52.448  1.00  0.00    -0.008 C 
HETATM    9  C13 UNL     1      25.379   1.977  51.807  1.00  0.00    -0.016 A 
HETATM   10  C14 UNL     1      26.419   2.040  50.905  1.00  0.00     0.014 A 
HETATM   11  C15 UNL     1      26.612   3.106  50.057  1.00  0.00     0.023 A 
HETATM   12  C16 UNL     1      25.728   4.175  50.099  1.00  0.00     0.044 A 
HETATM   13 BR1  UNL     1      25.857   5.705  49.004  1.00  0.00    -0.048 Br
HETATM   14  C17 UNL     1      24.683   4.136  50.989  1.00  0.00     0.091 A 
HETATM   15  C18 UNL     1      24.518   3.054  51.824  1.00  0.00     0.005 A 
HETATM   16  C19 UNL     1      23.326   3.234  52.694  1.00  0.00     0.170 C 
HETATM   17  H1  UNL     1      21.111   4.305  51.463  1.00  0.00     0.170 HD
ENDROOT
BRANCH   3  18
HETATM   18  C2  UNL     1      19.235   3.375  50.727  1.00  0.00     0.036 A 
HETATM   19  C3  UNL     1      18.133   3.643  51.528  1.00  0.00     0.029 A 
HETATM   20  C4  UNL     1      16.862   3.564  50.956  1.00  0.00     0.002 A 
HETATM   21  C5  UNL     1      16.698   3.229  49.629  1.00  0.00     0.000 A 
HETATM   22  C6  UNL     1      17.805   2.963  48.836  1.00  0.00     0.002 A 
HETATM   23  C7  UNL     1      19.083   3.037  49.390  1.00  0.00     0.029 A 
ENDBRANCH   3  18
BRANCH  14  24
HETATM   24  O2  UNL     1      23.743   5.135  51.122  1.00  0.00    -0.359 OA
HETATM   25  H14 UNL     1      22.963   4.938  51.746  1.00  0.00     0.217 HD
ENDBRANCH  14  24
BRANCH   8  26
HETATM   26  C12 UNL     1      26.753  -0.132  51.998  1.00  0.00     0.262 C 
HETATM   27  F1  UNL     1      26.456  -1.407  52.550  1.00  0.00    -0.251 F 
ENDBRANCH   8  26
TORSDOF 3
ENDMDL
MODEL 7
REMARK VINA RESULT:      -7.3      4.239      8.426
REMARK  3 active torsions:
REMARK  status: ('A' for Active; 'I' for Inactive)
REMARK       I    between atoms: C1_2  and  N1_3 
REMARK       I    between atoms: C1_2  and  N2_10 
REMARK    1  A    between atoms: N1_3  and  C2_4 
REMARK    2  A    between atoms: C11_14  and  C12_15 
REMARK    3  A    between atoms: C17_22  and  O2_23 
ROOT
HETATM    1  O1  UNL     1      18.865  -1.471  52.767  1.00  0.00    -0.247 OA
HETATM    2  C1  UNL     1      19.054  -0.242  52.697  1.00  0.00     0.323 C 
HETATM    3  N1  UNL     1      18.191   0.626  52.010  1.00  0.00    -0.309 N 
HETATM    4  N2  UNL     1      20.261   0.060  53.425  1.00  0.00    -0.326 N 
HETATM    5  C8  UNL     1      20.596  -1.265  53.844  1.00  0.00     0.156 C 
HETATM    6  C9  UNL     1      21.852  -1.364  54.623  1.00  0.00     0.006 C 
HETATM    7  C10 UNL     1      23.027  -0.893  54.812  1.00  0.00    -0.018 C 
HETATM    8  C11 UNL     1      23.741  -0.356  53.832  1.00  0.00    -0.008 C 
HETATM    9  C13 UNL     1      23.195   0.729  52.987  1.00  0.00    -0.016 A 
HETATM   10  C14 UNL     1      24.257   0.983  52.146  1.00  0.00     0.014 A 
HETATM   11  C15 UNL     1      24.221   1.940  51.160  1.00  0.00     0.023 A 
HETATM   12  C16 UNL     1      23.068   2.694  50.989  1.00  0.00     0.044 A 
HETATM   13 BR1  UNL     1      22.862   4.041  49.685  1.00  0.00    -0.048 Br
HETATM   14  C17 UNL     1      21.996   2.460  51.813  1.00  0.00     0.091 A 
HETATM   15  C18 UNL     1      22.064   1.494  52.792  1.00  0.00     0.005 A 
HETATM   16  C19 UNL     1      20.791   1.421  53.555  1.00  0.00     0.170 C 
HETATM   17  H1  UNL     1      18.495   1.619  52.051  1.00  0.00     0.170 HD
ENDROOT
BRANCH   3  18
HETATM   18  C2  UNL     1      17.046   0.087  51.359  1.00  0.00     0.036 A 
HETATM   19  C3  UNL     1      17.128  -0.142  49.992  1.00  0.00     0.029 A 
HETATM   20  C4  UNL     1      16.013  -0.670  49.340  1.00  0.00     0.002 A 
HETATM   21  C5  UNL     1      14.855  -0.958  50.030  1.00  0.00     0.000 A 
HETATM   22  C6  UNL     1      14.781  -0.726  51.396  1.00  0.00     0.002 A 
HETATM   23  C7  UNL     1      15.886  -0.198  52.065  1.00  0.00     0.029 A 
ENDBRANCH   3  18
BRANCH  14  24
HETATM   24  O2  UNL     1      20.800   3.144  51.740  1.00  0.00    -0.359 OA
HETATM   25  H14 UNL     1      20.646   3.856  52.451  1.00  0.00     0.217 HD
ENDBRANCH  14  24
BRANCH   8  26
HETATM   26  C12 UNL     1      25.089  -0.834  53.574  1.00  0.00     0.262 C 
HETATM   27  F1  UNL     1      25.707  -0.685  54.843  1.00  0.00    -0.251 F 
ENDBRANCH   8  26
TORSDOF 3
ENDMDL
MODEL 8
REMARK VINA RESULT:      -7.3      1.861      2.493
REMARK  3 active torsions:
REMARK  status: ('A' for Active; 'I' for Inactive)
REMARK       I    between atoms: C1_2  and  N1_3 
REMARK       I    between atoms: C1_2  and  N2_10 
REMARK    1  A    between atoms: N1_3  and  C2_4 
REMARK    2  A    between atoms: C11_14  and  C12_15 
REMARK    3  A    between atoms: C17_22  and  O2_23 
ROOT
HETATM    1  O1  UNL     1      24.712   2.190  51.020  1.00  0.00    -0.247 OA
HETATM    2  C1  UNL     1      23.866   2.056  51.924  1.00  0.00     0.323 C 
HETATM    3  N1  UNL     1      24.111   1.327  53.099  1.00  0.00    -0.309 N 
HETATM    4  N2  UNL     1      22.676   2.765  51.522  1.00  0.00    -0.326 N 
HETATM    5  C8  UNL     1      23.133   3.251  50.258  1.00  0.00     0.156 C 
HETATM    6  C9  UNL     1      22.127   4.031  49.501  1.00  0.00     0.006 C 
HETATM    7  C10 UNL     1      20.886   4.193  49.235  1.00  0.00    -0.018 C 
HETATM    8  C11 UNL     1      20.025   3.185  49.234  1.00  0.00    -0.008 C 
HETATM    9  C13 UNL     1      19.891   2.286  50.402  1.00  0.00    -0.016 A 
HETATM   10  C14 UNL     1      18.897   1.431  49.977  1.00  0.00     0.014 A 
HETATM   11  C15 UNL     1      18.418   0.396  50.746  1.00  0.00     0.023 A 
HETATM   12  C16 UNL     1      18.951   0.189  52.011  1.00  0.00     0.044 A 
HETATM   13 BR1  UNL     1      18.404  -1.183  53.184  1.00  0.00    -0.048 Br
HETATM   14  C17 UNL     1      19.943   1.027  52.457  1.00  0.00     0.091 A 
HETATM   15  C18 UNL     1      20.399   2.054  51.662  1.00  0.00     0.005 A 
HETATM   16  C19 UNL     1      21.468   2.822  52.352  1.00  0.00     0.170 C 
HETATM   17  H1  UNL     1      23.300   1.316  53.747  1.00  0.00     0.170 HD
ENDROOT
BRANCH   3  18
HETATM   18  C2  UNL     1      25.380   0.707  53.273  1.00  0.00     0.036 A 
HETATM   19  C3  UNL     1      26.337   1.392  54.009  1.00  0.00     0.029 A 
HETATM   20  C4  UNL     1      27.588   0.798  54.188  1.00  0.00     0.002 A 
HETATM   21  C5  UNL     1      27.871  -0.439  53.650  1.00  0.00     0.000 A 
HETATM   22  C6  UNL     1      26.909  -1.117  52.915  1.00  0.00     0.002 A 
HETATM   23  C7  UNL     1      25.653  -0.539  52.725  1.00  0.00     0.029 A 
ENDBRANCH   3  18
BRANCH  14  24
HETATM   24  O2  UNL     1      20.547   0.921  53.692  1.00  0.00    -0.359 OA
HETATM   25  H14 UNL     1      20.900  -0.001  53.942  1.00  0.00     0.217 HD
ENDBRANCH  14  24
BRANCH   8  26
HETATM   26  C12 UNL     1      19.188   2.948  48.069  1.00  0.00     0.262 C 
HETATM   27  F1  UNL     1      20.150   2.824  47.031  1.00  0.00    -0.251 F 
ENDBRANCH   8  26
TORSDOF 3
ENDMDL
MODEL 9
REMARK VINA RESULT:      -7.2      4.324      6.323
REMARK  3 active torsions:
REMARK  status: ('A' for Active; 'I' for Inactive)
REMARK       I    between atoms: C1_2  and  N1_3 
REMARK       I    between atoms: C1_2  and  N2_10 
REMARK    1  A    between atoms: N1_3  and  C2_4 
REMARK    2  A    between atoms: C11_14  and  C12_15 
REMARK    3  A    between atoms: C17_22  and  O2_23 
ROOT
HETATM    1  O1  UNL     1      24.890   3.032  50.096  1.00  0.00    -0.247 OA
HETATM    2  C1  UNL     1      24.334   3.946  50.734  1.00  0.00     0.323 C 
HETATM    3  N1  UNL     1      23.294   3.718  51.648  1.00  0.00    -0.309 N 
HETATM    4  N2  UNL     1      24.954   5.190  50.349  1.00  0.00    -0.326 N 
HETATM    5  C8  UNL     1      25.902   4.677  49.411  1.00  0.00     0.156 C 
HETATM    6  C9  UNL     1      26.736   5.709  48.753  1.00  0.00     0.006 C 
HETATM    7  C10 UNL     1      26.794   6.911  48.316  1.00  0.00    -0.018 C 
HETATM    8  C11 UNL     1      25.731   7.541  47.837  1.00  0.00    -0.008 C 
HETATM    9  C13 UNL     1      24.480   7.646  48.620  1.00  0.00    -0.016 A 
HETATM   10  C14 UNL     1      23.683   8.380  47.768  1.00  0.00     0.014 A 
HETATM   11  C15 UNL     1      22.391   8.738  48.072  1.00  0.00     0.023 A 
HETATM   12  C16 UNL     1      21.847   8.349  49.289  1.00  0.00     0.044 A 
HETATM   13 BR1  UNL     1      20.094   8.759  49.851  1.00  0.00    -0.048 Br
HETATM   14  C17 UNL     1      22.620   7.615  50.155  1.00  0.00     0.091 A 
HETATM   15  C18 UNL     1      23.911   7.274  49.820  1.00  0.00     0.005 A 
HETATM   16  C19 UNL     1      24.548   6.485  50.907  1.00  0.00     0.170 C 
HETATM   17  H1  UNL     1      22.945   4.590  52.093  1.00  0.00     0.170 HD
ENDROOT
BRANCH   3  18
HETATM   18  C2  UNL     1      22.846   2.384  51.864  1.00  0.00     0.036 A 
HETATM   19  C3  UNL     1      23.416   1.673  52.911  1.00  0.00     0.029 A 
HETATM   20  C4  UNL     1      22.987   0.363  53.134  1.00  0.00     0.002 A 
HETATM   21  C5  UNL     1      22.022  -0.215  52.338  1.00  0.00     0.000 A 
HETATM   22  C6  UNL     1      21.457   0.503  51.294  1.00  0.00     0.002 A 
HETATM   23  C7  UNL     1      21.873   1.814  51.055  1.00  0.00     0.029 A 
ENDBRANCH   3  18
BRANCH  14  24
HETATM   24  O2  UNL     1      22.192   7.173  51.388  1.00  0.00    -0.359 OA
HETATM   25  H14 UNL     1      22.846   6.593  51.909  1.00  0.00     0.217 HD
ENDBRANCH  14  24
BRANCH   8  26
HETATM   26  C12 UNL     1      25.783   8.149  46.518  1.00  0.00     0.262 C 
HETATM   27  F1  UNL     1      26.827   9.101  46.669  1.00  0.00    -0.251 F 
ENDBRANCH   8  26
TORSDOF 3
ENDMDL
