MODEL 1
REMARK VINA RESULT:      -8.0      0.000      0.000
REMARK  7 active torsions:
REMARK  status: ('A' for Active; 'I' for Inactive)
REMARK    1  A    between atoms: C3_3  and  N1_4 
REMARK    2  A    between atoms: C3_3  and  C11_14 
REMARK    3  A    between atoms: N1_4  and  C4_5 
REMARK    4  A    between atoms: C4_5  and  C5_6 
REMARK    5  A    between atoms: C10_11  and  O1_12 
REMARK    6  A    between atoms: C14_19  and  N4_20 
REMARK    7  A    between atoms: N4_20  and  C15_21 
ROOT
HETATM    1  C11 UNL     1      25.818   1.137  53.525  1.00  0.00     0.124 A 
HETATM    2  C12 UNL     1      26.744   0.960  54.681  1.00  0.00     0.168 A 
HETATM    3  N2  UNL     1      28.070   1.433  54.540  1.00  0.00    -0.282 NA
HETATM    4  C13 UNL     1      28.538   2.000  53.519  1.00  0.00     0.228 A 
HETATM    5  N3  UNL     1      27.701   2.211  52.366  1.00  0.00    -0.228 NA
HETATM    6  C14 UNL     1      26.464   1.807  52.396  1.00  0.00     0.117 A 
ENDROOT
BRANCH   1   7
HETATM    7  C3  UNL     1      25.264  -0.198  53.175  1.00  0.00     0.014 C 
HETATM    8  C2  UNL     1      26.049  -1.233  52.838  1.00  0.00    -0.006 C 
HETATM    9  C1  UNL     1      27.490  -1.465  52.691  1.00  0.00     0.038 C 
BRANCH   7  10
HETATM   10  N1  UNL     1      23.857  -0.364  53.206  1.00  0.00    -0.388 N 
HETATM   11  H5  UNL     1      23.759  -1.297  52.737  1.00  0.00     0.159 HD
BRANCH  10  12
HETATM   12  C4  UNL     1      22.728   0.384  53.685  1.00  0.00     0.161 C 
BRANCH  12  13
HETATM   13  C5  UNL     1      21.533   0.318  52.841  1.00  0.00    -0.006 A 
HETATM   14  C6  UNL     1      20.388  -0.215  53.441  1.00  0.00     0.011 A 
HETATM   15  C7  UNL     1      19.180  -0.341  52.781  1.00  0.00     0.001 A 
HETATM   16  C8  UNL     1      19.108   0.080  51.470  1.00  0.00     0.003 A 
HETATM   17  C9  UNL     1      20.262   0.608  50.889  1.00  0.00     0.038 A 
HETATM   18  C10 UNL     1      21.462   0.738  51.531  1.00  0.00     0.092 A 
BRANCH  18  19
HETATM   19  O1  UNL     1      22.587   1.258  50.949  1.00  0.00    -0.270 OA
HETATM   20 BR1  UNL     1      22.456   2.036  49.261  1.00  0.00     0.105 Br
ENDBRANCH  18  19
ENDBRANCH  12  13
ENDBRANCH  10  12
ENDBRANCH   7  10
ENDBRANCH   1   7
BRANCH   6  21
HETATM   21  N4  UNL     1      25.748   2.083  51.197  1.00  0.00    -0.344 N 
HETATM   22  H16 UNL     1      25.125   1.333  50.770  1.00  0.00     0.167 HD
BRANCH  21  23
HETATM   23  C15 UNL     1      25.821   3.349  50.509  1.00  0.00     0.033 A 
HETATM   24  C16 UNL     1      26.712   3.660  49.510  1.00  0.00     0.029 A 
HETATM   25  C17 UNL     1      26.678   4.914  48.932  1.00  0.00     0.002 A 
HETATM   26  C18 UNL     1      25.770   5.880  49.325  1.00  0.00     0.000 A 
HETATM   27  C19 UNL     1      24.871   5.574  50.330  1.00  0.00     0.002 A 
HETATM   28  C20 UNL     1      24.917   4.308  50.902  1.00  0.00     0.029 A 
ENDBRANCH  21  23
ENDBRANCH   6  21
TORSDOF 7
ENDMDL
MODEL 2
REMARK VINA RESULT:      -7.9      2.888      6.774
REMARK  7 active torsions:
REMARK  status: ('A' for Active; 'I' for Inactive)
REMARK    1  A    between atoms: C3_3  and  N1_4 
REMARK    2  A    between atoms: C3_3  and  C11_14 
REMARK    3  A    between atoms: N1_4  and  C4_5 
REMARK    4  A    between atoms: C4_5  and  C5_6 
REMARK    5  A    between atoms: C10_11  and  O1_12 
REMARK    6  A    between atoms: C14_19  and  N4_20 
REMARK    7  A    between atoms: N4_20  and  C15_21 
ROOT
HETATM    1  C11 UNL     1      23.578   2.941  52.474  1.00  0.00     0.124 A 
HETATM    2  C12 UNL     1      23.560   4.425  52.626  1.00  0.00     0.168 A 
HETATM    3  N2  UNL     1      22.516   5.139  51.991  1.00  0.00    -0.282 NA
HETATM    4  C13 UNL     1      21.591   4.627  51.309  1.00  0.00     0.228 A 
HETATM    5  N3  UNL     1      21.540   3.199  51.124  1.00  0.00    -0.228 NA
HETATM    6  C14 UNL     1      22.460   2.454  51.667  1.00  0.00     0.117 A 
ENDROOT
BRANCH   1   7
HETATM    7  C3  UNL     1      24.906   2.554  51.929  1.00  0.00     0.014 C 
HETATM    8  C2  UNL     1      25.292   2.877  50.685  1.00  0.00    -0.006 C 
HETATM    9  C1  UNL     1      24.707   3.596  49.549  1.00  0.00     0.038 C 
BRANCH   7  10
HETATM   10  N1  UNL     1      25.782   1.821  52.768  1.00  0.00    -0.388 N 
HETATM   11  H5  UNL     1      26.667   2.373  52.659  1.00  0.00     0.159 HD
BRANCH  10  12
HETATM   12  C4  UNL     1      25.696   0.655  53.603  1.00  0.00     0.161 C 
BRANCH  12  13
HETATM   13  C5  UNL     1      26.799  -0.299  53.458  1.00  0.00    -0.006 A 
HETATM   14  C6  UNL     1      26.510  -1.465  52.744  1.00  0.00     0.011 A 
HETATM   15  C7  UNL     1      27.443  -2.460  52.515  1.00  0.00     0.001 A 
HETATM   16  C8  UNL     1      28.714  -2.287  53.018  1.00  0.00     0.003 A 
HETATM   17  C9  UNL     1      28.982  -1.115  53.729  1.00  0.00     0.038 A 
HETATM   18  C10 UNL     1      28.070  -0.125  53.962  1.00  0.00     0.092 A 
BRANCH  18  19
HETATM   19  O1  UNL     1      28.345   1.019  54.660  1.00  0.00    -0.270 OA
HETATM   20 BR1  UNL     1      29.134   2.455  53.772  1.00  0.00     0.105 Br
ENDBRANCH  18  19
ENDBRANCH  12  13
ENDBRANCH  10  12
ENDBRANCH   7  10
ENDBRANCH   1   7
BRANCH   6  21
HETATM   21  N4  UNL     1      22.287   1.064  51.411  1.00  0.00    -0.344 N 
HETATM   22  H16 UNL     1      22.531   0.670  50.453  1.00  0.00     0.167 HD
BRANCH  21  23
HETATM   23  C15 UNL     1      21.787   0.138  52.398  1.00  0.00     0.033 A 
HETATM   24  C16 UNL     1      22.560  -0.707  53.159  1.00  0.00     0.029 A 
HETATM   25  C17 UNL     1      21.955  -1.549  54.070  1.00  0.00     0.002 A 
HETATM   26  C18 UNL     1      20.584  -1.575  54.249  1.00  0.00     0.000 A 
HETATM   27  C19 UNL     1      19.800  -0.729  53.488  1.00  0.00     0.002 A 
HETATM   28  C20 UNL     1      20.423   0.114  52.574  1.00  0.00     0.029 A 
ENDBRANCH  21  23
ENDBRANCH   6  21
TORSDOF 7
ENDMDL
MODEL 3
REMARK VINA RESULT:      -7.9      2.749      7.037
REMARK  7 active torsions:
REMARK  status: ('A' for Active; 'I' for Inactive)
REMARK    1  A    between atoms: C3_3  and  N1_4 
REMARK    2  A    between atoms: C3_3  and  C11_14 
REMARK    3  A    between atoms: N1_4  and  C4_5 
REMARK    4  A    between atoms: C4_5  and  C5_6 
REMARK    5  A    between atoms: C10_11  and  O1_12 
REMARK    6  A    between atoms: C14_19  and  N4_20 
REMARK    7  A    between atoms: N4_20  and  C15_21 
ROOT
HETATM    1  C11 UNL     1      23.194   3.541  52.052  1.00  0.00     0.124 A 
HETATM    2  C12 UNL     1      22.856   4.993  52.011  1.00  0.00     0.168 A 
HETATM    3  N2  UNL     1      21.562   5.355  51.569  1.00  0.00    -0.282 NA
HETATM    4  C13 UNL     1      20.661   4.553  51.211  1.00  0.00     0.228 A 
HETATM    5  N3  UNL     1      20.913   3.134  51.231  1.00  0.00    -0.228 NA
HETATM    6  C14 UNL     1      22.078   2.701  51.619  1.00  0.00     0.117 A 
ENDROOT
BRANCH   1   7
HETATM    7  C3  UNL     1      24.428   3.335  51.248  1.00  0.00     0.014 C 
HETATM    8  C2  UNL     1      24.460   3.536  49.921  1.00  0.00    -0.006 C 
HETATM    9  C1  UNL     1      23.504   3.952  48.891  1.00  0.00     0.038 C 
BRANCH   7  10
HETATM   10  N1  UNL     1      25.601   2.916  51.923  1.00  0.00    -0.388 N 
HETATM   11  H5  UNL     1      25.315   3.059  52.922  1.00  0.00     0.159 HD
BRANCH  10  12
HETATM   12  C4  UNL     1      26.895   2.413  51.554  1.00  0.00     0.161 C 
BRANCH  12  13
HETATM   13  C5  UNL     1      27.615   1.705  52.615  1.00  0.00    -0.006 A 
HETATM   14  C6  UNL     1      28.416   2.495  53.444  1.00  0.00     0.011 A 
HETATM   15  C7  UNL     1      29.155   1.979  54.493  1.00  0.00     0.001 A 
HETATM   16  C8  UNL     1      29.093   0.622  54.726  1.00  0.00     0.003 A 
HETATM   17  C9  UNL     1      28.287  -0.150  53.886  1.00  0.00     0.038 A 
HETATM   18  C10 UNL     1      27.553   0.348  52.847  1.00  0.00     0.092 A 
BRANCH  18  19
HETATM   19  O1  UNL     1      26.767  -0.419  52.031  1.00  0.00    -0.270 OA
HETATM   20 BR1  UNL     1      26.753  -2.268  52.265  1.00  0.00     0.105 Br
ENDBRANCH  18  19
ENDBRANCH  12  13
ENDBRANCH  10  12
ENDBRANCH   7  10
ENDBRANCH   1   7
BRANCH   6  21
HETATM   21  N4  UNL     1      22.190   1.282  51.596  1.00  0.00    -0.344 N 
HETATM   22  H16 UNL     1      22.209   0.769  50.664  1.00  0.00     0.167 HD
BRANCH  21  23
HETATM   23  C15 UNL     1      22.279   0.479  52.792  1.00  0.00     0.033 A 
HETATM   24  C16 UNL     1      21.227   0.167  53.620  1.00  0.00     0.029 A 
HETATM   25  C17 UNL     1      21.446  -0.612  54.738  1.00  0.00     0.002 A 
HETATM   26  C18 UNL     1      22.701  -1.098  55.060  1.00  0.00     0.000 A 
HETATM   27  C19 UNL     1      23.764  -0.788  54.233  1.00  0.00     0.002 A 
HETATM   28  C20 UNL     1      23.527  -0.002  53.110  1.00  0.00     0.029 A 
ENDBRANCH  21  23
ENDBRANCH   6  21
TORSDOF 7
ENDMDL
MODEL 4
REMARK VINA RESULT:      -7.8      2.108      3.684
REMARK  7 active torsions:
REMARK  status: ('A' for Active; 'I' for Inactive)
REMARK    1  A    between atoms: C3_3  and  N1_4 
REMARK    2  A    between atoms: C3_3  and  C11_14 
REMARK    3  A    between atoms: N1_4  and  C4_5 
REMARK    4  A    between atoms: C4_5  and  C5_6 
REMARK    5  A    between atoms: C10_11  and  O1_12 
REMARK    6  A    between atoms: C14_19  and  N4_20 
REMARK    7  A    between atoms: N4_20  and  C15_21 
ROOT
HETATM    1  C11 UNL     1      24.657   3.469  51.682  1.00  0.00     0.124 A 
HETATM    2  C12 UNL     1      24.741   2.919  53.066  1.00  0.00     0.168 A 
HETATM    3  N2  UNL     1      25.835   2.076  53.374  1.00  0.00    -0.282 NA
HETATM    4  C13 UNL     1      26.753   1.752  52.577  1.00  0.00     0.228 A 
HETATM    5  N3  UNL     1      26.742   2.249  51.226  1.00  0.00    -0.228 NA
HETATM    6  C14 UNL     1      25.773   3.032  50.844  1.00  0.00     0.117 A 
ENDROOT
BRANCH   1   7
HETATM    7  C3  UNL     1      23.328   3.103  51.125  1.00  0.00     0.014 C 
HETATM    8  C2  UNL     1      22.355   4.009  50.941  1.00  0.00    -0.006 C 
HETATM    9  C1  UNL     1      22.196   5.450  51.160  1.00  0.00     0.038 C 
BRANCH   7  10
HETATM   10  N1  UNL     1      23.100   1.748  50.780  1.00  0.00    -0.388 N 
HETATM   11  H5  UNL     1      24.004   1.510  50.305  1.00  0.00     0.159 HD
BRANCH  10  12
HETATM   12  C4  UNL     1      22.035   0.796  50.936  1.00  0.00     0.161 C 
BRANCH  12  13
HETATM   13  C5  UNL     1      21.838   0.298  52.300  1.00  0.00    -0.006 A 
HETATM   14  C6  UNL     1      22.955  -0.284  52.906  1.00  0.00     0.011 A 
HETATM   15  C7  UNL     1      22.936  -0.796  54.190  1.00  0.00     0.001 A 
HETATM   16  C8  UNL     1      21.756  -0.726  54.900  1.00  0.00     0.003 A 
HETATM   17  C9  UNL     1      20.651  -0.141  54.276  1.00  0.00     0.038 A 
HETATM   18  C10 UNL     1      20.659   0.368  53.008  1.00  0.00     0.092 A 
BRANCH  18  19
HETATM   19  O1  UNL     1      19.569   0.939  52.409  1.00  0.00    -0.270 OA
HETATM   20 BR1  UNL     1      18.275  -0.163  51.645  1.00  0.00     0.105 Br
ENDBRANCH  18  19
ENDBRANCH  12  13
ENDBRANCH  10  12
ENDBRANCH   7  10
ENDBRANCH   1   7
BRANCH   6  21
HETATM   21  N4  UNL     1      25.887   3.455  49.490  1.00  0.00    -0.344 N 
HETATM   22  H16 UNL     1      25.553   2.815  48.708  1.00  0.00     0.167 HD
BRANCH  21  23
HETATM   23  C15 UNL     1      26.443   4.730  49.107  1.00  0.00     0.033 A 
HETATM   24  C16 UNL     1      25.778   5.932  49.151  1.00  0.00     0.029 A 
HETATM   25  C17 UNL     1      26.426   7.085  48.754  1.00  0.00     0.002 A 
HETATM   26  C18 UNL     1      27.735   7.075  48.308  1.00  0.00     0.000 A 
HETATM   27  C19 UNL     1      28.411   5.870  48.261  1.00  0.00     0.002 A 
HETATM   28  C20 UNL     1      27.745   4.718  48.664  1.00  0.00     0.029 A 
ENDBRANCH  21  23
ENDBRANCH   6  21
TORSDOF 7
ENDMDL
MODEL 5
REMARK VINA RESULT:      -7.7      2.565      5.931
REMARK  7 active torsions:
REMARK  status: ('A' for Active; 'I' for Inactive)
REMARK    1  A    between atoms: C3_3  and  N1_4 
REMARK    2  A    between atoms: C3_3  and  C11_14 
REMARK    3  A    between atoms: N1_4  and  C4_5 
REMARK    4  A    between atoms: C4_5  and  C5_6 
REMARK    5  A    between atoms: C10_11  and  O1_12 
REMARK    6  A    between atoms: C14_19  and  N4_20 
REMARK    7  A    between atoms: N4_20  and  C15_21 
ROOT
HETATM    1  C11 UNL     1      24.311   3.419  50.528  1.00  0.00     0.124 A 
HETATM    2  C12 UNL     1      23.575   2.125  50.428  1.00  0.00     0.168 A 
HETATM    3  N2  UNL     1      22.509   1.903  51.332  1.00  0.00    -0.282 NA
HETATM    4  C13 UNL     1      22.121   2.710  52.216  1.00  0.00     0.228 A 
HETATM    5  N3  UNL     1      22.779   3.982  52.367  1.00  0.00    -0.228 NA
HETATM    6  C14 UNL     1      23.776   4.280  51.582  1.00  0.00     0.117 A 
ENDROOT
BRANCH   1   7
HETATM    7  C3  UNL     1      25.755   3.112  50.699  1.00  0.00     0.014 C 
HETATM    8  C2  UNL     1      26.706   3.713  49.967  1.00  0.00    -0.006 C 
HETATM    9  C1  UNL     1      26.744   4.719  48.901  1.00  0.00     0.038 C 
BRANCH   7  10
HETATM   10  N1  UNL     1      26.122   2.151  51.674  1.00  0.00    -0.388 N 
HETATM   11  H5  UNL     1      25.559   1.325  51.358  1.00  0.00     0.159 HD
BRANCH  10  12
HETATM   12  C4  UNL     1      26.981   2.108  52.825  1.00  0.00     0.161 C 
BRANCH  12  13
HETATM   13  C5  UNL     1      27.705   0.849  53.016  1.00  0.00    -0.006 A 
HETATM   14  C6  UNL     1      29.044   0.964  53.397  1.00  0.00     0.011 A 
HETATM   15  C7  UNL     1      29.862  -0.128  53.622  1.00  0.00     0.001 A 
HETATM   16  C8  UNL     1      29.323  -1.387  53.460  1.00  0.00     0.003 A 
HETATM   17  C9  UNL     1      27.983  -1.481  53.078  1.00  0.00     0.038 A 
HETATM   18  C10 UNL     1      27.166  -0.409  52.854  1.00  0.00     0.092 A 
BRANCH  18  19
HETATM   19  O1  UNL     1      25.853  -0.515  52.480  1.00  0.00    -0.270 OA
HETATM   20 BR1  UNL     1      24.532  -0.472  53.793  1.00  0.00     0.105 Br
ENDBRANCH  18  19
ENDBRANCH  12  13
ENDBRANCH  10  12
ENDBRANCH   7  10
ENDBRANCH   1   7
BRANCH   6  21
HETATM   21  N4  UNL     1      24.330   5.567  51.834  1.00  0.00    -0.344 N 
HETATM   22  H16 UNL     1      24.903   5.731  52.716  1.00  0.00     0.167 HD
BRANCH  21  23
HETATM   23  C15 UNL     1      24.154   6.688  50.944  1.00  0.00     0.033 A 
HETATM   24  C16 UNL     1      22.952   7.113  50.430  1.00  0.00     0.029 A 
HETATM   25  C17 UNL     1      22.920   8.204  49.584  1.00  0.00     0.002 A 
HETATM   26  C18 UNL     1      24.065   8.894  49.231  1.00  0.00     0.000 A 
HETATM   27  C19 UNL     1      25.277   8.473  49.745  1.00  0.00     0.002 A 
HETATM   28  C20 UNL     1      25.294   7.373  50.595  1.00  0.00     0.029 A 
ENDBRANCH  21  23
ENDBRANCH   6  21
TORSDOF 7
ENDMDL
MODEL 6
REMARK VINA RESULT:      -7.7      2.650      5.269
REMARK  7 active torsions:
REMARK  status: ('A' for Active; 'I' for Inactive)
REMARK    1  A    between atoms: C3_3  and  N1_4 
REMARK    2  A    between atoms: C3_3  and  C11_14 
REMARK    3  A    between atoms: N1_4  and  C4_5 
REMARK    4  A    between atoms: C4_5  and  C5_6 
REMARK    5  A    between atoms: C10_11  and  O1_12 
REMARK    6  A    between atoms: C14_19  and  N4_20 
REMARK    7  A    between atoms: N4_20  and  C15_21 
ROOT
HETATM    1  C11 UNL     1      23.110   3.276  50.672  1.00  0.00     0.124 A 
HETATM    2  C12 UNL     1      22.781   3.750  49.297  1.00  0.00     0.168 A 
HETATM    3  N2  UNL     1      23.742   4.543  48.627  1.00  0.00    -0.282 NA
HETATM    4  C13 UNL     1      24.861   4.882  49.092  1.00  0.00     0.228 A 
HETATM    5  N3  UNL     1      25.250   4.456  50.411  1.00  0.00    -0.228 NA
HETATM    6  C14 UNL     1      24.431   3.723  51.110  1.00  0.00     0.117 A 
ENDROOT
BRANCH   1   7
HETATM    7  C3  UNL     1      22.014   3.709  51.579  1.00  0.00     0.014 C 
HETATM    8  C2  UNL     1      21.657   4.996  51.707  1.00  0.00    -0.006 C 
HETATM    9  C1  UNL     1      22.092   6.276  51.139  1.00  0.00     0.038 C 
BRANCH   7  10
HETATM   10  N1  UNL     1      21.332   2.714  52.324  1.00  0.00    -0.388 N 
HETATM   11  H5  UNL     1      21.368   3.129  53.286  1.00  0.00     0.159 HD
BRANCH  10  12
HETATM   12  C4  UNL     1      20.704   1.451  52.048  1.00  0.00     0.161 C 
BRANCH  12  13
HETATM   13  C5  UNL     1      21.108   0.350  52.926  1.00  0.00    -0.006 A 
HETATM   14  C6  UNL     1      22.471   0.272  53.223  1.00  0.00     0.011 A 
HETATM   15  C7  UNL     1      23.011  -0.705  54.040  1.00  0.00     0.001 A 
HETATM   16  C8  UNL     1      22.158  -1.643  54.582  1.00  0.00     0.003 A 
HETATM   17  C9  UNL     1      20.800  -1.548  54.272  1.00  0.00     0.038 A 
HETATM   18  C10 UNL     1      20.255  -0.588  53.466  1.00  0.00     0.092 A 
BRANCH  18  19
HETATM   19  O1  UNL     1      18.922  -0.506  53.171  1.00  0.00    -0.270 OA
HETATM   20 BR1  UNL     1      17.838  -1.995  53.458  1.00  0.00     0.105 Br
ENDBRANCH  18  19
ENDBRANCH  12  13
ENDBRANCH  10  12
ENDBRANCH   7  10
ENDBRANCH   1   7
BRANCH   6  21
HETATM   21  N4  UNL     1      24.942   3.368  52.391  1.00  0.00    -0.344 N 
HETATM   22  H16 UNL     1      24.878   4.061  53.195  1.00  0.00     0.167 HD
BRANCH  21  23
HETATM   23  C15 UNL     1      25.557   2.092  52.668  1.00  0.00     0.033 A 
HETATM   24  C16 UNL     1      25.823   1.119  51.734  1.00  0.00     0.029 A 
HETATM   25  C17 UNL     1      26.416  -0.063  52.131  1.00  0.00     0.002 A 
HETATM   26  C18 UNL     1      26.757  -0.308  53.449  1.00  0.00     0.000 A 
HETATM   27  C19 UNL     1      26.493   0.667  54.394  1.00  0.00     0.002 A 
HETATM   28  C20 UNL     1      25.895   1.852  53.979  1.00  0.00     0.029 A 
ENDBRANCH  21  23
ENDBRANCH   6  21
TORSDOF 7
ENDMDL
MODEL 7
REMARK VINA RESULT:      -7.7      2.057      6.314
REMARK  7 active torsions:
REMARK  status: ('A' for Active; 'I' for Inactive)
REMARK    1  A    between atoms: C3_3  and  N1_4 
REMARK    2  A    between atoms: C3_3  and  C11_14 
REMARK    3  A    between atoms: N1_4  and  C4_5 
REMARK    4  A    between atoms: C4_5  and  C5_6 
REMARK    5  A    between atoms: C10_11  and  O1_12 
REMARK    6  A    between atoms: C14_19  and  N4_20 
REMARK    7  A    between atoms: N4_20  and  C15_21 
ROOT
HETATM    1  C11 UNL     1      23.771   1.752  52.501  1.00  0.00     0.124 A 
HETATM    2  C12 UNL     1      22.405   1.715  53.100  1.00  0.00     0.168 A 
HETATM    3  N2  UNL     1      21.989   0.512  53.715  1.00  0.00    -0.282 NA
HETATM    4  C13 UNL     1      22.678  -0.537  53.808  1.00  0.00     0.228 A 
HETATM    5  N3  UNL     1      24.009  -0.574  53.259  1.00  0.00    -0.228 NA
HETATM    6  C14 UNL     1      24.483   0.486  52.668  1.00  0.00     0.117 A 
ENDROOT
BRANCH   1   7
HETATM    7  C3  UNL     1      23.636   2.166  51.079  1.00  0.00     0.014 C 
HETATM    8  C2  UNL     1      22.675   1.678  50.280  1.00  0.00    -0.006 C 
HETATM    9  C1  UNL     1      21.569   0.725  50.415  1.00  0.00     0.038 C 
BRANCH   7  10
HETATM   10  N1  UNL     1      24.562   3.110  50.569  1.00  0.00    -0.388 N 
HETATM   11  H5  UNL     1      24.281   3.968  51.103  1.00  0.00     0.159 HD
BRANCH  10  12
HETATM   12  C4  UNL     1      25.636   3.109  49.615  1.00  0.00     0.161 C 
BRANCH  12  13
HETATM   13  C5  UNL     1      26.065   4.433  49.158  1.00  0.00    -0.006 A 
HETATM   14  C6  UNL     1      27.426   4.569  48.868  1.00  0.00     0.011 A 
HETATM   15  C7  UNL     1      27.987   5.751  48.422  1.00  0.00     0.001 A 
HETATM   16  C8  UNL     1      27.160   6.842  48.257  1.00  0.00     0.003 A 
HETATM   17  C9  UNL     1      25.805   6.685  48.552  1.00  0.00     0.038 A 
HETATM   18  C10 UNL     1      25.238   5.522  48.993  1.00  0.00     0.092 A 
BRANCH  18  19
HETATM   19  O1  UNL     1      23.907   5.382  49.279  1.00  0.00    -0.270 OA
HETATM   20 BR1  UNL     1      22.722   4.978  47.898  1.00  0.00     0.105 Br
ENDBRANCH  18  19
ENDBRANCH  12  13
ENDBRANCH  10  12
ENDBRANCH   7  10
ENDBRANCH   1   7
BRANCH   6  21
HETATM   21  N4  UNL     1      25.808   0.315  52.178  1.00  0.00    -0.344 N 
HETATM   22  H16 UNL     1      25.967  -0.170  51.244  1.00  0.00     0.167 HD
BRANCH  21  23
HETATM   23  C15 UNL     1      26.977   0.772  52.891  1.00  0.00     0.033 A 
HETATM   24  C16 UNL     1      27.470   2.055  52.868  1.00  0.00     0.029 A 
HETATM   25  C17 UNL     1      28.602   2.364  53.597  1.00  0.00     0.002 A 
HETATM   26  C18 UNL     1      29.265   1.419  54.358  1.00  0.00     0.000 A 
HETATM   27  C19 UNL     1      28.775   0.126  54.386  1.00  0.00     0.002 A 
HETATM   28  C20 UNL     1      27.635  -0.169  53.647  1.00  0.00     0.029 A 
ENDBRANCH  21  23
ENDBRANCH   6  21
TORSDOF 7
ENDMDL
MODEL 8
REMARK VINA RESULT:      -7.6      3.237      5.821
REMARK  7 active torsions:
REMARK  status: ('A' for Active; 'I' for Inactive)
REMARK    1  A    between atoms: C3_3  and  N1_4 
REMARK    2  A    between atoms: C3_3  and  C11_14 
REMARK    3  A    between atoms: N1_4  and  C4_5 
REMARK    4  A    between atoms: C4_5  and  C5_6 
REMARK    5  A    between atoms: C10_11  and  O1_12 
REMARK    6  A    between atoms: C14_19  and  N4_20 
REMARK    7  A    between atoms: N4_20  and  C15_21 
ROOT
HETATM    1  C11 UNL     1      25.105   5.255  49.266  1.00  0.00     0.124 A 
HETATM    2  C12 UNL     1      23.916   4.383  49.041  1.00  0.00     0.168 A 
HETATM    3  N2  UNL     1      22.819   4.526  49.923  1.00  0.00    -0.282 NA
HETATM    4  C13 UNL     1      22.757   5.334  50.885  1.00  0.00     0.228 A 
HETATM    5  N3  UNL     1      23.865   6.213  51.160  1.00  0.00    -0.228 NA
HETATM    6  C14 UNL     1      24.924   6.155  50.404  1.00  0.00     0.117 A 
ENDROOT
BRANCH   1   7
HETATM    7  C3  UNL     1      26.298   4.377  49.398  1.00  0.00     0.014 C 
HETATM    8  C2  UNL     1      27.494   4.713  48.890  1.00  0.00    -0.006 C 
HETATM    9  C1  UNL     1      28.044   5.845  48.138  1.00  0.00     0.038 C 
BRANCH   7  10
HETATM   10  N1  UNL     1      26.148   3.149  50.088  1.00  0.00    -0.388 N 
HETATM   11  H5  UNL     1      25.461   2.656  49.468  1.00  0.00     0.159 HD
BRANCH  10  12
HETATM   12  C4  UNL     1      26.678   2.552  51.283  1.00  0.00     0.161 C 
BRANCH  12  13
HETATM   13  C5  UNL     1      25.784   1.606  51.956  1.00  0.00    -0.006 A 
HETATM   14  C6  UNL     1      24.427   1.938  51.953  1.00  0.00     0.011 A 
HETATM   15  C7  UNL     1      23.455   1.148  52.540  1.00  0.00     0.001 A 
HETATM   16  C8  UNL     1      23.852  -0.020  53.156  1.00  0.00     0.003 A 
HETATM   17  C9  UNL     1      25.213  -0.333  53.149  1.00  0.00     0.038 A 
HETATM   18  C10 UNL     1      26.182   0.439  52.572  1.00  0.00     0.092 A 
BRANCH  18  19
HETATM   19  O1  UNL     1      27.513   0.120  52.571  1.00  0.00    -0.270 OA
HETATM   20 BR1  UNL     1      28.547   0.547  54.062  1.00  0.00     0.105 Br
ENDBRANCH  18  19
ENDBRANCH  12  13
ENDBRANCH  10  12
ENDBRANCH   7  10
ENDBRANCH   1   7
BRANCH   6  21
HETATM   21  N4  UNL     1      25.939   7.079  50.781  1.00  0.00    -0.344 N 
HETATM   22  H16 UNL     1      26.528   6.892  51.648  1.00  0.00     0.167 HD
BRANCH  21  23
HETATM   23  C15 UNL     1      26.222   8.285  50.040  1.00  0.00     0.033 A 
HETATM   24  C16 UNL     1      27.439   8.923  49.995  1.00  0.00     0.029 A 
HETATM   25  C17 UNL     1      27.578  10.074  49.246  1.00  0.00     0.002 A 
HETATM   26  C18 UNL     1      26.527  10.616  48.529  1.00  0.00     0.000 A 
HETATM   27  C19 UNL     1      25.300   9.979  48.569  1.00  0.00     0.002 A 
HETATM   28  C20 UNL     1      25.175   8.821  49.328  1.00  0.00     0.029 A 
ENDBRANCH  21  23
ENDBRANCH   6  21
TORSDOF 7
ENDMDL
MODEL 9
REMARK VINA RESULT:      -7.6      1.994      2.494
REMARK  7 active torsions:
REMARK  status: ('A' for Active; 'I' for Inactive)
REMARK    1  A    between atoms: C3_3  and  N1_4 
REMARK    2  A    between atoms: C3_3  and  C11_14 
REMARK    3  A    between atoms: N1_4  and  C4_5 
REMARK    4  A    between atoms: C4_5  and  C5_6 
REMARK    5  A    between atoms: C10_11  and  O1_12 
REMARK    6  A    between atoms: C14_19  and  N4_20 
REMARK    7  A    between atoms: N4_20  and  C15_21 
ROOT
HETATM    1  C11 UNL     1      26.027   0.969  53.844  1.00  0.00     0.124 A 
HETATM    2  C12 UNL     1      26.873   0.577  55.008  1.00  0.00     0.168 A 
HETATM    3  N2  UNL     1      28.271   0.767  54.900  1.00  0.00    -0.282 NA
HETATM    4  C13 UNL     1      28.867   1.247  53.901  1.00  0.00     0.228 A 
HETATM    5  N3  UNL     1      28.115   1.654  52.742  1.00  0.00    -0.228 NA
HETATM    6  C14 UNL     1      26.820   1.516  52.743  1.00  0.00     0.117 A 
ENDROOT
BRANCH   1   7
HETATM    7  C3  UNL     1      25.215  -0.212  53.450  1.00  0.00     0.014 C 
HETATM    8  C2  UNL     1      25.768  -1.320  52.931  1.00  0.00    -0.006 C 
HETATM    9  C1  UNL     1      27.122  -1.767  52.589  1.00  0.00     0.038 C 
BRANCH   7  10
HETATM   10  N1  UNL     1      23.812  -0.150  53.640  1.00  0.00    -0.388 N 
HETATM   11  H5  UNL     1      23.736   0.684  54.271  1.00  0.00     0.159 HD
BRANCH  10  12
HETATM   12  C4  UNL     1      22.665  -0.894  53.199  1.00  0.00     0.161 C 
BRANCH  12  13
HETATM   13  C5  UNL     1      21.703  -0.137  52.394  1.00  0.00    -0.006 A 
HETATM   14  C6  UNL     1      22.243   0.642  51.366  1.00  0.00     0.011 A 
HETATM   15  C7  UNL     1      21.469   1.409  50.515  1.00  0.00     0.001 A 
HETATM   16  C8  UNL     1      20.102   1.401  50.695  1.00  0.00     0.003 A 
HETATM   17  C9  UNL     1      19.583   0.617  51.727  1.00  0.00     0.038 A 
HETATM   18  C10 UNL     1      20.337  -0.146  52.574  1.00  0.00     0.092 A 
BRANCH  18  19
HETATM   19  O1  UNL     1      19.815  -0.910  53.582  1.00  0.00    -0.270 OA
HETATM   20 BR1  UNL     1      18.085  -1.579  53.408  1.00  0.00     0.105 Br
ENDBRANCH  18  19
ENDBRANCH  12  13
ENDBRANCH  10  12
ENDBRANCH   7  10
ENDBRANCH   1   7
BRANCH   6  21
HETATM   21  N4  UNL     1      26.202   1.962  51.541  1.00  0.00    -0.344 N 
HETATM   22  H16 UNL     1      26.547   1.598  50.603  1.00  0.00     0.167 HD
BRANCH  21  23
HETATM   23  C15 UNL     1      25.109   2.904  51.520  1.00  0.00     0.033 A 
HETATM   24  C16 UNL     1      24.392   3.314  52.619  1.00  0.00     0.029 A 
HETATM   25  C17 UNL     1      23.364   4.223  52.462  1.00  0.00     0.002 A 
HETATM   26  C18 UNL     1      23.025   4.743  51.226  1.00  0.00     0.000 A 
HETATM   27  C19 UNL     1      23.742   4.336  50.116  1.00  0.00     0.002 A 
HETATM   28  C20 UNL     1      24.774   3.420  50.290  1.00  0.00     0.029 A 
ENDBRANCH  21  23
ENDBRANCH   6  21
TORSDOF 7
ENDMDL
