MODEL 1
REMARK VINA RESULT:      -7.2      0.000      0.000
REMARK  7 active torsions:
REMARK  status: ('A' for Active; 'I' for Inactive)
REMARK    1  A    between atoms: C2_2  and  C3_3 
REMARK    2  A    between atoms: C4_4  and  C5_5 
REMARK    3  A    between atoms: C4_4  and  O3_23 
REMARK    4  A    between atoms: C8_8  and  N1_9 
REMARK    5  A    between atoms: N1_9  and  C9_10 
REMARK    6  A    between atoms: C12_13  and  O1_14 
REMARK    7  A    between atoms: C14_16  and  O2_17 
ROOT
HETATM    1  C5  UNL     1      25.685  -0.512  52.903  1.00  0.00     0.064 C 
HETATM    2  C6  UNL     1      24.701  -0.761  53.785  1.00  0.00     0.045 A 
HETATM    3  C7  UNL     1      23.315  -0.539  53.367  1.00  0.00     0.137 A 
HETATM    4  C8  UNL     1      22.381  -0.854  54.475  1.00  0.00     0.111 A 
HETATM    5  N2  UNL     1      22.804  -1.258  55.602  1.00  0.00    -0.228 NA
HETATM    6  C17 UNL     1      24.160  -1.464  55.967  1.00  0.00     0.235 A 
HETATM    7  N3  UNL     1      25.058  -1.219  55.079  1.00  0.00    -0.246 NA
ENDROOT
BRANCH   4   8
HETATM    8  N1  UNL     1      20.974  -0.721  54.348  1.00  0.00    -0.344 N 
HETATM    9  H10 UNL     1      20.421  -1.309  55.042  1.00  0.00     0.167 HD
BRANCH   8  10
HETATM   10  C9  UNL     1      20.260   0.084  53.431  1.00  0.00     0.036 A 
HETATM   11  C10 UNL     1      19.342  -0.538  52.576  1.00  0.00     0.032 A 
HETATM   12  C11 UNL     1      18.599   0.155  51.650  1.00  0.00     0.042 A 
HETATM   13  C12 UNL     1      18.725   1.518  51.520  1.00  0.00     0.101 A 
HETATM   14  C14 UNL     1      19.620   2.157  52.348  1.00  0.00     0.103 A 
HETATM   15  C16 UNL     1      20.343   1.422  53.260  1.00  0.00     0.069 A 
BRANCH  13  16
HETATM   16  O1  UNL     1      17.997   2.257  50.602  1.00  0.00    -0.353 OA
HETATM   17  C13 UNL     1      16.901   1.709  49.904  1.00  0.00     0.210 C 
ENDBRANCH  13  16
BRANCH  14  18
HETATM   18  O2  UNL     1      19.762   3.536  52.231  1.00  0.00    -0.353 OA
HETATM   19  C15 UNL     1      20.878   4.124  51.588  1.00  0.00     0.210 C 
ENDBRANCH  14  18
ENDBRANCH   8  10
ENDBRANCH   4   8
BRANCH   1  20
HETATM   20  C4  UNL     1      27.078  -0.715  53.268  1.00  0.00     0.066 C 
HETATM   21  C3  UNL     1      27.867   0.278  53.602  1.00  0.00     0.010 C 
BRANCH  21  22
HETATM   22  C2  UNL     1      27.626   1.730  53.704  1.00  0.00     0.025 C 
HETATM   23  C1  UNL     1      28.909   2.533  53.669  1.00  0.00     0.009 C 
ENDBRANCH  21  22
BRANCH  20  24
HETATM   24  O3  UNL     1      27.637  -1.984  53.275  1.00  0.00    -0.356 OA
HETATM   25  C18 UNL     1      29.045  -2.061  53.194  1.00  0.00     0.210 C 
ENDBRANCH  20  24
ENDBRANCH   1  20
TORSDOF 7
ENDMDL
MODEL 2
REMARK VINA RESULT:      -7.0      5.832      8.197
REMARK  7 active torsions:
REMARK  status: ('A' for Active; 'I' for Inactive)
REMARK    1  A    between atoms: C2_2  and  C3_3 
REMARK    2  A    between atoms: C4_4  and  C5_5 
REMARK    3  A    between atoms: C4_4  and  O3_23 
REMARK    4  A    between atoms: C8_8  and  N1_9 
REMARK    5  A    between atoms: N1_9  and  C9_10 
REMARK    6  A    between atoms: C12_13  and  O1_14 
REMARK    7  A    between atoms: C14_16  and  O2_17 
ROOT
HETATM    1  C5  UNL     1      26.760   0.728  52.011  1.00  0.00     0.064 C 
HETATM    2  C6  UNL     1      26.026   1.824  51.748  1.00  0.00     0.045 A 
HETATM    3  C7  UNL     1      26.318   2.586  50.532  1.00  0.00     0.137 A 
HETATM    4  C8  UNL     1      25.419   3.760  50.426  1.00  0.00     0.111 A 
HETATM    5  N2  UNL     1      24.539   4.001  51.309  1.00  0.00    -0.228 NA
HETATM    6  C17 UNL     1      24.285   3.234  52.475  1.00  0.00     0.235 A 
HETATM    7  N3  UNL     1      25.011   2.190  52.669  1.00  0.00    -0.246 NA
ENDROOT
BRANCH   4   8
HETATM    8  N1  UNL     1      25.487   4.678  49.346  1.00  0.00    -0.344 N 
HETATM    9  H10 UNL     1      24.592   4.735  48.771  1.00  0.00     0.167 HD
BRANCH   8  10
HETATM   10  C9  UNL     1      26.578   5.495  48.971  1.00  0.00     0.036 A 
HETATM   11  C10 UNL     1      27.769   4.873  48.578  1.00  0.00     0.032 A 
HETATM   12  C11 UNL     1      28.887   5.577  48.196  1.00  0.00     0.042 A 
HETATM   13  C12 UNL     1      28.884   6.952  48.181  1.00  0.00     0.101 A 
HETATM   14  C14 UNL     1      27.726   7.591  48.562  1.00  0.00     0.103 A 
HETATM   15  C16 UNL     1      26.632   6.845  48.937  1.00  0.00     0.069 A 
BRANCH  13  16
HETATM   16  O1  UNL     1      29.986   7.702  47.803  1.00  0.00    -0.353 OA
HETATM   17  C13 UNL     1      31.078   7.912  48.669  1.00  0.00     0.210 C 
ENDBRANCH  13  16
BRANCH  14  18
HETATM   18  O2  UNL     1      27.704   8.982  48.553  1.00  0.00    -0.353 OA
HETATM   19  C15 UNL     1      27.672   9.740  49.749  1.00  0.00     0.210 C 
ENDBRANCH  14  18
ENDBRANCH   8  10
ENDBRANCH   4   8
BRANCH   1  20
HETATM   20  C4  UNL     1      26.511  -0.064  53.205  1.00  0.00     0.066 C 
HETATM   21  C3  UNL     1      27.408  -0.204  54.152  1.00  0.00     0.010 C 
BRANCH  21  22
HETATM   22  C2  UNL     1      28.777   0.328  54.292  1.00  0.00     0.025 C 
HETATM   23  C1  UNL     1      29.821  -0.604  53.716  1.00  0.00     0.009 C 
ENDBRANCH  21  22
BRANCH  20  24
HETATM   24  O3  UNL     1      25.300  -0.713  53.392  1.00  0.00    -0.356 OA
HETATM   25  C18 UNL     1      24.861  -0.869  54.725  1.00  0.00     0.210 C 
ENDBRANCH  20  24
ENDBRANCH   1  20
TORSDOF 7
ENDMDL
MODEL 3
REMARK VINA RESULT:      -7.0      5.744      8.173
REMARK  7 active torsions:
REMARK  status: ('A' for Active; 'I' for Inactive)
REMARK    1  A    between atoms: C2_2  and  C3_3 
REMARK    2  A    between atoms: C4_4  and  C5_5 
REMARK    3  A    between atoms: C4_4  and  O3_23 
REMARK    4  A    between atoms: C8_8  and  N1_9 
REMARK    5  A    between atoms: N1_9  and  C9_10 
REMARK    6  A    between atoms: C12_13  and  O1_14 
REMARK    7  A    between atoms: C14_16  and  O2_17 
ROOT
HETATM    1  C5  UNL     1      26.449   0.851  52.703  1.00  0.00     0.064 C 
HETATM    2  C6  UNL     1      25.800   1.938  52.249  1.00  0.00     0.045 A 
HETATM    3  C7  UNL     1      26.142   2.452  50.921  1.00  0.00     0.137 A 
HETATM    4  C8  UNL     1      25.336   3.655  50.605  1.00  0.00     0.111 A 
HETATM    5  N2  UNL     1      24.483   4.113  51.427  1.00  0.00    -0.228 NA
HETATM    6  C17 UNL     1      24.178   3.583  52.707  1.00  0.00     0.235 A 
HETATM    7  N3  UNL     1      24.823   2.535  53.085  1.00  0.00    -0.246 NA
ENDROOT
BRANCH   4   8
HETATM    8  N1  UNL     1      25.467   4.363  49.382  1.00  0.00    -0.344 N 
HETATM    9  H10 UNL     1      24.687   4.168  48.685  1.00  0.00     0.167 HD
BRANCH   8  10
HETATM   10  C9  UNL     1      26.488   5.269  49.012  1.00  0.00     0.036 A 
HETATM   11  C10 UNL     1      27.724   4.748  48.610  1.00  0.00     0.032 A 
HETATM   12  C11 UNL     1      28.779   5.544  48.231  1.00  0.00     0.042 A 
HETATM   13  C12 UNL     1      28.665   6.914  48.227  1.00  0.00     0.101 A 
HETATM   14  C14 UNL     1      27.461   7.454  48.618  1.00  0.00     0.103 A 
HETATM   15  C16 UNL     1      26.432   6.619  48.990  1.00  0.00     0.069 A 
BRANCH  13  16
HETATM   16  O1  UNL     1      29.701   7.754  47.853  1.00  0.00    -0.353 OA
HETATM   17  C13 UNL     1      30.737   8.104  48.744  1.00  0.00     0.210 C 
ENDBRANCH  13  16
BRANCH  14  18
HETATM   18  O2  UNL     1      27.327   8.839  48.621  1.00  0.00    -0.353 OA
HETATM   19  C15 UNL     1      27.402   9.597  49.815  1.00  0.00     0.210 C 
ENDBRANCH  14  18
ENDBRANCH   8  10
ENDBRANCH   4   8
BRANCH   1  20
HETATM   20  C4  UNL     1      26.148   0.301  54.015  1.00  0.00     0.066 C 
HETATM   21  C3  UNL     1      25.078  -0.422  54.244  1.00  0.00     0.010 C 
BRANCH  21  22
HETATM   22  C2  UNL     1      23.979  -0.854  53.358  1.00  0.00     0.025 C 
HETATM   23  C1  UNL     1      22.618  -0.466  53.894  1.00  0.00     0.009 C 
ENDBRANCH  21  22
BRANCH  20  24
HETATM   24  O3  UNL     1      26.992   0.523  55.093  1.00  0.00    -0.356 OA
HETATM   25  C18 UNL     1      28.349   0.169  54.923  1.00  0.00     0.210 C 
ENDBRANCH  20  24
ENDBRANCH   1  20
TORSDOF 7
ENDMDL
MODEL 4
REMARK VINA RESULT:      -6.8      1.263      2.079
REMARK  7 active torsions:
REMARK  status: ('A' for Active; 'I' for Inactive)
REMARK    1  A    between atoms: C2_2  and  C3_3 
REMARK    2  A    between atoms: C4_4  and  C5_5 
REMARK    3  A    between atoms: C4_4  and  O3_23 
REMARK    4  A    between atoms: C8_8  and  N1_9 
REMARK    5  A    between atoms: N1_9  and  C9_10 
REMARK    6  A    between atoms: C12_13  and  O1_14 
REMARK    7  A    between atoms: C14_16  and  O2_17 
ROOT
HETATM    1  C5  UNL     1      25.349   0.267  53.118  1.00  0.00     0.064 C 
HETATM    2  C6  UNL     1      24.500  -0.360  53.951  1.00  0.00     0.045 A 
HETATM    3  C7  UNL     1      23.099  -0.500  53.545  1.00  0.00     0.137 A 
HETATM    4  C8  UNL     1      22.322  -1.202  54.595  1.00  0.00     0.111 A 
HETATM    5  N2  UNL     1      22.870  -1.599  55.669  1.00  0.00    -0.228 NA
HETATM    6  C17 UNL     1      24.235  -1.447  56.024  1.00  0.00     0.235 A 
HETATM    7  N3  UNL     1      25.004  -0.848  55.183  1.00  0.00    -0.246 NA
ENDROOT
BRANCH   4   8
HETATM    8  N1  UNL     1      20.934  -1.467  54.467  1.00  0.00    -0.344 N 
HETATM    9  H10 UNL     1      20.569  -2.196  55.152  1.00  0.00     0.167 HD
BRANCH   8  10
HETATM   10  C9  UNL     1      20.020  -0.883  53.560  1.00  0.00     0.036 A 
HETATM   11  C10 UNL     1      18.768  -1.487  53.396  1.00  0.00     0.032 A 
HETATM   12  C11 UNL     1      17.811  -0.996  52.539  1.00  0.00     0.042 A 
HETATM   13  C12 UNL     1      18.045   0.133  51.791  1.00  0.00     0.101 A 
HETATM   14  C14 UNL     1      19.268   0.749  51.932  1.00  0.00     0.103 A 
HETATM   15  C16 UNL     1      20.196   0.222  52.801  1.00  0.00     0.069 A 
BRANCH  13  16
HETATM   16  O1  UNL     1      17.110   0.663  50.916  1.00  0.00    -0.353 OA
HETATM   17  C13 UNL     1      16.599  -0.079  49.832  1.00  0.00     0.210 C 
ENDBRANCH  13  16
BRANCH  14  18
HETATM   18  O2  UNL     1      19.523   1.893  51.182  1.00  0.00    -0.353 OA
HETATM   19  C15 UNL     1      19.634   3.172  51.780  1.00  0.00     0.210 C 
ENDBRANCH  14  18
ENDBRANCH   8  10
ENDBRANCH   4   8
BRANCH   1  20
HETATM   20  C4  UNL     1      26.750   0.433  53.473  1.00  0.00     0.066 C 
HETATM   21  C3  UNL     1      27.644  -0.501  53.254  1.00  0.00     0.010 C 
BRANCH  21  22
HETATM   22  C2  UNL     1      27.531  -1.845  52.656  1.00  0.00     0.025 C 
HETATM   23  C1  UNL     1      28.690  -2.745  53.030  1.00  0.00     0.009 C 
ENDBRANCH  21  22
BRANCH  20  24
HETATM   24  O3  UNL     1      27.202   1.602  54.066  1.00  0.00    -0.356 OA
HETATM   25  C18 UNL     1      28.385   2.167  53.539  1.00  0.00     0.210 C 
ENDBRANCH  20  24
ENDBRANCH   1  20
TORSDOF 7
ENDMDL
MODEL 5
REMARK VINA RESULT:      -6.7      7.179     11.649
REMARK  7 active torsions:
REMARK  status: ('A' for Active; 'I' for Inactive)
REMARK    1  A    between atoms: C2_2  and  C3_3 
REMARK    2  A    between atoms: C4_4  and  C5_5 
REMARK    3  A    between atoms: C4_4  and  O3_23 
REMARK    4  A    between atoms: C8_8  and  N1_9 
REMARK    5  A    between atoms: N1_9  and  C9_10 
REMARK    6  A    between atoms: C12_13  and  O1_14 
REMARK    7  A    between atoms: C14_16  and  O2_17 
ROOT
HETATM    1  C5  UNL     1      25.822   3.404  49.700  1.00  0.00     0.064 C 
HETATM    2  C6  UNL     1      26.275   4.639  49.420  1.00  0.00     0.045 A 
HETATM    3  C7  UNL     1      27.509   4.771  48.642  1.00  0.00     0.137 A 
HETATM    4  C8  UNL     1      27.850   6.201  48.448  1.00  0.00     0.111 A 
HETATM    5  N2  UNL     1      27.119   7.125  48.921  1.00  0.00    -0.228 NA
HETATM    6  C17 UNL     1      25.925   6.955  49.669  1.00  0.00     0.235 A 
HETATM    7  N3  UNL     1      25.535   5.750  49.898  1.00  0.00    -0.246 NA
ENDROOT
BRANCH   4   8
HETATM    8  N1  UNL     1      29.003   6.621  47.735  1.00  0.00    -0.344 N 
HETATM    9  H10 UNL     1      28.791   7.266  46.915  1.00  0.00     0.167 HD
BRANCH   8  10
HETATM   10  C9  UNL     1      30.351   6.284  47.993  1.00  0.00     0.036 A 
HETATM   11  C10 UNL     1      31.154   7.219  48.658  1.00  0.00     0.032 A 
HETATM   12  C11 UNL     1      32.476   6.987  48.956  1.00  0.00     0.042 A 
HETATM   13  C12 UNL     1      33.082   5.803  48.608  1.00  0.00     0.101 A 
HETATM   14  C14 UNL     1      32.317   4.865  47.953  1.00  0.00     0.103 A 
HETATM   15  C16 UNL     1      30.997   5.140  47.675  1.00  0.00     0.069 A 
BRANCH  13  16
HETATM   16  O1  UNL     1      34.410   5.527  48.888  1.00  0.00    -0.353 OA
HETATM   17  C13 UNL     1      35.423   6.495  48.731  1.00  0.00     0.210 C 
ENDBRANCH  13  16
BRANCH  14  18
HETATM   18  O2  UNL     1      32.913   3.660  47.593  1.00  0.00    -0.353 OA
HETATM   19  C15 UNL     1      32.333   2.794  46.634  1.00  0.00     0.210 C 
ENDBRANCH  14  18
ENDBRANCH   8  10
ENDBRANCH   4   8
BRANCH   1  20
HETATM   20  C4  UNL     1      24.603   3.217  50.469  1.00  0.00     0.066 C 
HETATM   21  C3  UNL     1      23.424   3.121  49.903  1.00  0.00     0.010 C 
BRANCH  21  22
HETATM   22  C2  UNL     1      23.011   3.165  48.487  1.00  0.00     0.025 C 
HETATM   23  C1  UNL     1      22.310   1.896  48.049  1.00  0.00     0.009 C 
ENDBRANCH  21  22
BRANCH  20  24
HETATM   24  O3  UNL     1      24.637   3.133  51.853  1.00  0.00    -0.356 OA
HETATM   25  C18 UNL     1      23.615   3.807  52.558  1.00  0.00     0.210 C 
ENDBRANCH  20  24
ENDBRANCH   1  20
TORSDOF 7
ENDMDL
MODEL 6
REMARK VINA RESULT:      -6.4      5.854      8.457
REMARK  7 active torsions:
REMARK  status: ('A' for Active; 'I' for Inactive)
REMARK    1  A    between atoms: C2_2  and  C3_3 
REMARK    2  A    between atoms: C4_4  and  C5_5 
REMARK    3  A    between atoms: C4_4  and  O3_23 
REMARK    4  A    between atoms: C8_8  and  N1_9 
REMARK    5  A    between atoms: N1_9  and  C9_10 
REMARK    6  A    between atoms: C12_13  and  O1_14 
REMARK    7  A    between atoms: C14_16  and  O2_17 
ROOT
HETATM    1  C5  UNL     1      23.305   1.261  51.482  1.00  0.00     0.064 C 
HETATM    2  C6  UNL     1      23.520   2.587  51.423  1.00  0.00     0.045 A 
HETATM    3  C7  UNL     1      23.935   3.171  50.145  1.00  0.00     0.137 A 
HETATM    4  C8  UNL     1      24.134   4.634  50.283  1.00  0.00     0.111 A 
HETATM    5  N2  UNL     1      23.947   5.225  51.390  1.00  0.00    -0.228 NA
HETATM    6  C17 UNL     1      23.541   4.622  52.609  1.00  0.00     0.235 A 
HETATM    7  N3  UNL     1      23.340   3.351  52.604  1.00  0.00    -0.246 NA
ENDROOT
BRANCH   4   8
HETATM    8  N1  UNL     1      24.545   5.453  49.199  1.00  0.00    -0.344 N 
HETATM    9  H10 UNL     1      23.738   5.864  48.640  1.00  0.00     0.167 HD
BRANCH   8  10
HETATM   10  C9  UNL     1      25.865   5.769  48.804  1.00  0.00     0.036 A 
HETATM   11  C10 UNL     1      26.840   4.768  48.886  1.00  0.00     0.032 A 
HETATM   12  C11 UNL     1      28.151   4.974  48.526  1.00  0.00     0.042 A 
HETATM   13  C12 UNL     1      28.572   6.196  48.059  1.00  0.00     0.101 A 
HETATM   14  C14 UNL     1      27.634   7.201  47.968  1.00  0.00     0.103 A 
HETATM   15  C16 UNL     1      26.333   6.949  48.340  1.00  0.00     0.069 A 
BRANCH  13  16
HETATM   16  O1  UNL     1      29.882   6.449  47.685  1.00  0.00    -0.353 OA
HETATM   17  C13 UNL     1      30.937   5.579  48.029  1.00  0.00     0.210 C 
ENDBRANCH  13  16
BRANCH  14  18
HETATM   18  O2  UNL     1      28.041   8.445  47.498  1.00  0.00    -0.353 OA
HETATM   19  C15 UNL     1      27.956   9.613  48.296  1.00  0.00     0.210 C 
ENDBRANCH  14  18
ENDBRANCH   8  10
ENDBRANCH   4   8
BRANCH   1  20
HETATM   20  C4  UNL     1      22.893   0.630  52.726  1.00  0.00     0.066 C 
HETATM   21  C3  UNL     1      23.734  -0.016  53.498  1.00  0.00     0.010 C 
BRANCH  21  22
HETATM   22  C2  UNL     1      25.181  -0.276  53.368  1.00  0.00     0.025 C 
HETATM   23  C1  UNL     1      26.022   0.796  54.028  1.00  0.00     0.009 C 
ENDBRANCH  21  22
BRANCH  20  24
HETATM   24  O3  UNL     1      21.575   0.687  53.152  1.00  0.00    -0.356 OA
HETATM   25  C18 UNL     1      21.259  -0.009  54.341  1.00  0.00     0.210 C 
ENDBRANCH  20  24
ENDBRANCH   1  20
TORSDOF 7
ENDMDL
MODEL 7
REMARK VINA RESULT:      -6.4      5.703      8.339
REMARK  7 active torsions:
REMARK  status: ('A' for Active; 'I' for Inactive)
REMARK    1  A    between atoms: C2_2  and  C3_3 
REMARK    2  A    between atoms: C4_4  and  C5_5 
REMARK    3  A    between atoms: C4_4  and  O3_23 
REMARK    4  A    between atoms: C8_8  and  N1_9 
REMARK    5  A    between atoms: N1_9  and  C9_10 
REMARK    6  A    between atoms: C12_13  and  O1_14 
REMARK    7  A    between atoms: C14_16  and  O2_17 
ROOT
HETATM    1  C5  UNL     1      26.594   6.132  48.624  1.00  0.00     0.064 C 
HETATM    2  C6  UNL     1      25.669   5.908  49.575  1.00  0.00     0.045 A 
HETATM    3  C7  UNL     1      25.236   4.531  49.819  1.00  0.00     0.137 A 
HETATM    4  C8  UNL     1      24.209   4.491  50.888  1.00  0.00     0.111 A 
HETATM    5  N2  UNL     1      23.815   5.550  51.466  1.00  0.00    -0.228 NA
HETATM    6  C17 UNL     1      24.262   6.870  51.201  1.00  0.00     0.235 A 
HETATM    7  N3  UNL     1      25.156   7.022  50.288  1.00  0.00    -0.246 NA
ENDROOT
BRANCH   4   8
HETATM    8  N1  UNL     1      23.608   3.281  51.323  1.00  0.00    -0.344 N 
HETATM    9  H10 UNL     1      22.622   3.131  50.951  1.00  0.00     0.167 HD
BRANCH   8  10
HETATM   10  C9  UNL     1      24.165   2.292  52.167  1.00  0.00     0.036 A 
HETATM   11  C10 UNL     1      23.494   1.070  52.290  1.00  0.00     0.032 A 
HETATM   12  C11 UNL     1      23.953   0.045  53.084  1.00  0.00     0.042 A 
HETATM   13  C12 UNL     1      25.115   0.177  53.806  1.00  0.00     0.101 A 
HETATM   14  C14 UNL     1      25.797   1.369  53.704  1.00  0.00     0.103 A 
HETATM   15  C16 UNL     1      25.300   2.367  52.897  1.00  0.00     0.069 A 
BRANCH  13  16
HETATM   16  O1  UNL     1      25.615  -0.828  54.618  1.00  0.00    -0.353 OA
HETATM   17  C13 UNL     1      24.983  -1.197  55.823  1.00  0.00     0.210 C 
ENDBRANCH  13  16
BRANCH  14  18
HETATM   18  O2  UNL     1      26.976   1.521  54.428  1.00  0.00    -0.353 OA
HETATM   19  C15 UNL     1      28.249   1.372  53.827  1.00  0.00     0.210 C 
ENDBRANCH  14  18
ENDBRANCH   8  10
ENDBRANCH   4   8
BRANCH   1  20
HETATM   20  C4  UNL     1      27.058   7.480  48.341  1.00  0.00     0.066 C 
HETATM   21  C3  UNL     1      26.470   8.254  47.460  1.00  0.00     0.010 C 
BRANCH  21  22
HETATM   22  C2  UNL     1      25.300   8.033  46.588  1.00  0.00     0.025 C 
HETATM   23  C1  UNL     1      25.558   8.455  45.158  1.00  0.00     0.009 C 
ENDBRANCH  21  22
BRANCH  20  24
HETATM   24  O3  UNL     1      28.157   8.010  49.000  1.00  0.00    -0.356 OA
HETATM   25  C18 UNL     1      27.972   9.249  49.653  1.00  0.00     0.210 C 
ENDBRANCH  20  24
ENDBRANCH   1  20
TORSDOF 7
ENDMDL
MODEL 8
REMARK VINA RESULT:      -6.4      6.456      9.097
REMARK  7 active torsions:
REMARK  status: ('A' for Active; 'I' for Inactive)
REMARK    1  A    between atoms: C2_2  and  C3_3 
REMARK    2  A    between atoms: C4_4  and  C5_5 
REMARK    3  A    between atoms: C4_4  and  O3_23 
REMARK    4  A    between atoms: C8_8  and  N1_9 
REMARK    5  A    between atoms: N1_9  and  C9_10 
REMARK    6  A    between atoms: C12_13  and  O1_14 
REMARK    7  A    between atoms: C14_16  and  O2_17 
ROOT
HETATM    1  C5  UNL     1      28.585   6.866  47.803  1.00  0.00     0.064 C 
HETATM    2  C6  UNL     1      27.530   6.540  48.571  1.00  0.00     0.045 A 
HETATM    3  C7  UNL     1      27.150   5.129  48.673  1.00  0.00     0.137 A 
HETATM    4  C8  UNL     1      25.962   4.973  49.548  1.00  0.00     0.111 A 
HETATM    5  N2  UNL     1      25.410   5.975  50.098  1.00  0.00    -0.228 NA
HETATM    6  C17 UNL     1      25.812   7.331  49.975  1.00  0.00     0.235 A 
HETATM    7  N3  UNL     1      26.835   7.582  49.236  1.00  0.00    -0.246 NA
ENDROOT
BRANCH   4   8
HETATM    8  N1  UNL     1      25.375   3.710  49.818  1.00  0.00    -0.344 N 
HETATM    9  H10 UNL     1      24.705   3.375  49.061  1.00  0.00     0.167 HD
BRANCH   8  10
HETATM   10  C9  UNL     1      25.582   2.881  50.944  1.00  0.00     0.036 A 
HETATM   11  C10 UNL     1      24.461   2.391  51.624  1.00  0.00     0.032 A 
HETATM   12  C11 UNL     1      24.556   1.578  52.729  1.00  0.00     0.042 A 
HETATM   13  C12 UNL     1      25.781   1.203  53.226  1.00  0.00     0.101 A 
HETATM   14  C14 UNL     1      26.903   1.671  52.578  1.00  0.00     0.103 A 
HETATM   15  C16 UNL     1      26.759   2.482  51.475  1.00  0.00     0.069 A 
BRANCH  13  16
HETATM   16  O1  UNL     1      25.925   0.387  54.336  1.00  0.00    -0.353 OA
HETATM   17  C13 UNL     1      25.106  -0.742  54.543  1.00  0.00     0.210 C 
ENDBRANCH  13  16
BRANCH  14  18
HETATM   18  O2  UNL     1      28.152   1.301  53.067  1.00  0.00    -0.353 OA
HETATM   19  C15 UNL     1      28.945   2.183  53.840  1.00  0.00     0.210 C 
ENDBRANCH  14  18
ENDBRANCH   8  10
ENDBRANCH   4   8
BRANCH   1  20
HETATM   20  C4  UNL     1      29.003   8.252  47.667  1.00  0.00     0.066 C 
HETATM   21  C3  UNL     1      30.042   8.737  48.304  1.00  0.00     0.010 C 
BRANCH  21  22
HETATM   22  C2  UNL     1      30.995   8.113  49.242  1.00  0.00     0.025 C 
HETATM   23  C1  UNL     1      32.242   7.608  48.547  1.00  0.00     0.009 C 
ENDBRANCH  21  22
BRANCH  20  24
HETATM   24  O3  UNL     1      28.311   9.130  46.846  1.00  0.00    -0.356 OA
HETATM   25  C18 UNL     1      28.052   8.698  45.526  1.00  0.00     0.210 C 
ENDBRANCH  20  24
ENDBRANCH   1  20
TORSDOF 7
ENDMDL
MODEL 9
REMARK VINA RESULT:      -6.4      6.027      9.010
REMARK  7 active torsions:
REMARK  status: ('A' for Active; 'I' for Inactive)
REMARK    1  A    between atoms: C2_2  and  C3_3 
REMARK    2  A    between atoms: C4_4  and  C5_5 
REMARK    3  A    between atoms: C4_4  and  O3_23 
REMARK    4  A    between atoms: C8_8  and  N1_9 
REMARK    5  A    between atoms: N1_9  and  C9_10 
REMARK    6  A    between atoms: C12_13  and  O1_14 
REMARK    7  A    between atoms: C14_16  and  O2_17 
ROOT
HETATM    1  C5  UNL     1      27.220   6.587  48.360  1.00  0.00     0.064 C 
HETATM    2  C6  UNL     1      26.304   6.063  49.194  1.00  0.00     0.045 A 
HETATM    3  C7  UNL     1      26.203   4.605  49.295  1.00  0.00     0.137 A 
HETATM    4  C8  UNL     1      25.133   4.223  50.248  1.00  0.00     0.111 A 
HETATM    5  N2  UNL     1      24.445   5.099  50.855  1.00  0.00    -0.228 NA
HETATM    6  C17 UNL     1      24.576   6.507  50.732  1.00  0.00     0.235 A 
HETATM    7  N3  UNL     1      25.476   6.951  49.927  1.00  0.00    -0.246 NA
ENDROOT
BRANCH   4   8
HETATM    8  N1  UNL     1      24.814   2.869  50.533  1.00  0.00    -0.344 N 
HETATM    9  H10 UNL     1      24.037   2.472  49.924  1.00  0.00     0.167 HD
BRANCH   8  10
HETATM   10  C9  UNL     1      25.402   2.028  51.505  1.00  0.00     0.036 A 
HETATM   11  C10 UNL     1      26.764   2.189  51.787  1.00  0.00     0.032 A 
HETATM   12  C11 UNL     1      27.429   1.421  52.714  1.00  0.00     0.042 A 
HETATM   13  C12 UNL     1      26.773   0.441  53.420  1.00  0.00     0.101 A 
HETATM   14  C14 UNL     1      25.432   0.260  53.164  1.00  0.00     0.103 A 
HETATM   15  C16 UNL     1      24.808   1.052  52.227  1.00  0.00     0.069 A 
BRANCH  13  16
HETATM   16  O1  UNL     1      27.401  -0.356  54.363  1.00  0.00    -0.353 OA
HETATM   17  C13 UNL     1      28.717  -0.099  54.800  1.00  0.00     0.210 C 
ENDBRANCH  13  16
BRANCH  14  18
HETATM   18  O2  UNL     1      24.751  -0.728  53.869  1.00  0.00    -0.353 OA
HETATM   19  C15 UNL     1      23.342  -0.713  54.009  1.00  0.00     0.210 C 
ENDBRANCH  14  18
ENDBRANCH   8  10
ENDBRANCH   4   8
BRANCH   1  20
HETATM   20  C4  UNL     1      27.360   8.027  48.222  1.00  0.00     0.066 C 
HETATM   21  C3  UNL     1      26.749   8.705  47.279  1.00  0.00     0.010 C 
BRANCH  21  22
HETATM   22  C2  UNL     1      25.841   8.277  46.198  1.00  0.00     0.025 C 
HETATM   23  C1  UNL     1      25.940   9.165  44.976  1.00  0.00     0.009 C 
ENDBRANCH  21  22
BRANCH  20  24
HETATM   24  O3  UNL     1      28.158   8.754  49.093  1.00  0.00    -0.356 OA
HETATM   25  C18 UNL     1      28.052  10.161  49.031  1.00  0.00     0.210 C 
ENDBRANCH  20  24
ENDBRANCH   1  20
TORSDOF 7
ENDMDL
