MODEL 1
REMARK VINA RESULT:      -9.2      0.000      0.000
REMARK  4 active torsions:
REMARK  status: ('A' for Active; 'I' for Inactive)
REMARK    1  A    between atoms: C3_3  and  C4_5 
REMARK    2  A    between atoms: C6_7  and  C7_8 
REMARK    3  A    between atoms: C8_9  and  N1_10 
REMARK    4  A    between atoms: N1_10  and  C9_11 
ROOT
HETATM    1  C9  UNL     1      24.826   4.026  50.463  1.00  0.00     0.211 C 
HETATM    2  N2  UNL     1      23.481   3.568  49.978  1.00  0.00    -0.288 N 
HETATM    3  N3  UNL     1      22.651   2.668  50.764  1.00  0.00    -0.164 NA
HETATM    4  C10 UNL     1      23.005   2.594  51.994  1.00  0.00     0.127 C 
HETATM    5  C11 UNL     1      24.300   3.145  52.458  1.00  0.00     0.097 C 
HETATM    6  C12 UNL     1      25.280   2.925  51.355  1.00  0.00     0.053 C 
HETATM    7  C13 UNL     1      26.128   2.005  51.745  1.00  0.00     0.274 A 
HETATM    8  N4  UNL     1      26.895   0.952  52.333  1.00  0.00     0.125 N 
HETATM    9  C14 UNL     1      26.042   0.379  53.388  1.00  0.00     0.177 A 
HETATM   10  O1  UNL     1      26.218   1.185  52.490  1.00  0.00     0.000 OA
HETATM   11  C15 UNL     1      25.548  -0.518  54.523  1.00  0.00     0.070 C 
HETATM   12  C16 UNL     1      24.043  -0.558  54.293  1.00  0.00     0.006 C 
HETATM   13  C17 UNL     1      23.227  -1.524  55.054  1.00  0.00     0.000 C 
HETATM   14  C18 UNL     1      21.755  -1.440  54.532  1.00  0.00     0.000 C 
HETATM   15  C19 UNL     1      21.166  -0.141  54.899  1.00  0.00     0.009 C 
HETATM   16  C20 UNL     1      20.330   0.552  53.811  1.00  0.00     0.103 C 
HETATM   17  C21 UNL     1      21.345   0.706  52.692  1.00  0.00     0.223 C 
HETATM   18  O2  UNL     1      21.960   0.274  51.712  1.00  0.00    -0.273 OA
HETATM   19  N5  UNL     1      21.988   1.937  52.710  1.00  0.00    -0.314 N 
HETATM   20  H13 UNL     1      23.074   3.867  49.053  1.00  0.00     0.184 HD
HETATM   21  H17 UNL     1      27.898   0.663  52.017  1.00  0.00     0.323 HD
HETATM   22  H30 UNL     1      21.798   2.706  53.350  1.00  0.00     0.170 HD
ENDROOT
BRANCH   1  23
HETATM   23  N1  UNL     1      25.687   4.219  49.328  1.00  0.00    -0.376 N 
HETATM   24  H11 UNL     1      25.206   4.415  48.406  1.00  0.00     0.161 HD
BRANCH  23  25
HETATM   25  C8  UNL     1      27.081   4.218  49.113  1.00  0.00     0.085 C 
HETATM   26  C7  UNL     1      27.648   5.315  48.582  1.00  0.00     0.017 C 
BRANCH  26  27
HETATM   27  C6  UNL     1      29.052   5.482  48.298  1.00  0.00     0.010 C 
HETATM   28  C4  UNL     1      29.713   6.473  47.712  1.00  0.00    -0.041 C 
HETATM   29  C5  UNL     1      28.951   7.656  47.235  1.00  0.00     0.050 C 
BRANCH  28  30
HETATM   30  C3  UNL     1      31.144   6.329  47.576  1.00  0.00     0.035 C 
HETATM   31  C2  UNL     1      31.828   5.201  47.534  1.00  0.00    -0.007 C 
HETATM   32  C1  UNL     1      33.298   5.320  47.521  1.00  0.00     0.038 C 
HETATM   33 CL1  UNL     1      32.150   7.773  47.606  1.00  0.00    -0.084 Cl
ENDBRANCH  28  30
ENDBRANCH  26  27
ENDBRANCH  23  25
ENDBRANCH   1  23
TORSDOF 4
ENDMDL
MODEL 2
REMARK VINA RESULT:      -9.2      4.170      9.871
REMARK  4 active torsions:
REMARK  status: ('A' for Active; 'I' for Inactive)
REMARK    1  A    between atoms: C3_3  and  C4_5 
REMARK    2  A    between atoms: C6_7  and  C7_8 
REMARK    3  A    between atoms: C8_9  and  N1_10 
REMARK    4  A    between atoms: N1_10  and  C9_11 
ROOT
HETATM    1  C9  UNL     1      25.965   5.719  49.124  1.00  0.00     0.211 C 
HETATM    2  N2  UNL     1      25.850   6.878  50.073  1.00  0.00    -0.288 N 
HETATM    3  N3  UNL     1      26.622   8.097  49.886  1.00  0.00    -0.164 NA
HETATM    4  C10 UNL     1      27.111   8.213  48.707  1.00  0.00     0.127 C 
HETATM    5  C11 UNL     1      27.120   7.074  47.759  1.00  0.00     0.097 C 
HETATM    6  C12 UNL     1      27.341   5.843  48.573  1.00  0.00     0.053 C 
HETATM    7  C13 UNL     1      28.543   5.394  48.308  1.00  0.00     0.274 A 
HETATM    8  N4  UNL     1      29.894   5.116  47.931  1.00  0.00     0.125 N 
HETATM    9  C14 UNL     1      30.427   6.381  47.397  1.00  0.00     0.177 A 
HETATM   10  O1  UNL     1      29.513   5.740  47.889  1.00  0.00     0.000 OA
HETATM   11  C15 UNL     1      31.388   7.413  46.806  1.00  0.00     0.070 C 
HETATM   12  C16 UNL     1      30.906   8.718  47.424  1.00  0.00     0.006 C 
HETATM   13  C17 UNL     1      31.736   9.929  47.279  1.00  0.00     0.000 C 
HETATM   14  C18 UNL     1      31.075  11.078  48.111  1.00  0.00     0.000 C 
HETATM   15  C19 UNL     1      29.798  11.471  47.495  1.00  0.00     0.009 C 
HETATM   16  C20 UNL     1      28.628  11.716  48.463  1.00  0.00     0.103 C 
HETATM   17  C21 UNL     1      28.513  10.368  49.153  1.00  0.00     0.223 C 
HETATM   18  O2  UNL     1      28.848   9.557  50.023  1.00  0.00    -0.273 OA
HETATM   19  N5  UNL     1      27.585   9.528  48.551  1.00  0.00    -0.314 N 
HETATM   20  H13 UNL     1      25.215   6.867  50.914  1.00  0.00     0.184 HD
HETATM   21  H17 UNL     1      30.385   4.149  48.049  1.00  0.00     0.323 HD
HETATM   22  H30 UNL     1      26.984   9.762  47.763  1.00  0.00     0.170 HD
ENDROOT
BRANCH   1  23
HETATM   23  N1  UNL     1      25.762   4.498  49.857  1.00  0.00    -0.376 N 
HETATM   24  H11 UNL     1      24.771   4.304  50.173  1.00  0.00     0.161 HD
BRANCH  23  25
HETATM   25  C8  UNL     1      26.585   3.436  50.286  1.00  0.00     0.085 C 
HETATM   26  C7  UNL     1      26.060   2.510  51.106  1.00  0.00     0.017 C 
BRANCH  26  27
HETATM   27  C6  UNL     1      26.756   1.364  51.636  1.00  0.00     0.010 C 
HETATM   28  C4  UNL     1      26.341   0.373  52.416  1.00  0.00    -0.041 C 
HETATM   29  C5  UNL     1      24.926   0.364  52.868  1.00  0.00     0.050 C 
BRANCH  28  30
HETATM   30  C3  UNL     1      27.308  -0.639  52.776  1.00  0.00     0.035 C 
HETATM   31  C2  UNL     1      28.513  -0.443  53.279  1.00  0.00    -0.007 C 
HETATM   32  C1  UNL     1      29.362  -1.638  53.441  1.00  0.00     0.038 C 
HETATM   33 CL1  UNL     1      26.957  -2.322  52.399  1.00  0.00    -0.084 Cl
ENDBRANCH  28  30
ENDBRANCH  26  27
ENDBRANCH  23  25
ENDBRANCH   1  23
TORSDOF 4
ENDMDL
MODEL 3
REMARK VINA RESULT:      -9.2      4.412     10.835
REMARK  4 active torsions:
REMARK  status: ('A' for Active; 'I' for Inactive)
REMARK    1  A    between atoms: C3_3  and  C4_5 
REMARK    2  A    between atoms: C6_7  and  C7_8 
REMARK    3  A    between atoms: C8_9  and  N1_10 
REMARK    4  A    between atoms: N1_10  and  C9_11 
ROOT
HETATM    1  C9  UNL     1      27.495   5.756  48.520  1.00  0.00     0.211 C 
HETATM    2  N2  UNL     1      27.208   6.967  49.361  1.00  0.00    -0.288 N 
HETATM    3  N3  UNL     1      27.917   8.222  49.162  1.00  0.00    -0.164 NA
HETATM    4  C10 UNL     1      28.520   8.291  48.033  1.00  0.00     0.127 C 
HETATM    5  C11 UNL     1      28.701   7.093  47.180  1.00  0.00     0.097 C 
HETATM    6  C12 UNL     1      28.912   5.939  48.102  1.00  0.00     0.053 C 
HETATM    7  C13 UNL     1      30.161   5.559  47.995  1.00  0.00     0.274 A 
HETATM    8  N4  UNL     1      31.559   5.352  47.779  1.00  0.00     0.125 N 
HETATM    9  C14 UNL     1      32.065   6.611  47.207  1.00  0.00     0.177 A 
HETATM   10  O1  UNL     1      31.146   5.943  47.651  1.00  0.00     0.000 OA
HETATM   11  C15 UNL     1      33.015   7.666  46.640  1.00  0.00     0.070 C 
HETATM   12  C16 UNL     1      32.390   8.973  47.106  1.00  0.00     0.006 C 
HETATM   13  C17 UNL     1      33.152  10.227  46.955  1.00  0.00     0.000 C 
HETATM   14  C18 UNL     1      32.336  11.381  47.626  1.00  0.00     0.000 C 
HETATM   15  C19 UNL     1      31.108  11.640  46.856  1.00  0.00     0.009 C 
HETATM   16  C20 UNL     1      29.830  11.867  47.679  1.00  0.00     0.103 C 
HETATM   17  C21 UNL     1      29.727  10.565  48.455  1.00  0.00     0.223 C 
HETATM   18  O2  UNL     1      30.019   9.841  49.413  1.00  0.00    -0.273 OA
HETATM   19  N5  UNL     1      28.923   9.622  47.827  1.00  0.00    -0.314 N 
HETATM   20  H13 UNL     1      26.490   6.969  50.133  1.00  0.00     0.184 HD
HETATM   21  H17 UNL     1      32.095   4.433  48.019  1.00  0.00     0.323 HD
HETATM   22  H30 UNL     1      28.396   9.758  46.967  1.00  0.00     0.170 HD
ENDROOT
BRANCH   1  23
HETATM   23  N1  UNL     1      27.294   4.578  49.319  1.00  0.00    -0.376 N 
HETATM   24  H11 UNL     1      28.149   3.980  49.491  1.00  0.00     0.161 HD
BRANCH  23  25
HETATM   25  C8  UNL     1      26.193   3.982  49.969  1.00  0.00     0.085 C 
HETATM   26  C7  UNL     1      26.420   2.939  50.787  1.00  0.00     0.017 C 
BRANCH  26  27
HETATM   27  C6  UNL     1      25.416   2.217  51.527  1.00  0.00     0.010 C 
HETATM   28  C4  UNL     1      25.435   1.009  52.077  1.00  0.00    -0.041 C 
HETATM   29  C5  UNL     1      26.669   0.189  51.957  1.00  0.00     0.050 C 
BRANCH  28  30
HETATM   30  C3  UNL     1      24.241   0.570  52.760  1.00  0.00     0.035 C 
HETATM   31  C2  UNL     1      24.147  -0.396  53.656  1.00  0.00    -0.007 C 
HETATM   32  C1  UNL     1      22.788  -0.743  54.112  1.00  0.00     0.038 C 
HETATM   33 CL1  UNL     1      22.691   1.259  52.289  1.00  0.00    -0.084 Cl
ENDBRANCH  28  30
ENDBRANCH  26  27
ENDBRANCH  23  25
ENDBRANCH   1  23
TORSDOF 4
ENDMDL
MODEL 4
REMARK VINA RESULT:      -9.0      1.471      1.633
REMARK  4 active torsions:
REMARK  status: ('A' for Active; 'I' for Inactive)
REMARK    1  A    between atoms: C3_3  and  C4_5 
REMARK    2  A    between atoms: C6_7  and  C7_8 
REMARK    3  A    between atoms: C8_9  and  N1_10 
REMARK    4  A    between atoms: N1_10  and  C9_11 
ROOT
HETATM    1  C9  UNL     1      25.354   3.618  50.324  1.00  0.00     0.211 C 
HETATM    2  N2  UNL     1      23.992   3.299  49.776  1.00  0.00    -0.288 N 
HETATM    3  N3  UNL     1      23.015   2.546  50.548  1.00  0.00    -0.164 NA
HETATM    4  C10 UNL     1      23.287   2.495  51.800  1.00  0.00     0.127 C 
HETATM    5  C11 UNL     1      24.611   2.912  52.320  1.00  0.00     0.097 C 
HETATM    6  C12 UNL     1      25.618   2.519  51.291  1.00  0.00     0.053 C 
HETATM    7  C13 UNL     1      26.324   1.527  51.775  1.00  0.00     0.274 A 
HETATM    8  N4  UNL     1      26.922   0.422  52.457  1.00  0.00     0.125 N 
HETATM    9  C14 UNL     1      25.946   0.011  53.481  1.00  0.00     0.177 A 
HETATM   10  O1  UNL     1      26.271   0.742  52.561  1.00  0.00     0.000 OA
HETATM   11  C15 UNL     1      25.282  -0.760  54.622  1.00  0.00     0.070 C 
HETATM   12  C16 UNL     1      23.800  -0.633  54.300  1.00  0.00     0.006 C 
HETATM   13  C17 UNL     1      22.830  -1.453  55.051  1.00  0.00     0.000 C 
HETATM   14  C18 UNL     1      21.411  -1.222  54.434  1.00  0.00     0.000 C 
HETATM   15  C19 UNL     1      20.966   0.154  54.704  1.00  0.00     0.009 C 
HETATM   16  C20 UNL     1      20.283   0.885  53.536  1.00  0.00     0.103 C 
HETATM   17  C21 UNL     1      21.372   0.858  52.477  1.00  0.00     0.223 C 
HETATM   18  O2  UNL     1      21.985   0.305  51.558  1.00  0.00    -0.273 OA
HETATM   19  N5  UNL     1      22.159   2.003  52.480  1.00  0.00    -0.314 N 
HETATM   20  H13 UNL     1      23.679   3.595  48.815  1.00  0.00     0.184 HD
HETATM   21  H17 UNL     1      27.899  -0.000  52.219  1.00  0.00     0.323 HD
HETATM   22  H30 UNL     1      22.028   2.821  53.071  1.00  0.00     0.170 HD
ENDROOT
BRANCH   1  23
HETATM   23  N1  UNL     1      26.296   3.647  49.238  1.00  0.00    -0.376 N 
HETATM   24  H11 UNL     1      26.145   2.934  48.471  1.00  0.00     0.161 HD
BRANCH  23  25
HETATM   25  C8  UNL     1      27.427   4.424  48.910  1.00  0.00     0.085 C 
HETATM   26  C7  UNL     1      27.239   5.701  48.534  1.00  0.00     0.017 C 
BRANCH  26  27
HETATM   27  C6  UNL     1      28.279   6.630  48.167  1.00  0.00     0.010 C 
HETATM   28  C4  UNL     1      28.245   7.731  47.425  1.00  0.00    -0.041 C 
HETATM   29  C5  UNL     1      26.950   8.152  46.830  1.00  0.00     0.050 C 
BRANCH  28  30
HETATM   30  C3  UNL     1      29.485   8.449  47.244  1.00  0.00     0.035 C 
HETATM   31  C2  UNL     1      29.958   9.422  48.001  1.00  0.00    -0.007 C 
HETATM   32  C1  UNL     1      31.188  10.086  47.531  1.00  0.00     0.038 C 
HETATM   33 CL1  UNL     1      30.444   8.138  45.801  1.00  0.00    -0.084 Cl
ENDBRANCH  28  30
ENDBRANCH  26  27
ENDBRANCH  23  25
ENDBRANCH   1  23
TORSDOF 4
ENDMDL
MODEL 5
REMARK VINA RESULT:      -8.9      5.745     10.224
REMARK  4 active torsions:
REMARK  status: ('A' for Active; 'I' for Inactive)
REMARK    1  A    between atoms: C3_3  and  C4_5 
REMARK    2  A    between atoms: C6_7  and  C7_8 
REMARK    3  A    between atoms: C8_9  and  N1_10 
REMARK    4  A    between atoms: N1_10  and  C9_11 
ROOT
HETATM    1  C9  UNL     1      20.165   2.296  50.684  1.00  0.00     0.211 C 
HETATM    2  N2  UNL     1      21.331   3.238  50.585  1.00  0.00    -0.288 N 
HETATM    3  N3  UNL     1      22.658   2.863  51.050  1.00  0.00    -0.164 NA
HETATM    4  C10 UNL     1      22.800   1.600  51.214  1.00  0.00     0.127 C 
HETATM    5  C11 UNL     1      21.635   0.684  51.208  1.00  0.00     0.097 C 
HETATM    6  C12 UNL     1      20.505   1.426  51.842  1.00  0.00     0.053 C 
HETATM    7  C13 UNL     1      20.267   0.879  53.008  1.00  0.00     0.274 A 
HETATM    8  N4  UNL     1      20.217   0.186  54.258  1.00  0.00     0.125 N 
HETATM    9  C14 UNL     1      21.528  -0.468  54.404  1.00  0.00     0.177 A 
HETATM   10  O1  UNL     1      20.760   0.234  53.769  1.00  0.00     0.000 OA
HETATM   11  C15 UNL     1      22.685  -1.281  54.986  1.00  0.00     0.070 C 
HETATM   12  C16 UNL     1      23.911  -0.571  54.432  1.00  0.00     0.006 C 
HETATM   13  C17 UNL     1      25.243  -0.919  54.963  1.00  0.00     0.000 C 
HETATM   14  C18 UNL     1      26.296   0.042  54.317  1.00  0.00     0.000 C 
HETATM   15  C19 UNL     1      26.422  -0.246  52.880  1.00  0.00     0.009 C 
HETATM   16  C20 UNL     1      26.501   0.976  51.950  1.00  0.00     0.103 C 
HETATM   17  C21 UNL     1      25.191   1.681  52.255  1.00  0.00     0.223 C 
HETATM   18  O2  UNL     1      24.498   2.447  52.933  1.00  0.00    -0.273 OA
HETATM   19  N5  UNL     1      24.169   1.326  51.384  1.00  0.00    -0.314 N 
HETATM   20  H13 UNL     1      21.249   4.208  50.183  1.00  0.00     0.184 HD
HETATM   21  H17 UNL     1      19.361   0.186  54.934  1.00  0.00     0.323 HD
HETATM   22  H30 UNL     1      24.252   0.707  50.580  1.00  0.00     0.170 HD
ENDROOT
BRANCH   1  23
HETATM   23  N1  UNL     1      18.966   3.063  50.893  1.00  0.00    -0.376 N 
HETATM   24  H11 UNL     1      18.982   4.058  50.534  1.00  0.00     0.161 HD
BRANCH  23  25
HETATM   25  C8  UNL     1      17.708   2.818  51.480  1.00  0.00     0.085 C 
HETATM   26  C7  UNL     1      16.921   3.869  51.771  1.00  0.00     0.017 C 
BRANCH  26  27
HETATM   27  C6  UNL     1      15.612   3.800  52.370  1.00  0.00     0.010 C 
HETATM   28  C4  UNL     1      14.402   3.971  51.849  1.00  0.00    -0.041 C 
HETATM   29  C5  UNL     1      14.286   4.294  50.404  1.00  0.00     0.050 C 
BRANCH  28  30
HETATM   30  C3  UNL     1      13.271   3.833  52.736  1.00  0.00     0.035 C 
HETATM   31  C2  UNL     1      13.102   4.422  53.906  1.00  0.00    -0.007 C 
HETATM   32  C1  UNL     1      11.916   4.015  54.684  1.00  0.00     0.038 C 
HETATM   33 CL1  UNL     1      12.018   2.661  52.340  1.00  0.00    -0.084 Cl
ENDBRANCH  28  30
ENDBRANCH  26  27
ENDBRANCH  23  25
ENDBRANCH   1  23
TORSDOF 4
ENDMDL
MODEL 6
REMARK VINA RESULT:      -8.7      1.704      2.365
REMARK  4 active torsions:
REMARK  status: ('A' for Active; 'I' for Inactive)
REMARK    1  A    between atoms: C3_3  and  C4_5 
REMARK    2  A    between atoms: C6_7  and  C7_8 
REMARK    3  A    between atoms: C8_9  and  N1_10 
REMARK    4  A    between atoms: N1_10  and  C9_11 
ROOT
HETATM    1  C9  UNL     1      22.437   5.256  50.288  1.00  0.00     0.211 C 
HETATM    2  N2  UNL     1      21.295   4.353  49.917  1.00  0.00    -0.288 N 
HETATM    3  N3  UNL     1      21.000   3.145  50.672  1.00  0.00    -0.164 NA
HETATM    4  C10 UNL     1      21.558   3.118  51.826  1.00  0.00     0.127 C 
HETATM    5  C11 UNL     1      22.616   4.088  52.195  1.00  0.00     0.097 C 
HETATM    6  C12 UNL     1      23.408   4.348  50.957  1.00  0.00     0.053 C 
HETATM    7  C13 UNL     1      24.588   3.799  51.109  1.00  0.00     0.274 A 
HETATM    8  N4  UNL     1      25.777   3.081  51.448  1.00  0.00     0.125 N 
HETATM    9  C14 UNL     1      25.385   2.143  52.514  1.00  0.00     0.177 A 
HETATM   10  O1  UNL     1      25.098   3.022  51.719  1.00  0.00     0.000 OA
HETATM   11  C15 UNL     1      25.455   1.040  53.570  1.00  0.00     0.070 C 
HETATM   12  C16 UNL     1      24.056   0.441  53.528  1.00  0.00     0.006 C 
HETATM   13  C17 UNL     1      23.793  -0.821  54.247  1.00  0.00     0.000 C 
HETATM   14  C18 UNL     1      22.329  -1.270  53.930  1.00  0.00     0.000 C 
HETATM   15  C19 UNL     1      21.374  -0.332  54.541  1.00  0.00     0.009 C 
HETATM   16  C20 UNL     1      20.170   0.068  53.672  1.00  0.00     0.103 C 
HETATM   17  C21 UNL     1      20.854   0.688  52.465  1.00  0.00     0.223 C 
HETATM   18  O2  UNL     1      21.411   0.604  51.366  1.00  0.00    -0.273 OA
HETATM   19  N5  UNL     1      20.991   2.067  52.569  1.00  0.00    -0.314 N 
HETATM   20  H13 UNL     1      20.658   4.544  49.100  1.00  0.00     0.184 HD
HETATM   21  H17 UNL     1      26.747   3.227  50.972  1.00  0.00     0.323 HD
HETATM   22  H30 UNL     1      20.641   2.651  53.326  1.00  0.00     0.170 HD
ENDROOT
BRANCH   1  23
HETATM   23  N1  UNL     1      22.963   5.853  49.090  1.00  0.00    -0.376 N 
HETATM   24  H11 UNL     1      22.278   6.413  48.509  1.00  0.00     0.161 HD
BRANCH  23  25
HETATM   25  C8  UNL     1      24.222   5.890  48.455  1.00  0.00     0.085 C 
HETATM   26  C7  UNL     1      25.185   6.662  48.989  1.00  0.00     0.017 C 
BRANCH  26  27
HETATM   27  C6  UNL     1      26.522   6.815  48.472  1.00  0.00     0.010 C 
HETATM   28  C4  UNL     1      27.529   5.954  48.383  1.00  0.00    -0.041 C 
HETATM   29  C5  UNL     1      27.328   4.568  48.878  1.00  0.00     0.050 C 
BRANCH  28  30
HETATM   30  C3  UNL     1      28.763   6.432  47.805  1.00  0.00     0.035 C 
HETATM   31  C2  UNL     1      28.927   7.508  47.059  1.00  0.00    -0.007 C 
HETATM   32  C1  UNL     1      30.268   7.712  46.479  1.00  0.00     0.038 C 
HETATM   33 CL1  UNL     1      30.212   5.443  47.958  1.00  0.00    -0.084 Cl
ENDBRANCH  28  30
ENDBRANCH  26  27
ENDBRANCH  23  25
ENDBRANCH   1  23
TORSDOF 4
ENDMDL
MODEL 7
REMARK VINA RESULT:      -8.6      5.180      8.502
REMARK  4 active torsions:
REMARK  status: ('A' for Active; 'I' for Inactive)
REMARK    1  A    between atoms: C3_3  and  C4_5 
REMARK    2  A    between atoms: C6_7  and  C7_8 
REMARK    3  A    between atoms: C8_9  and  N1_10 
REMARK    4  A    between atoms: N1_10  and  C9_11 
ROOT
HETATM    1  C9  UNL     1      19.303  -1.138  53.101  1.00  0.00     0.211 C 
HETATM    2  N2  UNL     1      17.971  -1.398  53.743  1.00  0.00    -0.288 N 
HETATM    3  N3  UNL     1      16.758  -0.743  53.277  1.00  0.00    -0.164 NA
HETATM    4  C10 UNL     1      16.875  -0.228  52.109  1.00  0.00     0.127 C 
HETATM    5  C11 UNL     1      18.199  -0.077  51.462  1.00  0.00     0.097 C 
HETATM    6  C12 UNL     1      19.173   0.237  52.548  1.00  0.00     0.053 C 
HETATM    7  C13 UNL     1      19.545   1.485  52.409  1.00  0.00     0.274 A 
HETATM    8  N4  UNL     1      19.764   2.869  52.122  1.00  0.00     0.125 N 
HETATM    9  C14 UNL     1      18.614   3.293  51.306  1.00  0.00     0.177 A 
HETATM   10  O1  UNL     1      19.210   2.430  51.928  1.00  0.00     0.000 OA
HETATM   11  C15 UNL     1      17.659   4.167  50.493  1.00  0.00     0.070 C 
HETATM   12  C16 UNL     1      16.301   3.539  50.776  1.00  0.00     0.006 C 
HETATM   13  C17 UNL     1      15.079   4.251  50.353  1.00  0.00     0.000 C 
HETATM   14  C18 UNL     1      13.840   3.454  50.879  1.00  0.00     0.000 C 
HETATM   15  C19 UNL     1      13.738   2.165  50.176  1.00  0.00     0.009 C 
HETATM   16  C20 UNL     1      13.393   0.946  51.047  1.00  0.00     0.103 C 
HETATM   17  C21 UNL     1      14.543   0.940  52.039  1.00  0.00     0.223 C 
HETATM   18  O2  UNL     1      15.085   1.324  53.081  1.00  0.00    -0.273 OA
HETATM   19  N5  UNL     1      15.593   0.119  51.647  1.00  0.00    -0.314 N 
HETATM   20  H13 UNL     1      17.847  -2.056  54.557  1.00  0.00     0.184 HD
HETATM   21  H17 UNL     1      20.619   3.448  52.472  1.00  0.00     0.323 HD
HETATM   22  H30 UNL     1      15.616  -0.475  50.820  1.00  0.00     0.170 HD
ENDROOT
BRANCH   1  23
HETATM   23  N1  UNL     1      20.329  -1.245  54.103  1.00  0.00    -0.376 N 
HETATM   24  H11 UNL     1      20.115  -1.876  54.924  1.00  0.00     0.161 HD
BRANCH  23  25
HETATM   25  C8  UNL     1      21.617  -0.698  54.283  1.00  0.00     0.085 C 
HETATM   26  C7  UNL     1      22.498  -0.788  53.272  1.00  0.00     0.017 C 
BRANCH  26  27
HETATM   27  C6  UNL     1      23.849  -0.285  53.287  1.00  0.00     0.010 C 
HETATM   28  C4  UNL     1      24.350   0.888  52.916  1.00  0.00    -0.041 C 
HETATM   29  C5  UNL     1      23.426   1.921  52.381  1.00  0.00     0.050 C 
BRANCH  28  30
HETATM   30  C3  UNL     1      25.774   1.077  53.058  1.00  0.00     0.035 C 
HETATM   31  C2  UNL     1      26.385   2.056  53.700  1.00  0.00    -0.007 C 
HETATM   32  C1  UNL     1      27.856   2.100  53.590  1.00  0.00     0.038 C 
HETATM   33 CL1  UNL     1      26.865   0.004  52.189  1.00  0.00    -0.084 Cl
ENDBRANCH  28  30
ENDBRANCH  26  27
ENDBRANCH  23  25
ENDBRANCH   1  23
TORSDOF 4
ENDMDL
MODEL 8
REMARK VINA RESULT:      -8.5      2.976      4.609
REMARK  4 active torsions:
REMARK  status: ('A' for Active; 'I' for Inactive)
REMARK    1  A    between atoms: C3_3  and  C4_5 
REMARK    2  A    between atoms: C6_7  and  C7_8 
REMARK    3  A    between atoms: C8_9  and  N1_10 
REMARK    4  A    between atoms: N1_10  and  C9_11 
ROOT
HETATM    1  C9  UNL     1      25.757   4.917  49.101  1.00  0.00     0.211 C 
HETATM    2  N2  UNL     1      27.041   4.611  49.818  1.00  0.00    -0.288 N 
HETATM    3  N3  UNL     1      27.175   3.447  50.681  1.00  0.00    -0.164 NA
HETATM    4  C10 UNL     1      26.258   2.570  50.498  1.00  0.00     0.127 C 
HETATM    5  C11 UNL     1      25.047   2.875  49.702  1.00  0.00     0.097 C 
HETATM    6  C12 UNL     1      24.710   4.305  49.964  1.00  0.00     0.053 C 
HETATM    7  C13 UNL     1      23.612   4.337  50.678  1.00  0.00     0.274 A 
HETATM    8  N4  UNL     1      22.458   4.149  51.500  1.00  0.00     0.125 N 
HETATM    9  C14 UNL     1      22.548   2.767  52.003  1.00  0.00     0.177 A 
HETATM   10  O1  UNL     1      23.003   3.686  51.341  1.00  0.00     0.000 OA
HETATM   11  C15 UNL     1      22.228   1.477  52.757  1.00  0.00     0.070 C 
HETATM   12  C16 UNL     1      23.607   0.902  53.046  1.00  0.00     0.006 C 
HETATM   13  C17 UNL     1      23.729  -0.238  53.975  1.00  0.00     0.000 C 
HETATM   14  C18 UNL     1      25.250  -0.538  54.186  1.00  0.00     0.000 C 
HETATM   15  C19 UNL     1      25.836  -1.058  52.940  1.00  0.00     0.009 C 
HETATM   16  C20 UNL     1      27.219  -0.504  52.562  1.00  0.00     0.103 C 
HETATM   17  C21 UNL     1      26.937   0.985  52.456  1.00  0.00     0.223 C 
HETATM   18  O2  UNL     1      26.806   2.107  52.956  1.00  0.00    -0.273 OA
HETATM   19  N5  UNL     1      26.636   1.389  51.162  1.00  0.00    -0.314 N 
HETATM   20  H13 UNL     1      27.899   5.217  49.737  1.00  0.00     0.184 HD
HETATM   21  H17 UNL     1      21.702   4.911  51.694  1.00  0.00     0.323 HD
HETATM   22  H30 UNL     1      26.642   0.800  50.331  1.00  0.00     0.170 HD
ENDROOT
BRANCH   1  23
HETATM   23  N1  UNL     1      25.621   6.344  48.982  1.00  0.00    -0.376 N 
HETATM   24  H11 UNL     1      24.664   6.740  49.197  1.00  0.00     0.161 HD
BRANCH  23  25
HETATM   25  C8  UNL     1      26.480   7.408  48.638  1.00  0.00     0.085 C 
HETATM   26  C7  UNL     1      26.830   8.284  49.597  1.00  0.00     0.017 C 
BRANCH  26  27
HETATM   27  C6  UNL     1      27.695   9.423  49.419  1.00  0.00     0.010 C 
HETATM   28  C4  UNL     1      27.468  10.619  48.889  1.00  0.00    -0.041 C 
HETATM   29  C5  UNL     1      26.111  10.921  48.363  1.00  0.00     0.050 C 
BRANCH  28  30
HETATM   30  C3  UNL     1      28.569  11.553  48.859  1.00  0.00     0.035 C 
HETATM   31  C2  UNL     1      29.857  11.264  48.880  1.00  0.00    -0.007 C 
HETATM   32  C1  UNL     1      30.788  12.405  48.973  1.00  0.00     0.038 C 
HETATM   33 CL1  UNL     1      28.223  13.277  48.946  1.00  0.00    -0.084 Cl
ENDBRANCH  28  30
ENDBRANCH  26  27
ENDBRANCH  23  25
ENDBRANCH   1  23
TORSDOF 4
ENDMDL
MODEL 9
REMARK VINA RESULT:      -8.5      2.152      3.873
REMARK  4 active torsions:
REMARK  status: ('A' for Active; 'I' for Inactive)
REMARK    1  A    between atoms: C3_3  and  C4_5 
REMARK    2  A    between atoms: C6_7  and  C7_8 
REMARK    3  A    between atoms: C8_9  and  N1_10 
REMARK    4  A    between atoms: N1_10  and  C9_11 
ROOT
HETATM    1  C9  UNL     1      26.253   4.483  49.348  1.00  0.00     0.211 C 
HETATM    2  N2  UNL     1      26.718   3.771  50.586  1.00  0.00    -0.288 N 
HETATM    3  N3  UNL     1      25.824   2.925  51.362  1.00  0.00    -0.164 NA
HETATM    4  C10 UNL     1      24.765   2.585  50.724  1.00  0.00     0.127 C 
HETATM    5  C11 UNL     1      24.387   3.242  49.451  1.00  0.00     0.097 C 
HETATM    6  C12 UNL     1      24.795   4.673  49.570  1.00  0.00     0.053 C 
HETATM    7  C13 UNL     1      23.707   5.397  49.660  1.00  0.00     0.274 A 
HETATM    8  N4  UNL     1      22.413   5.988  49.811  1.00  0.00     0.125 N 
HETATM    9  C14 UNL     1      21.524   4.895  50.242  1.00  0.00     0.177 A 
HETATM   10  O1  UNL     1      22.630   5.296  49.919  1.00  0.00     0.000 OA
HETATM   11  C15 UNL     1      20.278   4.137  50.697  1.00  0.00     0.070 C 
HETATM   12  C16 UNL     1      20.851   3.052  51.598  1.00  0.00     0.006 C 
HETATM   13  C17 UNL     1      19.932   2.247  52.426  1.00  0.00     0.000 C 
HETATM   14  C18 UNL     1      20.789   1.308  53.338  1.00  0.00     0.000 C 
HETATM   15  C19 UNL     1      21.470   0.297  52.516  1.00  0.00     0.009 C 
HETATM   16  C20 UNL     1      22.936   0.007  52.878  1.00  0.00     0.103 C 
HETATM   17  C21 UNL     1      23.573   1.375  52.704  1.00  0.00     0.223 C 
HETATM   18  O2  UNL     1      23.864   2.502  53.119  1.00  0.00    -0.273 OA
HETATM   19  N5  UNL     1      24.123   1.560  51.443  1.00  0.00    -0.314 N 
HETATM   20  H13 UNL     1      27.702   3.849  50.955  1.00  0.00     0.184 HD
HETATM   21  H17 UNL     1      22.188   7.041  49.641  1.00  0.00     0.323 HD
HETATM   22  H30 UNL     1      24.168   0.867  50.698  1.00  0.00     0.170 HD
ENDROOT
BRANCH   1  23
HETATM   23  N1  UNL     1      26.969   5.724  49.231  1.00  0.00    -0.376 N 
HETATM   24  H11 UNL     1      26.642   6.511  49.858  1.00  0.00     0.161 HD
BRANCH  23  25
HETATM   25  C8  UNL     1      28.054   6.189  48.459  1.00  0.00     0.085 C 
HETATM   26  C7  UNL     1      29.169   5.440  48.405  1.00  0.00     0.017 C 
BRANCH  26  27
HETATM   27  C6  UNL     1      30.365   5.763  47.667  1.00  0.00     0.010 C 
HETATM   28  C4  UNL     1      31.612   5.973  48.072  1.00  0.00    -0.041 C 
HETATM   29  C5  UNL     1      31.918   5.876  49.522  1.00  0.00     0.050 C 
BRANCH  28  30
HETATM   30  C3  UNL     1      32.595   6.286  47.061  1.00  0.00     0.035 C 
HETATM   31  C2  UNL     1      32.405   6.331  45.756  1.00  0.00    -0.007 C 
HETATM   32  C1  UNL     1      33.603   6.548  44.922  1.00  0.00     0.038 C 
HETATM   33 CL1  UNL     1      34.274   6.500  47.546  1.00  0.00    -0.084 Cl
ENDBRANCH  28  30
ENDBRANCH  26  27
ENDBRANCH  23  25
ENDBRANCH   1  23
TORSDOF 4
ENDMDL
