MODEL 1
REMARK VINA RESULT:      -8.7      0.000      0.000
REMARK  5 active torsions:
REMARK  status: ('A' for Active; 'I' for Inactive)
REMARK    1  A    between atoms: C2_2  and  C4_4 
REMARK    2  A    between atoms: C9_9  and  N1_10 
REMARK    3  A    between atoms: C10_12  and  N3_13 
REMARK    4  A    between atoms: C15_19  and  C16_20 
REMARK    5  A    between atoms: C16_20  and  C17_21 
ROOT
HETATM    1  N1  UNL     1      22.733   1.523  51.839  1.00  0.00    -0.243 N 
HETATM    2  N2  UNL     1      22.283   0.965  50.629  1.00  0.00    -0.123 N 
HETATM    3  C10 UNL     1      22.321   1.806  49.479  1.00  0.00     0.713 A 
HETATM    4  N4  UNL     1      22.757   3.010  49.613  1.00  0.00    -0.061 NA
HETATM    5  C11 UNL     1      23.209   3.561  50.847  1.00  0.00     0.107 A 
HETATM    6  C12 UNL     1      23.214   2.854  51.981  1.00  0.00     0.068 A 
HETATM    7  C13 UNL     1      23.734   3.682  53.078  1.00  0.00     0.089 A 
HETATM    8  C14 UNL     1      24.024   4.964  52.383  1.00  0.00    -0.011 A 
HETATM    9  C15 UNL     1      23.720   4.904  51.075  1.00  0.00    -0.026 A 
HETATM   10  H12 UNL     1      21.933  -0.008  50.540  1.00  0.00     0.206 HD
ENDROOT
BRANCH   1  11
HETATM   11  C9  UNL     1      22.700   0.646  52.987  1.00  0.00     0.063 A 
HETATM   12  C4  UNL     1      23.850   0.046  53.456  1.00  0.00    -0.026 A 
HETATM   13  C5  UNL     1      23.748  -0.798  54.557  1.00  0.00     0.010 A 
HETATM   14  C6  UNL     1      22.535  -1.047  55.187  1.00  0.00     0.001 A 
HETATM   15  C7  UNL     1      21.400  -0.413  54.669  1.00  0.00     0.002 A 
HETATM   16  C8  UNL     1      21.464   0.431  53.577  1.00  0.00     0.032 A 
BRANCH  12  17
HETATM   17  C2  UNL     1      25.168   0.280  52.815  1.00  0.00     0.013 C 
HETATM   18  C1  UNL     1      25.849  -1.081  52.746  1.00  0.00     0.015 C 
HETATM   19  C3  UNL     1      26.074   1.189  53.617  1.00  0.00     0.015 C 
ENDBRANCH  12  17
ENDBRANCH   1  11
BRANCH   3  20
HETATM   20  N3  UNL     1      21.873   1.281  48.235  1.00  0.00    -0.232 N 
HETATM   21  H13 UNL     1      21.158   0.587  47.929  1.00  0.00     0.174 HD
HETATM   22  H14 UNL     1      22.406   1.718  47.462  1.00  0.00     0.174 HD
ENDBRANCH   3  20
BRANCH   9  23
HETATM   23  C16 UNL     1      23.890   6.012  50.108  1.00  0.00     0.081 C 
BRANCH  23  24
HETATM   24  C17 UNL     1      25.245   6.060  49.516  1.00  0.00    -0.032 A 
HETATM   25  C18 UNL     1      26.030   4.936  49.231  1.00  0.00     0.011 A 
HETATM   26  C19 UNL     1      27.287   4.991  48.672  1.00  0.00     0.024 A 
HETATM   27  C20 UNL     1      27.791   6.244  48.382  1.00  0.00     0.035 A 
HETATM   28 CL1  UNL     1      29.398   6.403  47.670  1.00  0.00    -0.084 Cl
HETATM   29  C21 UNL     1      27.047   7.363  48.650  1.00  0.00     0.048 A 
HETATM   30  C22 UNL     1      25.788   7.304  49.208  1.00  0.00     0.042 A 
HETATM   31 CL2  UNL     1      24.848   8.733  49.543  1.00  0.00    -0.084 Cl
ENDBRANCH  23  24
ENDBRANCH   9  23
TORSDOF 5
ENDMDL
MODEL 2
REMARK VINA RESULT:      -8.6      2.014      3.517
REMARK  5 active torsions:
REMARK  status: ('A' for Active; 'I' for Inactive)
REMARK    1  A    between atoms: C2_2  and  C4_4 
REMARK    2  A    between atoms: C9_9  and  N1_10 
REMARK    3  A    between atoms: C10_12  and  N3_13 
REMARK    4  A    between atoms: C15_19  and  C16_20 
REMARK    5  A    between atoms: C16_20  and  C17_21 
ROOT
HETATM    1  N1  UNL     1      24.331   3.441  51.749  1.00  0.00    -0.243 N 
HETATM    2  N2  UNL     1      23.243   4.244  52.140  1.00  0.00    -0.123 N 
HETATM    3  C10 UNL     1      23.086   5.488  51.463  1.00  0.00     0.713 A 
HETATM    4  N4  UNL     1      23.936   5.801  50.548  1.00  0.00    -0.061 NA
HETATM    5  C11 UNL     1      25.033   4.977  50.165  1.00  0.00     0.107 A 
HETATM    6  C12 UNL     1      25.266   3.793  50.737  1.00  0.00     0.068 A 
HETATM    7  C13 UNL     1      26.457   3.177  50.134  1.00  0.00     0.089 A 
HETATM    8  C14 UNL     1      26.855   4.199  49.131  1.00  0.00    -0.011 A 
HETATM    9  C15 UNL     1      26.028   5.258  49.140  1.00  0.00    -0.026 A 
HETATM   10  H12 UNL     1      22.568   3.976  52.881  1.00  0.00     0.206 HD
ENDROOT
BRANCH   1  11
HETATM   11  C9  UNL     1      24.459   2.178  52.438  1.00  0.00     0.063 A 
HETATM   12  C4  UNL     1      23.453   1.235  52.386  1.00  0.00    -0.026 A 
HETATM   13  C5  UNL     1      23.633   0.043  53.082  1.00  0.00     0.010 A 
HETATM   14  C6  UNL     1      24.785  -0.216  53.816  1.00  0.00     0.001 A 
HETATM   15  C7  UNL     1      25.772   0.776  53.834  1.00  0.00     0.002 A 
HETATM   16  C8  UNL     1      25.626   1.969  53.156  1.00  0.00     0.032 A 
BRANCH  12  17
HETATM   17  C2  UNL     1      22.205   1.468  51.618  1.00  0.00     0.013 C 
HETATM   18  C1  UNL     1      21.232   0.382  52.057  1.00  0.00     0.015 C 
HETATM   19  C3  UNL     1      22.384   1.325  50.122  1.00  0.00     0.015 C 
ENDBRANCH  12  17
ENDBRANCH   1  11
BRANCH   3  20
HETATM   20  N3  UNL     1      22.000   6.331  51.829  1.00  0.00    -0.232 N 
HETATM   21  H13 UNL     1      21.350   6.974  51.330  1.00  0.00     0.174 HD
HETATM   22  H14 UNL     1      21.840   6.265  52.851  1.00  0.00     0.174 HD
ENDBRANCH   3  20
BRANCH   9  23
HETATM   23  C16 UNL     1      26.151   6.444  48.263  1.00  0.00     0.081 C 
BRANCH  23  24
HETATM   24  C17 UNL     1      27.328   7.282  48.583  1.00  0.00    -0.032 A 
HETATM   25  C18 UNL     1      28.632   7.024  48.143  1.00  0.00     0.011 A 
HETATM   26  C19 UNL     1      29.720   7.814  48.439  1.00  0.00     0.024 A 
HETATM   27  C20 UNL     1      29.491   8.927  49.225  1.00  0.00     0.035 A 
HETATM   28 CL1  UNL     1      30.832   9.990  49.657  1.00  0.00    -0.084 Cl
HETATM   29  C21 UNL     1      28.226   9.205  49.672  1.00  0.00     0.048 A 
HETATM   30  C22 UNL     1      27.139   8.413  49.371  1.00  0.00     0.042 A 
HETATM   31 CL2  UNL     1      25.533   8.776  49.942  1.00  0.00    -0.084 Cl
ENDBRANCH  23  24
ENDBRANCH   9  23
TORSDOF 5
ENDMDL
MODEL 3
REMARK VINA RESULT:      -8.2      1.614      2.450
REMARK  5 active torsions:
REMARK  status: ('A' for Active; 'I' for Inactive)
REMARK    1  A    between atoms: C2_2  and  C4_4 
REMARK    2  A    between atoms: C9_9  and  N1_10 
REMARK    3  A    between atoms: C10_12  and  N3_13 
REMARK    4  A    between atoms: C15_19  and  C16_20 
REMARK    5  A    between atoms: C16_20  and  C17_21 
ROOT
HETATM    1  N1  UNL     1      23.293   2.613  52.324  1.00  0.00    -0.243 N 
HETATM    2  N2  UNL     1      23.559   3.554  53.335  1.00  0.00    -0.123 N 
HETATM    3  C10 UNL     1      23.844   4.886  52.915  1.00  0.00     0.713 A 
HETATM    4  N4  UNL     1      23.843   5.145  51.653  1.00  0.00    -0.061 NA
HETATM    5  C11 UNL     1      23.572   4.179  50.642  1.00  0.00     0.107 A 
HETATM    6  C12 UNL     1      23.293   2.906  50.933  1.00  0.00     0.068 A 
HETATM    7  C13 UNL     1      23.056   2.155  49.692  1.00  0.00     0.089 A 
HETATM    8  C14 UNL     1      23.242   3.206  48.658  1.00  0.00    -0.011 A 
HETATM    9  C15 UNL     1      23.545   4.396  49.203  1.00  0.00    -0.026 A 
HETATM   10  H12 UNL     1      23.558   3.327  54.347  1.00  0.00     0.206 HD
ENDROOT
BRANCH   1  11
HETATM   11  C9  UNL     1      22.990   1.274  52.777  1.00  0.00     0.063 A 
HETATM   12  C4  UNL     1      23.997   0.372  53.052  1.00  0.00    -0.026 A 
HETATM   13  C5  UNL     1      23.637  -0.905  53.472  1.00  0.00     0.010 A 
HETATM   14  C6  UNL     1      22.310  -1.287  53.621  1.00  0.00     0.001 A 
HETATM   15  C7  UNL     1      21.329  -0.331  53.328  1.00  0.00     0.002 A 
HETATM   16  C8  UNL     1      21.650   0.944  52.908  1.00  0.00     0.032 A 
BRANCH  12  17
HETATM   17  C2  UNL     1      25.429   0.733  52.906  1.00  0.00     0.013 C 
HETATM   18  C1  UNL     1      26.124  -0.511  52.367  1.00  0.00     0.015 C 
HETATM   19  C3  UNL     1      26.098   1.083  54.217  1.00  0.00     0.015 C 
ENDBRANCH  12  17
ENDBRANCH   1  11
BRANCH   3  20
HETATM   20  N3  UNL     1      24.121   5.869  53.905  1.00  0.00    -0.232 N 
HETATM   21  H13 UNL     1      23.591   6.640  54.364  1.00  0.00     0.174 HD
HETATM   22  H14 UNL     1      25.099   5.765  54.233  1.00  0.00     0.174 HD
ENDBRANCH   3  20
BRANCH   9  23
HETATM   23  C16 UNL     1      23.792   5.644  48.446  1.00  0.00     0.081 C 
BRANCH  23  24
HETATM   24  C17 UNL     1      25.224   6.010  48.383  1.00  0.00    -0.032 A 
HETATM   25  C18 UNL     1      26.280   5.156  48.729  1.00  0.00     0.011 A 
HETATM   26  C19 UNL     1      27.610   5.503  48.659  1.00  0.00     0.024 A 
HETATM   27  C20 UNL     1      27.904   6.779  48.219  1.00  0.00     0.035 A 
HETATM   28 CL1  UNL     1      29.584   7.306  48.106  1.00  0.00    -0.084 Cl
HETATM   29  C21 UNL     1      26.893   7.637  47.874  1.00  0.00     0.048 A 
HETATM   30  C22 UNL     1      25.562   7.286  47.943  1.00  0.00     0.042 A 
HETATM   31 CL2  UNL     1      24.283   8.384  47.499  1.00  0.00    -0.084 Cl
ENDBRANCH  23  24
ENDBRANCH   9  23
TORSDOF 5
ENDMDL
MODEL 4
REMARK VINA RESULT:      -8.1      2.619      4.813
REMARK  5 active torsions:
REMARK  status: ('A' for Active; 'I' for Inactive)
REMARK    1  A    between atoms: C2_2  and  C4_4 
REMARK    2  A    between atoms: C9_9  and  N1_10 
REMARK    3  A    between atoms: C10_12  and  N3_13 
REMARK    4  A    between atoms: C15_19  and  C16_20 
REMARK    5  A    between atoms: C16_20  and  C17_21 
ROOT
HETATM    1  N1  UNL     1      24.727   4.489  50.943  1.00  0.00    -0.243 N 
HETATM    2  N2  UNL     1      24.014   5.605  51.418  1.00  0.00    -0.123 N 
HETATM    3  C10 UNL     1      24.426   6.883  50.940  1.00  0.00     0.713 A 
HETATM    4  N4  UNL     1      25.413   6.940  50.115  1.00  0.00    -0.061 NA
HETATM    5  C11 UNL     1      26.125   5.800  49.644  1.00  0.00     0.107 A 
HETATM    6  C12 UNL     1      25.816   4.560  50.032  1.00  0.00     0.068 A 
HETATM    7  C13 UNL     1      26.716   3.598  49.380  1.00  0.00     0.089 A 
HETATM    8  C14 UNL     1      27.578   4.492  48.563  1.00  0.00    -0.011 A 
HETATM    9  C15 UNL     1      27.242   5.784  48.710  1.00  0.00    -0.026 A 
HETATM   10  H12 UNL     1      23.221   5.540  52.084  1.00  0.00     0.206 HD
ENDROOT
BRANCH   1  11
HETATM   11  C9  UNL     1      24.278   3.204  51.429  1.00  0.00     0.063 A 
HETATM   12  C4  UNL     1      23.260   2.522  50.799  1.00  0.00    -0.026 A 
HETATM   13  C5  UNL     1      22.866   1.295  51.325  1.00  0.00     0.010 A 
HETATM   14  C6  UNL     1      23.468   0.748  52.452  1.00  0.00     0.001 A 
HETATM   15  C7  UNL     1      24.496   1.484  53.052  1.00  0.00     0.002 A 
HETATM   16  C8  UNL     1      24.911   2.705  52.557  1.00  0.00     0.032 A 
BRANCH  12  17
HETATM   17  C2  UNL     1      22.585   3.066  49.593  1.00  0.00     0.013 C 
HETATM   18  C1  UNL     1      21.163   3.400  50.021  1.00  0.00     0.015 C 
HETATM   19  C3  UNL     1      22.485   2.069  48.459  1.00  0.00     0.015 C 
ENDBRANCH  12  17
ENDBRANCH   1  11
BRANCH   3  20
HETATM   20  N3  UNL     1      23.733   8.038  51.397  1.00  0.00    -0.232 N 
HETATM   21  H13 UNL     1      22.819   8.230  51.858  1.00  0.00     0.174 HD
HETATM   22  H14 UNL     1      24.308   8.882  51.215  1.00  0.00     0.174 HD
ENDBRANCH   3  20
BRANCH   9  23
HETATM   23  C16 UNL     1      27.906   6.922  48.035  1.00  0.00     0.081 C 
BRANCH  23  24
HETATM   24  C17 UNL     1      29.359   6.715  47.846  1.00  0.00    -0.032 A 
HETATM   25  C18 UNL     1      30.186   6.015  48.733  1.00  0.00     0.011 A 
HETATM   26  C19 UNL     1      31.535   5.820  48.544  1.00  0.00     0.024 A 
HETATM   27  C20 UNL     1      32.092   6.359  47.401  1.00  0.00     0.035 A 
HETATM   28 CL1  UNL     1      33.818   6.161  47.085  1.00  0.00    -0.084 Cl
HETATM   29  C21 UNL     1      31.310   7.050  46.513  1.00  0.00     0.048 A 
HETATM   30  C22 UNL     1      29.958   7.241  46.705  1.00  0.00     0.042 A 
HETATM   31 CL2  UNL     1      28.969   8.118  45.569  1.00  0.00    -0.084 Cl
ENDBRANCH  23  24
ENDBRANCH   9  23
TORSDOF 5
ENDMDL
MODEL 5
REMARK VINA RESULT:      -8.0      2.552      4.105
REMARK  5 active torsions:
REMARK  status: ('A' for Active; 'I' for Inactive)
REMARK    1  A    between atoms: C2_2  and  C4_4 
REMARK    2  A    between atoms: C9_9  and  N1_10 
REMARK    3  A    between atoms: C10_12  and  N3_13 
REMARK    4  A    between atoms: C15_19  and  C16_20 
REMARK    5  A    between atoms: C16_20  and  C17_21 
ROOT
HETATM    1  N1  UNL     1      23.278   2.716  51.962  1.00  0.00    -0.243 N 
HETATM    2  N2  UNL     1      23.707   3.859  52.661  1.00  0.00    -0.123 N 
HETATM    3  C10 UNL     1      23.773   5.077  51.925  1.00  0.00     0.713 A 
HETATM    4  N4  UNL     1      23.442   5.060  50.680  1.00  0.00    -0.061 NA
HETATM    5  C11 UNL     1      23.010   3.894  49.986  1.00  0.00     0.107 A 
HETATM    6  C12 UNL     1      22.913   2.705  50.587  1.00  0.00     0.068 A 
HETATM    7  C13 UNL     1      22.440   1.700  49.624  1.00  0.00     0.089 A 
HETATM    8  C14 UNL     1      22.283   2.511  48.389  1.00  0.00    -0.011 A 
HETATM    9  C15 UNL     1      22.614   3.798  48.589  1.00  0.00    -0.026 A 
HETATM   10  H12 UNL     1      23.971   3.853  53.664  1.00  0.00     0.206 HD
ENDROOT
BRANCH   1  11
HETATM   11  C9  UNL     1      23.203   1.498  52.735  1.00  0.00     0.063 A 
HETATM   12  C4  UNL     1      24.334   0.754  53.000  1.00  0.00    -0.026 A 
HETATM   13  C5  UNL     1      24.192  -0.416  53.740  1.00  0.00     0.010 A 
HETATM   14  C6  UNL     1      22.957  -0.846  54.212  1.00  0.00     0.001 A 
HETATM   15  C7  UNL     1      21.843  -0.053  53.913  1.00  0.00     0.002 A 
HETATM   16  C8  UNL     1      21.948   1.114  53.181  1.00  0.00     0.032 A 
BRANCH  12  17
HETATM   17  C2  UNL     1      25.673   1.171  52.516  1.00  0.00     0.013 C 
HETATM   18  C1  UNL     1      26.397  -0.110  52.125  1.00  0.00     0.015 C 
HETATM   19  C3  UNL     1      26.512   1.849  53.577  1.00  0.00     0.015 C 
ENDBRANCH  12  17
ENDBRANCH   1  11
BRANCH   3  20
HETATM   20  N3  UNL     1      24.204   6.256  52.593  1.00  0.00    -0.232 N 
HETATM   21  H13 UNL     1      25.120   6.714  52.789  1.00  0.00     0.174 HD
HETATM   22  H14 UNL     1      23.381   6.765  52.965  1.00  0.00     0.174 HD
ENDBRANCH   3  20
BRANCH   9  23
HETATM   23  C16 UNL     1      22.567   4.861  47.560  1.00  0.00     0.081 C 
BRANCH  23  24
HETATM   24  C17 UNL     1      21.893   6.092  48.029  1.00  0.00    -0.032 A 
HETATM   25  C18 UNL     1      20.544   6.169  48.399  1.00  0.00     0.011 A 
HETATM   26  C19 UNL     1      19.928   7.317  48.843  1.00  0.00     0.024 A 
HETATM   27  C20 UNL     1      20.705   8.457  48.919  1.00  0.00     0.035 A 
HETATM   28 CL1  UNL     1      19.990   9.973  49.472  1.00  0.00    -0.084 Cl
HETATM   29  C21 UNL     1      22.027   8.413  48.563  1.00  0.00     0.048 A 
HETATM   30  C22 UNL     1      22.641   7.261  48.121  1.00  0.00     0.042 A 
HETATM   31 CL2  UNL     1      24.325   7.215  47.674  1.00  0.00    -0.084 Cl
ENDBRANCH  23  24
ENDBRANCH   9  23
TORSDOF 5
ENDMDL
MODEL 6
REMARK VINA RESULT:      -8.0      3.587      4.866
REMARK  5 active torsions:
REMARK  status: ('A' for Active; 'I' for Inactive)
REMARK    1  A    between atoms: C2_2  and  C4_4 
REMARK    2  A    between atoms: C9_9  and  N1_10 
REMARK    3  A    between atoms: C10_12  and  N3_13 
REMARK    4  A    between atoms: C15_19  and  C16_20 
REMARK    5  A    between atoms: C16_20  and  C17_21 
ROOT
HETATM    1  N1  UNL     1      23.263   2.717  51.955  1.00  0.00    -0.243 N 
HETATM    2  N2  UNL     1      23.684   3.858  52.662  1.00  0.00    -0.123 N 
HETATM    3  C10 UNL     1      23.774   5.074  51.925  1.00  0.00     0.713 A 
HETATM    4  N4  UNL     1      23.469   5.058  50.674  1.00  0.00    -0.061 NA
HETATM    5  C11 UNL     1      23.044   3.893  49.973  1.00  0.00     0.107 A 
HETATM    6  C12 UNL     1      22.927   2.706  50.573  1.00  0.00     0.068 A 
HETATM    7  C13 UNL     1      22.467   1.702  49.602  1.00  0.00     0.089 A 
HETATM    8  C14 UNL     1      22.341   2.513  48.362  1.00  0.00    -0.011 A 
HETATM    9  C15 UNL     1      22.676   3.797  48.567  1.00  0.00    -0.026 A 
HETATM   10  H12 UNL     1      23.928   3.852  53.670  1.00  0.00     0.206 HD
ENDROOT
BRANCH   1  11
HETATM   11  C9  UNL     1      23.164   1.500  52.728  1.00  0.00     0.063 A 
HETATM   12  C4  UNL     1      24.282   0.744  53.009  1.00  0.00    -0.026 A 
HETATM   13  C5  UNL     1      24.117  -0.424  53.748  1.00  0.00     0.010 A 
HETATM   14  C6  UNL     1      22.871  -0.839  54.205  1.00  0.00     0.001 A 
HETATM   15  C7  UNL     1      21.771  -0.033  53.890  1.00  0.00     0.002 A 
HETATM   16  C8  UNL     1      21.898   1.131  53.158  1.00  0.00     0.032 A 
BRANCH  12  17
HETATM   17  C2  UNL     1      25.633   1.145  52.542  1.00  0.00     0.013 C 
HETATM   18  C1  UNL     1      26.347  -0.145  52.163  1.00  0.00     0.015 C 
HETATM   19  C3  UNL     1      26.465   1.815  53.614  1.00  0.00     0.015 C 
ENDBRANCH  12  17
ENDBRANCH   1  11
BRANCH   3  20
HETATM   20  N3  UNL     1      24.199   6.251  52.601  1.00  0.00    -0.232 N 
HETATM   21  H13 UNL     1      25.067   6.827  52.628  1.00  0.00     0.174 HD
HETATM   22  H14 UNL     1      23.433   6.599  53.206  1.00  0.00     0.174 HD
ENDBRANCH   3  20
BRANCH   9  23
HETATM   23  C16 UNL     1      22.658   4.859  47.536  1.00  0.00     0.081 C 
BRANCH  23  24
HETATM   24  C17 UNL     1      21.596   4.666  46.524  1.00  0.00    -0.032 A 
HETATM   25  C18 UNL     1      21.783   4.049  45.281  1.00  0.00     0.011 A 
HETATM   26  C19 UNL     1      20.786   3.866  44.350  1.00  0.00     0.024 A 
HETATM   27  C20 UNL     1      19.527   4.329  44.679  1.00  0.00     0.035 A 
HETATM   28 CL1  UNL     1      18.194   4.140  43.538  1.00  0.00    -0.084 Cl
HETATM   29  C21 UNL     1      19.313   4.938  45.888  1.00  0.00     0.048 A 
HETATM   30  C22 UNL     1      20.313   5.117  46.818  1.00  0.00     0.042 A 
HETATM   31 CL2  UNL     1      20.030   5.890  48.355  1.00  0.00    -0.084 Cl
ENDBRANCH  23  24
ENDBRANCH   9  23
TORSDOF 5
ENDMDL
MODEL 7
REMARK VINA RESULT:      -7.9      2.400      3.860
REMARK  5 active torsions:
REMARK  status: ('A' for Active; 'I' for Inactive)
REMARK    1  A    between atoms: C2_2  and  C4_4 
REMARK    2  A    between atoms: C9_9  and  N1_10 
REMARK    3  A    between atoms: C10_12  and  N3_13 
REMARK    4  A    between atoms: C15_19  and  C16_20 
REMARK    5  A    between atoms: C16_20  and  C17_21 
ROOT
HETATM    1  N1  UNL     1      24.359   2.537  52.094  1.00  0.00    -0.243 N 
HETATM    2  N2  UNL     1      24.462   3.462  53.148  1.00  0.00    -0.123 N 
HETATM    3  C10 UNL     1      23.843   4.731  52.953  1.00  0.00     0.713 A 
HETATM    4  N4  UNL     1      23.235   4.952  51.840  1.00  0.00    -0.061 NA
HETATM    5  C11 UNL     1      23.139   4.004  50.782  1.00  0.00     0.107 A 
HETATM    6  C12 UNL     1      23.685   2.787  50.867  1.00  0.00     0.068 A 
HETATM    7  C13 UNL     1      23.420   2.038  49.631  1.00  0.00     0.089 A 
HETATM    8  C14 UNL     1      22.636   3.021  48.839  1.00  0.00    -0.011 A 
HETATM    9  C15 UNL     1      22.466   4.177  49.503  1.00  0.00    -0.026 A 
HETATM   10  H12 UNL     1      24.958   3.267  54.038  1.00  0.00     0.206 HD
ENDROOT
BRANCH   1  11
HETATM   11  C9  UNL     1      24.981   1.253  52.322  1.00  0.00     0.063 A 
HETATM   12  C4  UNL     1      24.287   0.224  52.923  1.00  0.00    -0.026 A 
HETATM   13  C5  UNL     1      24.948  -0.984  53.126  1.00  0.00     0.010 A 
HETATM   14  C6  UNL     1      26.270  -1.176  52.742  1.00  0.00     0.001 A 
HETATM   15  C7  UNL     1      26.926  -0.098  52.137  1.00  0.00     0.002 A 
HETATM   16  C8  UNL     1      26.301   1.114  51.921  1.00  0.00     0.032 A 
BRANCH  12  17
HETATM   17  C2  UNL     1      22.875   0.381  53.352  1.00  0.00     0.013 C 
HETATM   18  C1  UNL     1      22.675  -0.591  54.507  1.00  0.00     0.015 C 
HETATM   19  C3  UNL     1      21.875   0.009  52.279  1.00  0.00     0.015 C 
ENDBRANCH  12  17
ENDBRANCH   1  11
BRANCH   3  20
HETATM   20  N3  UNL     1      23.926   5.697  53.993  1.00  0.00    -0.232 N 
HETATM   21  H13 UNL     1      24.427   5.777  54.904  1.00  0.00     0.174 HD
HETATM   22  H14 UNL     1      23.332   6.513  53.757  1.00  0.00     0.174 HD
ENDBRANCH   3  20
BRANCH   9  23
HETATM   23  C16 UNL     1      21.733   5.356  48.990  1.00  0.00     0.081 C 
BRANCH  23  24
HETATM   24  C17 UNL     1      22.617   6.506  48.697  1.00  0.00    -0.032 A 
HETATM   25  C18 UNL     1      23.607   6.517  47.706  1.00  0.00     0.011 A 
HETATM   26  C19 UNL     1      24.419   7.594  47.435  1.00  0.00     0.024 A 
HETATM   27  C20 UNL     1      24.234   8.728  48.202  1.00  0.00     0.035 A 
HETATM   28 CL1  UNL     1      25.239  10.152  47.924  1.00  0.00    -0.084 Cl
HETATM   29  C21 UNL     1      23.274   8.748  49.179  1.00  0.00     0.048 A 
HETATM   30  C22 UNL     1      22.461   7.667  49.446  1.00  0.00     0.042 A 
HETATM   31 CL2  UNL     1      21.241   7.703  50.690  1.00  0.00    -0.084 Cl
ENDBRANCH  23  24
ENDBRANCH   9  23
TORSDOF 5
ENDMDL
MODEL 8
REMARK VINA RESULT:      -7.8      3.176      6.834
REMARK  5 active torsions:
REMARK  status: ('A' for Active; 'I' for Inactive)
REMARK    1  A    between atoms: C2_2  and  C4_4 
REMARK    2  A    between atoms: C9_9  and  N1_10 
REMARK    3  A    between atoms: C10_12  and  N3_13 
REMARK    4  A    between atoms: C15_19  and  C16_20 
REMARK    5  A    between atoms: C16_20  and  C17_21 
ROOT
HETATM    1  N1  UNL     1      22.605   4.801  49.613  1.00  0.00    -0.243 N 
HETATM    2  N2  UNL     1      22.469   4.082  48.412  1.00  0.00    -0.123 N 
HETATM    3  C10 UNL     1      22.682   2.674  48.478  1.00  0.00     0.713 A 
HETATM    4  N4  UNL     1      22.982   2.151  49.616  1.00  0.00    -0.061 NA
HETATM    5  C11 UNL     1      23.117   2.894  50.824  1.00  0.00     0.107 A 
HETATM    6  C12 UNL     1      22.937   4.218  50.867  1.00  0.00     0.068 A 
HETATM    7  C13 UNL     1      23.137   4.700  52.241  1.00  0.00     0.089 A 
HETATM    8  C14 UNL     1      23.454   3.440  52.964  1.00  0.00    -0.011 A 
HETATM    9  C15 UNL     1      23.446   2.376  52.144  1.00  0.00    -0.026 A 
HETATM   10  H12 UNL     1      22.228   4.520  47.504  1.00  0.00     0.206 HD
ENDROOT
BRANCH   1  11
HETATM   11  C9  UNL     1      22.368   6.224  49.523  1.00  0.00     0.063 A 
HETATM   12  C4  UNL     1      23.401   7.102  49.271  1.00  0.00    -0.026 A 
HETATM   13  C5  UNL     1      23.108   8.461  49.209  1.00  0.00     0.010 A 
HETATM   14  C6  UNL     1      21.819   8.947  49.391  1.00  0.00     0.001 A 
HETATM   15  C7  UNL     1      20.809   8.011  49.645  1.00  0.00     0.002 A 
HETATM   16  C8  UNL     1      21.065   6.656  49.714  1.00  0.00     0.032 A 
BRANCH  12  17
HETATM   17  C2  UNL     1      24.794   6.631  49.071  1.00  0.00     0.013 C 
HETATM   18  C1  UNL     1      25.577   7.105  50.288  1.00  0.00     0.015 C 
HETATM   19  C3  UNL     1      25.463   7.229  47.852  1.00  0.00     0.015 C 
ENDBRANCH  12  17
ENDBRANCH   1  11
BRANCH   3  20
HETATM   20  N3  UNL     1      22.556   1.909  47.286  1.00  0.00    -0.232 N 
HETATM   21  H13 UNL     1      22.954   1.951  46.323  1.00  0.00     0.174 HD
HETATM   22  H14 UNL     1      21.903   1.120  47.447  1.00  0.00     0.174 HD
ENDBRANCH   3  20
BRANCH   9  23
HETATM   23  C16 UNL     1      23.722   0.981  52.553  1.00  0.00     0.081 C 
BRANCH  23  24
HETATM   24  C17 UNL     1      25.159   0.722  52.795  1.00  0.00    -0.032 A 
HETATM   25  C18 UNL     1      26.207   1.324  52.087  1.00  0.00     0.011 A 
HETATM   26  C19 UNL     1      27.540   1.083  52.325  1.00  0.00     0.024 A 
HETATM   27  C20 UNL     1      27.846   0.185  53.329  1.00  0.00     0.035 A 
HETATM   28 CL1  UNL     1      29.533  -0.186  53.695  1.00  0.00    -0.084 Cl
HETATM   29  C21 UNL     1      26.843  -0.421  54.039  1.00  0.00     0.048 A 
HETATM   30  C22 UNL     1      25.508  -0.175  53.799  1.00  0.00     0.042 A 
HETATM   31 CL2  UNL     1      24.239  -0.949  54.709  1.00  0.00    -0.084 Cl
ENDBRANCH  23  24
ENDBRANCH   9  23
TORSDOF 5
ENDMDL
MODEL 9
REMARK VINA RESULT:      -7.8      3.636      6.779
REMARK  5 active torsions:
REMARK  status: ('A' for Active; 'I' for Inactive)
REMARK    1  A    between atoms: C2_2  and  C4_4 
REMARK    2  A    between atoms: C9_9  and  N1_10 
REMARK    3  A    between atoms: C10_12  and  N3_13 
REMARK    4  A    between atoms: C15_19  and  C16_20 
REMARK    5  A    between atoms: C16_20  and  C17_21 
ROOT
HETATM    1  N1  UNL     1      21.573   4.981  50.231  1.00  0.00    -0.243 N 
HETATM    2  N2  UNL     1      22.146   6.264  50.302  1.00  0.00    -0.123 N 
HETATM    3  C10 UNL     1      23.279   6.416  51.153  1.00  0.00     0.713 A 
HETATM    4  N4  UNL     1      23.706   5.386  51.797  1.00  0.00    -0.061 NA
HETATM    5  C11 UNL     1      23.114   4.093  51.714  1.00  0.00     0.107 A 
HETATM    6  C12 UNL     1      22.050   3.847  50.944  1.00  0.00     0.068 A 
HETATM    7  C13 UNL     1      21.671   2.432  51.061  1.00  0.00     0.089 A 
HETATM    8  C14 UNL     1      22.690   1.920  52.013  1.00  0.00    -0.011 A 
HETATM    9  C15 UNL     1      23.541   2.884  52.403  1.00  0.00    -0.026 A 
HETATM   10  H12 UNL     1      21.788   7.084  49.777  1.00  0.00     0.206 HD
ENDROOT
BRANCH   1  11
HETATM   11  C9  UNL     1      20.436   4.850  49.349  1.00  0.00     0.063 A 
HETATM   12  C4  UNL     1      20.593   4.427  48.045  1.00  0.00    -0.026 A 
HETATM   13  C5  UNL     1      19.459   4.333  47.244  1.00  0.00     0.010 A 
HETATM   14  C6  UNL     1      18.192   4.649  47.719  1.00  0.00     0.001 A 
HETATM   15  C7  UNL     1      18.091   5.073  49.049  1.00  0.00     0.002 A 
HETATM   16  C8  UNL     1      19.195   5.178  49.872  1.00  0.00     0.032 A 
BRANCH  12  17
HETATM   17  C2  UNL     1      21.926   4.081  47.493  1.00  0.00     0.013 C 
HETATM   18  C1  UNL     1      21.926   4.573  46.052  1.00  0.00     0.015 C 
HETATM   19  C3  UNL     1      22.193   2.591  47.453  1.00  0.00     0.015 C 
ENDBRANCH  12  17
ENDBRANCH   1  11
BRANCH   3  20
HETATM   20  N3  UNL     1      23.887   7.698  51.257  1.00  0.00    -0.232 N 
HETATM   21  H13 UNL     1      23.896   8.469  51.958  1.00  0.00     0.174 HD
HETATM   22  H14 UNL     1      24.459   7.880  50.411  1.00  0.00     0.174 HD
ENDBRANCH   3  20
BRANCH   9  23
HETATM   23  C16 UNL     1      24.668   2.699  53.345  1.00  0.00     0.081 C 
BRANCH  23  24
HETATM   24  C17 UNL     1      25.335   1.386  53.198  1.00  0.00    -0.032 A 
HETATM   25  C18 UNL     1      25.055   0.258  53.979  1.00  0.00     0.011 A 
HETATM   26  C19 UNL     1      25.676  -0.961  53.830  1.00  0.00     0.024 A 
HETATM   27  C20 UNL     1      26.636  -1.058  52.842  1.00  0.00     0.035 A 
HETATM   28 CL1  UNL     1      27.485  -2.585  52.587  1.00  0.00    -0.084 Cl
HETATM   29  C21 UNL     1      26.934   0.028  52.061  1.00  0.00     0.048 A 
HETATM   30  C22 UNL     1      26.308   1.247  52.213  1.00  0.00     0.042 A 
HETATM   31 CL2  UNL     1      26.690   2.622  51.214  1.00  0.00    -0.084 Cl
ENDBRANCH  23  24
ENDBRANCH   9  23
TORSDOF 5
ENDMDL
