MODEL 1
REMARK VINA RESULT:      -7.6      0.000      0.000
REMARK  8 active torsions:
REMARK  status: ('A' for Active; 'I' for Inactive)
REMARK    1  A    between atoms: C3_3  and  C4_4 
REMARK       I    between atoms: C4_4  and  N1_6 
REMARK    2  A    between atoms: N1_6  and  C5_7 
REMARK    3  A    between atoms: C5_7  and  C6_8 
REMARK    4  A    between atoms: C6_8  and  N2_9 
REMARK    5  A    between atoms: C15_23  and  C16_24 
REMARK    6  A    between atoms: C17_25  and  O3_26 
REMARK    7  A    between atoms: O3_26  and  C18_27 
REMARK    8  A    between atoms: C18_27  and  C19_28 
ROOT
HETATM    1  C1  UNL     1      24.226   6.683  50.965  1.00  0.00     0.053 C 
HETATM    2  C2  UNL     1      24.496   5.284  50.701  1.00  0.00    -0.004 C 
HETATM    3  C3  UNL     1      25.413   5.452  49.847  1.00  0.00     0.105 C 
HETATM    4  N3  UNL     1      25.081   4.072  49.364  1.00  0.00    -0.373 N 
HETATM    5  C11 UNL     1      23.753   3.408  49.356  1.00  0.00     0.152 C 
HETATM    6  C12 UNL     1      22.413   3.198  49.400  1.00  0.00     0.141 C 
HETATM    7  N4  UNL     1      21.270   4.066  49.557  1.00  0.00    -0.168 NA
HETATM    8  N5  UNL     1      20.873   4.471  50.628  1.00  0.00    -0.174 NA
HETATM    9  C13 UNL     1      21.310   4.275  51.942  1.00  0.00     0.295 C 
HETATM   10  N6  UNL     1      22.565   4.858  52.298  1.00  0.00    -0.370 N 
HETATM   11  C14 UNL     1      23.805   4.596  51.720  1.00  0.00     0.037 C 
HETATM   12  C15 UNL     1      24.682   3.640  51.808  1.00  0.00     0.031 C 
HETATM   13  H17 UNL     1      25.704   3.349  48.953  1.00  0.00     0.160 HD
HETATM   14  H22 UNL     1      23.045   5.517  52.942  1.00  0.00     0.161 HD
ENDROOT
BRANCH   3  15
HETATM   15  C4  UNL     1      26.348   6.062  48.998  1.00  0.00     0.268 C 
HETATM   16  O1  UNL     1      26.059   6.829  48.058  1.00  0.00    -0.266 OA
HETATM   17  N1  UNL     1      27.762   5.908  49.054  1.00  0.00    -0.354 N 
HETATM   18  H4  UNL     1      28.178   5.270  49.802  1.00  0.00     0.162 HD
BRANCH  17  19
HETATM   19  C5  UNL     1      28.685   6.557  48.153  1.00  0.00     0.153 C 
BRANCH  19  20
HETATM   20  C6  UNL     1      30.037   5.934  48.086  1.00  0.00     0.292 C 
BRANCH  20  21
HETATM   21  N2  UNL     1      30.953   6.385  49.096  1.00  0.00     0.094 N 
HETATM   22  C7  UNL     1      32.157   5.641  49.178  1.00  0.00     0.298 C 
HETATM   23  C8  UNL     1      33.314   6.267  48.441  1.00  0.00     0.198 C 
HETATM   24  O2  UNL     1      33.493   7.587  48.747  1.00  0.00    -0.388 OA
HETATM   25  C9  UNL     1      32.369   8.342  48.509  1.00  0.00     0.198 C 
HETATM   26  C10 UNL     1      31.115   7.814  49.119  1.00  0.00     0.298 C 
ENDBRANCH  20  21
ENDBRANCH  19  20
ENDBRANCH  17  19
ENDBRANCH   3  15
BRANCH  12  27
HETATM   27  C16 UNL     1      24.095   2.797  52.871  1.00  0.00     0.026 C 
HETATM   28  C17 UNL     1      24.073   1.486  52.698  1.00  0.00     0.135 C 
BRANCH  28  29
HETATM   29  O3  UNL     1      23.621   0.449  53.461  1.00  0.00    -0.357 OA
BRANCH  29  30
HETATM   30  C18 UNL     1      24.379  -0.727  53.710  1.00  0.00     0.233 C 
BRANCH  30  31
HETATM   31  C19 UNL     1      25.811  -0.435  53.786  1.00  0.00     0.059 A 
HETATM   32  C20 UNL     1      26.974  -0.322  53.171  1.00  0.00     0.048 A 
HETATM   33  C21 UNL     1      27.607   0.030  54.448  1.00  0.00     0.119 A 
HETATM   34  N7  UNL     1      26.450  -0.089  55.025  1.00  0.00    -0.263 NA
ENDBRANCH  30  31
ENDBRANCH  29  30
ENDBRANCH  28  29
ENDBRANCH  12  27
TORSDOF 8
ENDMDL
MODEL 2
REMARK VINA RESULT:      -7.4      2.713      8.249
REMARK  8 active torsions:
REMARK  status: ('A' for Active; 'I' for Inactive)
REMARK    1  A    between atoms: C3_3  and  C4_4 
REMARK       I    between atoms: C4_4  and  N1_6 
REMARK    2  A    between atoms: N1_6  and  C5_7 
REMARK    3  A    between atoms: C5_7  and  C6_8 
REMARK    4  A    between atoms: C6_8  and  N2_9 
REMARK    5  A    between atoms: C15_23  and  C16_24 
REMARK    6  A    between atoms: C17_25  and  O3_26 
REMARK    7  A    between atoms: O3_26  and  C18_27 
REMARK    8  A    between atoms: C18_27  and  C19_28 
ROOT
HETATM    1  C1  UNL     1      24.501   6.967  47.999  1.00  0.00     0.053 C 
HETATM    2  C2  UNL     1      25.721   7.093  48.771  1.00  0.00    -0.004 C 
HETATM    3  C3  UNL     1      25.270   6.646  49.865  1.00  0.00     0.105 C 
HETATM    4  N3  UNL     1      26.392   7.394  50.520  1.00  0.00    -0.373 N 
HETATM    5  C11 UNL     1      27.005   8.675  50.086  1.00  0.00     0.152 C 
HETATM    6  C12 UNL     1      27.210   9.865  49.465  1.00  0.00     0.141 C 
HETATM    7  N4  UNL     1      26.447  10.644  48.519  1.00  0.00    -0.168 NA
HETATM    8  N5  UNL     1      26.440  10.437  47.325  1.00  0.00    -0.174 NA
HETATM    9  C13 UNL     1      27.085   9.495  46.518  1.00  0.00     0.295 C 
HETATM   10  N6  UNL     1      26.669   8.135  46.656  1.00  0.00    -0.370 N 
HETATM   11  C14 UNL     1      26.718   7.355  47.809  1.00  0.00     0.037 C 
HETATM   12  C15 UNL     1      27.649   6.714  48.451  1.00  0.00     0.031 C 
HETATM   13  H17 UNL     1      26.929   7.159  51.378  1.00  0.00     0.160 HD
HETATM   14  H22 UNL     1      26.279   7.310  46.159  1.00  0.00     0.161 HD
ENDROOT
BRANCH   3  15
HETATM   15  C4  UNL     1      24.406   6.106  50.828  1.00  0.00     0.268 C 
HETATM   16  O1  UNL     1      23.435   6.708  51.328  1.00  0.00    -0.266 OA
HETATM   17  N1  UNL     1      24.491   4.805  51.400  1.00  0.00    -0.354 N 
HETATM   18  H4  UNL     1      25.280   4.159  51.086  1.00  0.00     0.162 HD
BRANCH  17  19
HETATM   19  C5  UNL     1      23.576   4.295  52.395  1.00  0.00     0.153 C 
BRANCH  19  20
HETATM   20  C6  UNL     1      24.158   3.279  53.317  1.00  0.00     0.292 C 
BRANCH  20  21
HETATM   21  N2  UNL     1      24.957   2.275  52.673  1.00  0.00     0.094 N 
HETATM   22  C7  UNL     1      26.210   2.032  53.288  1.00  0.00     0.298 C 
HETATM   23  C8  UNL     1      26.215   0.844  54.218  1.00  0.00     0.198 C 
HETATM   24  O2  UNL     1      25.682  -0.281  53.653  1.00  0.00    -0.388 OA
HETATM   25  C9  UNL     1      24.397  -0.088  53.202  1.00  0.00     0.198 C 
HETATM   26  C10 UNL     1      24.211   1.097  52.318  1.00  0.00     0.298 C 
ENDBRANCH  20  21
ENDBRANCH  19  20
ENDBRANCH  17  19
ENDBRANCH   3  15
BRANCH  12  27
HETATM   27  C16 UNL     1      28.807   6.893  47.551  1.00  0.00     0.026 C 
HETATM   28  C17 UNL     1      29.969   6.367  47.903  1.00  0.00     0.135 C 
BRANCH  28  29
HETATM   29  O3  UNL     1      31.202   6.345  47.319  1.00  0.00    -0.357 OA
BRANCH  29  30
HETATM   30  C18 UNL     1      32.303   5.617  47.846  1.00  0.00     0.233 C 
BRANCH  30  31
HETATM   31  C19 UNL     1      32.318   4.239  47.357  1.00  0.00     0.059 A 
HETATM   32  C20 UNL     1      31.760   3.298  46.616  1.00  0.00     0.048 A 
HETATM   33  C21 UNL     1      32.808   2.359  47.034  1.00  0.00     0.119 A 
HETATM   34  N7  UNL     1      33.333   3.303  47.753  1.00  0.00    -0.263 NA
ENDBRANCH  30  31
ENDBRANCH  29  30
ENDBRANCH  28  29
ENDBRANCH  12  27
TORSDOF 8
ENDMDL
MODEL 3
REMARK VINA RESULT:      -7.4      2.701      8.275
REMARK  8 active torsions:
REMARK  status: ('A' for Active; 'I' for Inactive)
REMARK    1  A    between atoms: C3_3  and  C4_4 
REMARK       I    between atoms: C4_4  and  N1_6 
REMARK    2  A    between atoms: N1_6  and  C5_7 
REMARK    3  A    between atoms: C5_7  and  C6_8 
REMARK    4  A    between atoms: C6_8  and  N2_9 
REMARK    5  A    between atoms: C15_23  and  C16_24 
REMARK    6  A    between atoms: C17_25  and  O3_26 
REMARK    7  A    between atoms: O3_26  and  C18_27 
REMARK    8  A    between atoms: C18_27  and  C19_28 
ROOT
HETATM    1  C1  UNL     1      23.115   4.298  48.858  1.00  0.00     0.053 C 
HETATM    2  C2  UNL     1      24.118   4.989  49.643  1.00  0.00    -0.004 C 
HETATM    3  C3  UNL     1      24.026   4.281  50.686  1.00  0.00     0.105 C 
HETATM    4  N3  UNL     1      24.611   5.453  51.415  1.00  0.00    -0.373 N 
HETATM    5  C11 UNL     1      24.431   6.895  51.109  1.00  0.00     0.152 C 
HETATM    6  C12 UNL     1      23.943   8.058  50.607  1.00  0.00     0.141 C 
HETATM    7  N4  UNL     1      22.838   8.387  49.739  1.00  0.00    -0.168 NA
HETATM    8  N5  UNL     1      22.884   8.310  48.531  1.00  0.00    -0.174 NA
HETATM    9  C13 UNL     1      23.890   7.928  47.638  1.00  0.00     0.295 C 
HETATM   10  N6  UNL     1      24.266   6.549  47.642  1.00  0.00    -0.370 N 
HETATM   11  C14 UNL     1      24.777   5.822  48.714  1.00  0.00     0.037 C 
HETATM   12  C15 UNL     1      25.936   5.723  49.294  1.00  0.00     0.031 C 
HETATM   13  H17 UNL     1      25.232   5.469  52.248  1.00  0.00     0.160 HD
HETATM   14  H22 UNL     1      24.349   5.688  47.066  1.00  0.00     0.161 HD
ENDROOT
BRANCH   3  15
HETATM   15  C4  UNL     1      23.628   3.285  51.590  1.00  0.00     0.268 C 
HETATM   16  O1  UNL     1      23.017   3.497  52.657  1.00  0.00    -0.266 OA
HETATM   17  N1  UNL     1      23.855   1.886  51.454  1.00  0.00    -0.354 N 
HETATM   18  H4  UNL     1      24.380   1.534  50.594  1.00  0.00     0.162 HD
BRANCH  17  19
HETATM   19  C5  UNL     1      23.427   0.898  52.417  1.00  0.00     0.153 C 
BRANCH  19  20
HETATM   20  C6  UNL     1      24.497  -0.032  52.877  1.00  0.00     0.292 C 
BRANCH  20  21
HETATM   21  N2  UNL     1      25.820   0.526  52.863  1.00  0.00     0.094 N 
HETATM   22  C7  UNL     1      26.243   1.076  54.099  1.00  0.00     0.298 C 
HETATM   23  C8  UNL     1      27.096   0.146  54.923  1.00  0.00     0.198 C 
HETATM   24  O2  UNL     1      28.128  -0.405  54.215  1.00  0.00    -0.388 OA
HETATM   25  C9  UNL     1      27.699  -1.084  53.098  1.00  0.00     0.198 C 
HETATM   26  C10 UNL     1      26.784  -0.316  52.207  1.00  0.00     0.298 C 
ENDBRANCH  20  21
ENDBRANCH  19  20
ENDBRANCH  17  19
ENDBRANCH   3  15
BRANCH  12  27
HETATM   27  C16 UNL     1      26.778   6.566  48.420  1.00  0.00     0.026 C 
HETATM   28  C17 UNL     1      27.427   7.584  48.959  1.00  0.00     0.135 C 
BRANCH  28  29
HETATM   29  O3  UNL     1      28.268   8.532  48.451  1.00  0.00    -0.357 OA
BRANCH  29  30
HETATM   30  C18 UNL     1      29.502   8.889  49.061  1.00  0.00     0.233 C 
BRANCH  30  31
HETATM   31  C19 UNL     1      29.735  10.331  48.993  1.00  0.00     0.059 A 
HETATM   32  C20 UNL     1      30.590  11.338  49.000  1.00  0.00     0.048 A 
HETATM   33  C21 UNL     1      29.471  12.279  48.862  1.00  0.00     0.119 A 
HETATM   34  N7  UNL     1      28.656  11.270  48.859  1.00  0.00    -0.263 NA
ENDBRANCH  30  31
ENDBRANCH  29  30
ENDBRANCH  28  29
ENDBRANCH  12  27
TORSDOF 8
ENDMDL
MODEL 4
REMARK VINA RESULT:      -7.3      2.034      2.667
REMARK  8 active torsions:
REMARK  status: ('A' for Active; 'I' for Inactive)
REMARK    1  A    between atoms: C3_3  and  C4_4 
REMARK       I    between atoms: C4_4  and  N1_6 
REMARK    2  A    between atoms: N1_6  and  C5_7 
REMARK    3  A    between atoms: C5_7  and  C6_8 
REMARK    4  A    between atoms: C6_8  and  N2_9 
REMARK    5  A    between atoms: C15_23  and  C16_24 
REMARK    6  A    between atoms: C17_25  and  O3_26 
REMARK    7  A    between atoms: O3_26  and  C18_27 
REMARK    8  A    between atoms: C18_27  and  C19_28 
ROOT
HETATM    1  C1  UNL     1      22.078   5.613  51.780  1.00  0.00     0.053 C 
HETATM    2  C2  UNL     1      23.286   4.875  51.472  1.00  0.00    -0.004 C 
HETATM    3  C3  UNL     1      23.988   5.858  51.099  1.00  0.00     0.105 C 
HETATM    4  N3  UNL     1      24.815   4.857  50.349  1.00  0.00    -0.373 N 
HETATM    5  C11 UNL     1      24.358   3.596  49.712  1.00  0.00     0.152 C 
HETATM    6  C12 UNL     1      23.568   2.632  49.176  1.00  0.00     0.141 C 
HETATM    7  N4  UNL     1      22.145   2.510  48.961  1.00  0.00    -0.168 NA
HETATM    8  N5  UNL     1      21.361   2.164  49.818  1.00  0.00    -0.174 NA
HETATM    9  C13 UNL     1      21.516   1.797  51.158  1.00  0.00     0.295 C 
HETATM   10  N6  UNL     1      21.903   2.828  52.069  1.00  0.00    -0.370 N 
HETATM   11  C14 UNL     1      23.065   3.595  52.022  1.00  0.00     0.037 C 
HETATM   12  C15 UNL     1      24.311   3.404  52.338  1.00  0.00     0.031 C 
HETATM   13  H17 UNL     1      25.833   4.867  50.140  1.00  0.00     0.160 HD
HETATM   14  H22 UNL     1      21.641   3.344  52.932  1.00  0.00     0.161 HD
ENDROOT
BRANCH   3  15
HETATM   15  C4  UNL     1      24.395   7.164  50.793  1.00  0.00     0.268 C 
HETATM   16  O1  UNL     1      23.644   8.160  50.789  1.00  0.00    -0.266 OA
HETATM   17  N1  UNL     1      25.710   7.574  50.433  1.00  0.00    -0.354 N 
HETATM   18  H4  UNL     1      26.479   6.835  50.378  1.00  0.00     0.162 HD
BRANCH  17  19
HETATM   19  C5  UNL     1      26.080   8.936  50.123  1.00  0.00     0.153 C 
BRANCH  19  20
HETATM   20  C6  UNL     1      27.532   9.238  50.267  1.00  0.00     0.292 C 
BRANCH  20  21
HETATM   21  N2  UNL     1      28.242   9.366  49.026  1.00  0.00     0.094 N 
HETATM   22  C7  UNL     1      29.076  10.509  48.936  1.00  0.00     0.298 C 
HETATM   23  C8  UNL     1      30.524  10.235  49.253  1.00  0.00     0.198 C 
HETATM   24  O2  UNL     1      31.030   9.163  48.572  1.00  0.00    -0.388 OA
HETATM   25  C9  UNL     1      30.313   8.011  48.792  1.00  0.00     0.198 C 
HETATM   26  C10 UNL     1      28.842   8.135  48.585  1.00  0.00     0.298 C 
ENDBRANCH  20  21
ENDBRANCH  19  20
ENDBRANCH  17  19
ENDBRANCH   3  15
BRANCH  12  27
HETATM   27  C16 UNL     1      24.259   2.059  52.949  1.00  0.00     0.026 C 
HETATM   28  C17 UNL     1      25.054   1.117  52.472  1.00  0.00     0.135 C 
BRANCH  28  29
HETATM   29  O3  UNL     1      25.254  -0.194  52.799  1.00  0.00    -0.357 OA
BRANCH  29  30
HETATM   30  C18 UNL     1      25.910  -0.610  53.989  1.00  0.00     0.233 C 
BRANCH  30  31
HETATM   31  C19 UNL     1      27.312  -0.195  54.001  1.00  0.00     0.059 A 
HETATM   32  C20 UNL     1      28.561  -0.423  53.635  1.00  0.00     0.048 A 
HETATM   33  C21 UNL     1      28.982   0.795  54.338  1.00  0.00     0.119 A 
HETATM   34  N7  UNL     1      27.747   0.993  54.683  1.00  0.00    -0.263 NA
ENDBRANCH  30  31
ENDBRANCH  29  30
ENDBRANCH  28  29
ENDBRANCH  12  27
TORSDOF 8
ENDMDL
MODEL 5
REMARK VINA RESULT:      -7.3      5.166     10.446
REMARK  8 active torsions:
REMARK  status: ('A' for Active; 'I' for Inactive)
REMARK    1  A    between atoms: C3_3  and  C4_4 
REMARK       I    between atoms: C4_4  and  N1_6 
REMARK    2  A    between atoms: N1_6  and  C5_7 
REMARK    3  A    between atoms: C5_7  and  C6_8 
REMARK    4  A    between atoms: C6_8  and  N2_9 
REMARK    5  A    between atoms: C15_23  and  C16_24 
REMARK    6  A    between atoms: C17_25  and  O3_26 
REMARK    7  A    between atoms: O3_26  and  C18_27 
REMARK    8  A    between atoms: C18_27  and  C19_28 
ROOT
HETATM    1  C1  UNL     1      20.884   0.863  49.635  1.00  0.00     0.053 C 
HETATM    2  C2  UNL     1      20.922   1.233  51.036  1.00  0.00    -0.004 C 
HETATM    3  C3  UNL     1      19.691   1.082  51.279  1.00  0.00     0.105 C 
HETATM    4  N3  UNL     1      19.905   2.016  52.432  1.00  0.00    -0.373 N 
HETATM    5  C11 UNL     1      20.857   3.153  52.516  1.00  0.00     0.152 C 
HETATM    6  C12 UNL     1      21.726   4.138  52.175  1.00  0.00     0.141 C 
HETATM    7  N4  UNL     1      22.263   4.607  50.920  1.00  0.00    -0.168 NA
HETATM    8  N5  UNL     1      23.196   4.087  50.349  1.00  0.00    -0.174 NA
HETATM    9  C13 UNL     1      24.003   2.985  50.650  1.00  0.00     0.295 C 
HETATM   10  N6  UNL     1      23.382   1.699  50.598  1.00  0.00    -0.370 N 
HETATM   11  C14 UNL     1      22.296   1.260  51.353  1.00  0.00     0.037 C 
HETATM   12  C15 UNL     1      22.127   0.847  52.573  1.00  0.00     0.031 C 
HETATM   13  H17 UNL     1      19.435   2.039  53.359  1.00  0.00     0.160 HD
HETATM   14  H22 UNL     1      23.409   0.758  50.158  1.00  0.00     0.161 HD
ENDROOT
BRANCH   3  15
HETATM   15  C4  UNL     1      18.328   0.792  51.124  1.00  0.00     0.268 C 
HETATM   16  O1  UNL     1      17.850  -0.357  51.046  1.00  0.00    -0.266 OA
HETATM   17  N1  UNL     1      17.272   1.742  51.021  1.00  0.00    -0.354 N 
HETATM   18  H4  UNL     1      17.513   2.781  51.058  1.00  0.00     0.162 HD
BRANCH  17  19
HETATM   19  C5  UNL     1      15.879   1.392  50.857  1.00  0.00     0.153 C 
BRANCH  19  20
HETATM   20  C6  UNL     1      14.994   1.807  51.982  1.00  0.00     0.292 C 
BRANCH  20  21
HETATM   21  N2  UNL     1      14.378   3.093  51.813  1.00  0.00     0.094 N 
HETATM   22  C7  UNL     1      12.965   3.063  51.703  1.00  0.00     0.298 C 
HETATM   23  C8  UNL     1      12.244   3.352  52.995  1.00  0.00     0.198 C 
HETATM   24  O2  UNL     1      12.696   4.480  53.621  1.00  0.00    -0.388 OA
HETATM   25  C9  UNL     1      14.046   4.438  53.877  1.00  0.00     0.198 C 
HETATM   26  C10 UNL     1      14.900   4.095  52.705  1.00  0.00     0.298 C 
ENDBRANCH  20  21
ENDBRANCH  19  20
ENDBRANCH  17  19
ENDBRANCH   3  15
BRANCH  12  27
HETATM   27  C16 UNL     1      23.518   0.816  53.072  1.00  0.00     0.026 C 
HETATM   28  C17 UNL     1      24.000  -0.328  53.528  1.00  0.00     0.135 C 
BRANCH  28  29
HETATM   29  O3  UNL     1      25.209  -0.694  54.044  1.00  0.00    -0.357 OA
BRANCH  29  30
HETATM   30  C18 UNL     1      26.358  -0.937  53.243  1.00  0.00     0.233 C 
BRANCH  30  31
HETATM   31  C19 UNL     1      27.465  -0.055  53.614  1.00  0.00     0.059 A 
HETATM   32  C20 UNL     1      28.239   0.973  53.313  1.00  0.00     0.048 A 
HETATM   33  C21 UNL     1      28.962   0.788  54.577  1.00  0.00     0.119 A 
HETATM   34  N7  UNL     1      28.187  -0.217  54.845  1.00  0.00    -0.263 NA
ENDBRANCH  30  31
ENDBRANCH  29  30
ENDBRANCH  28  29
ENDBRANCH  12  27
TORSDOF 8
ENDMDL
MODEL 6
REMARK VINA RESULT:      -7.3      2.213      7.618
REMARK  8 active torsions:
REMARK  status: ('A' for Active; 'I' for Inactive)
REMARK    1  A    between atoms: C3_3  and  C4_4 
REMARK       I    between atoms: C4_4  and  N1_6 
REMARK    2  A    between atoms: N1_6  and  C5_7 
REMARK    3  A    between atoms: C5_7  and  C6_8 
REMARK    4  A    between atoms: C6_8  and  N2_9 
REMARK    5  A    between atoms: C15_23  and  C16_24 
REMARK    6  A    between atoms: C17_25  and  O3_26 
REMARK    7  A    between atoms: O3_26  and  C18_27 
REMARK    8  A    between atoms: C18_27  and  C19_28 
ROOT
HETATM    1  C1  UNL     1      23.151   4.313  48.756  1.00  0.00     0.053 C 
HETATM    2  C2  UNL     1      24.084   4.988  49.636  1.00  0.00    -0.004 C 
HETATM    3  C3  UNL     1      23.926   4.243  50.645  1.00  0.00     0.105 C 
HETATM    4  N3  UNL     1      24.439   5.397  51.454  1.00  0.00    -0.373 N 
HETATM    5  C11 UNL     1      24.260   6.846  51.185  1.00  0.00     0.152 C 
HETATM    6  C12 UNL     1      23.794   8.020  50.688  1.00  0.00     0.141 C 
HETATM    7  N4  UNL     1      22.751   8.366  49.752  1.00  0.00    -0.168 NA
HETATM    8  N5  UNL     1      22.886   8.331  48.549  1.00  0.00    -0.174 NA
HETATM    9  C13 UNL     1      23.960   7.992  47.720  1.00  0.00     0.295 C 
HETATM   10  N6  UNL     1      24.355   6.619  47.705  1.00  0.00    -0.370 N 
HETATM   11  C14 UNL     1      24.796   5.861  48.787  1.00  0.00     0.037 C 
HETATM   12  C15 UNL     1      25.911   5.756  49.447  1.00  0.00     0.031 C 
HETATM   13  H17 UNL     1      24.997   5.391  52.331  1.00  0.00     0.160 HD
HETATM   14  H22 UNL     1      24.492   5.779  47.108  1.00  0.00     0.161 HD
ENDROOT
BRANCH   3  15
HETATM   15  C4  UNL     1      23.478   3.212  51.483  1.00  0.00     0.268 C 
HETATM   16  O1  UNL     1      22.418   3.241  52.141  1.00  0.00    -0.266 OA
HETATM   17  N1  UNL     1      24.144   1.979  51.731  1.00  0.00    -0.354 N 
HETATM   18  H4  UNL     1      25.080   1.797  51.249  1.00  0.00     0.162 HD
BRANCH  17  19
HETATM   19  C5  UNL     1      23.642   0.947  52.608  1.00  0.00     0.153 C 
BRANCH  19  20
HETATM   20  C6  UNL     1      24.663  -0.035  53.068  1.00  0.00     0.292 C 
BRANCH  20  21
HETATM   21  N2  UNL     1      26.023   0.394  52.901  1.00  0.00     0.094 N 
HETATM   22  C7  UNL     1      26.593   1.013  54.041  1.00  0.00     0.298 C 
HETATM   23  C8  UNL     1      27.430   0.086  54.886  1.00  0.00     0.198 C 
HETATM   24  O2  UNL     1      28.349  -0.619  54.159  1.00  0.00    -0.388 OA
HETATM   25  C9  UNL     1      27.773  -1.354  53.149  1.00  0.00     0.198 C 
HETATM   26  C10 UNL     1      26.855  -0.589  52.259  1.00  0.00     0.298 C 
ENDBRANCH  20  21
ENDBRANCH  19  20
ENDBRANCH  17  19
ENDBRANCH   3  15
BRANCH  12  27
HETATM   27  C16 UNL     1      26.802   6.639  48.666  1.00  0.00     0.026 C 
HETATM   28  C17 UNL     1      27.924   6.134  48.180  1.00  0.00     0.135 C 
BRANCH  28  29
HETATM   29  O3  UNL     1      28.940   6.658  47.435  1.00  0.00    -0.357 OA
BRANCH  29  30
HETATM   30  C18 UNL     1      30.033   7.372  47.997  1.00  0.00     0.233 C 
BRANCH  30  31
HETATM   31  C19 UNL     1      31.071   6.464  48.486  1.00  0.00     0.059 A 
HETATM   32  C20 UNL     1      31.769   5.991  49.503  1.00  0.00     0.048 A 
HETATM   33  C21 UNL     1      32.498   5.110  48.582  1.00  0.00     0.119 A 
HETATM   34  N7  UNL     1      31.797   5.594  47.603  1.00  0.00    -0.263 NA
ENDBRANCH  30  31
ENDBRANCH  29  30
ENDBRANCH  28  29
ENDBRANCH  12  27
TORSDOF 8
ENDMDL
MODEL 7
REMARK VINA RESULT:      -7.2      2.802      7.870
REMARK  8 active torsions:
REMARK  status: ('A' for Active; 'I' for Inactive)
REMARK    1  A    between atoms: C3_3  and  C4_4 
REMARK       I    between atoms: C4_4  and  N1_6 
REMARK    2  A    between atoms: N1_6  and  C5_7 
REMARK    3  A    between atoms: C5_7  and  C6_8 
REMARK    4  A    between atoms: C6_8  and  N2_9 
REMARK    5  A    between atoms: C15_23  and  C16_24 
REMARK    6  A    between atoms: C17_25  and  O3_26 
REMARK    7  A    between atoms: O3_26  and  C18_27 
REMARK    8  A    between atoms: C18_27  and  C19_28 
ROOT
HETATM    1  C1  UNL     1      23.632   4.329  48.575  1.00  0.00     0.053 C 
HETATM    2  C2  UNL     1      24.568   5.289  49.125  1.00  0.00    -0.004 C 
HETATM    3  C3  UNL     1      25.089   4.531  49.993  1.00  0.00     0.105 C 
HETATM    4  N3  UNL     1      25.483   5.787  50.711  1.00  0.00    -0.373 N 
HETATM    5  C11 UNL     1      24.748   7.078  50.754  1.00  0.00     0.152 C 
HETATM    6  C12 UNL     1      23.766   8.008  50.656  1.00  0.00     0.141 C 
HETATM    7  N4  UNL     1      22.381   7.962  50.251  1.00  0.00    -0.168 NA
HETATM    8  N5  UNL     1      22.014   7.984  49.096  1.00  0.00    -0.174 NA
HETATM    9  C13 UNL     1      22.701   8.059  47.881  1.00  0.00     0.295 C 
HETATM   10  N6  UNL     1      23.478   6.919  47.508  1.00  0.00    -0.370 N 
HETATM   11  C14 UNL     1      24.544   6.364  48.213  1.00  0.00     0.037 C 
HETATM   12  C15 UNL     1      25.799   6.663  48.375  1.00  0.00     0.031 C 
HETATM   13  H17 UNL     1      26.319   5.978  51.298  1.00  0.00     0.160 HD
HETATM   14  H22 UNL     1      23.624   6.188  46.784  1.00  0.00     0.161 HD
ENDROOT
BRANCH   3  15
HETATM   15  C4  UNL     1      25.386   3.403  50.771  1.00  0.00     0.268 C 
HETATM   16  O1  UNL     1      24.555   2.537  51.112  1.00  0.00    -0.266 OA
HETATM   17  N1  UNL     1      26.660   3.060  51.305  1.00  0.00    -0.354 N 
HETATM   18  H4  UNL     1      27.486   3.708  51.114  1.00  0.00     0.162 HD
BRANCH  17  19
HETATM   19  C5  UNL     1      26.914   1.885  52.107  1.00  0.00     0.153 C 
BRANCH  19  20
HETATM   20  C6  UNL     1      28.012   2.033  53.104  1.00  0.00     0.292 C 
BRANCH  20  21
HETATM   21  N2  UNL     1      28.112   0.954  54.046  1.00  0.00     0.094 N 
HETATM   22  C7  UNL     1      27.159  -0.079  53.867  1.00  0.00     0.298 C 
HETATM   23  C8  UNL     1      27.679  -1.263  53.090  1.00  0.00     0.198 C 
HETATM   24  O2  UNL     1      28.874  -1.730  53.560  1.00  0.00    -0.388 OA
HETATM   25  C9  UNL     1      29.850  -0.761  53.579  1.00  0.00     0.198 C 
HETATM   26  C10 UNL     1      29.464   0.509  54.257  1.00  0.00     0.298 C 
ENDBRANCH  20  21
ENDBRANCH  19  20
ENDBRANCH  17  19
ENDBRANCH   3  15
BRANCH  12  27
HETATM   27  C16 UNL     1      25.951   7.811  47.457  1.00  0.00     0.026 C 
HETATM   28  C17 UNL     1      27.116   8.437  47.416  1.00  0.00     0.135 C 
BRANCH  28  29
HETATM   29  O3  UNL     1      27.582   9.501  46.700  1.00  0.00    -0.357 OA
BRANCH  29  30
HETATM   30  C18 UNL     1      28.594  10.379  47.175  1.00  0.00     0.233 C 
BRANCH  30  31
HETATM   31  C19 UNL     1      29.629   9.654  47.912  1.00  0.00     0.059 A 
HETATM   32  C20 UNL     1      30.613   8.773  47.904  1.00  0.00     0.048 A 
HETATM   33  C21 UNL     1      30.801   8.982  49.345  1.00  0.00     0.119 A 
HETATM   34  N7  UNL     1      29.829   9.842  49.322  1.00  0.00    -0.263 NA
ENDBRANCH  30  31
ENDBRANCH  29  30
ENDBRANCH  28  29
ENDBRANCH  12  27
TORSDOF 8
ENDMDL
MODEL 8
REMARK VINA RESULT:      -7.1      2.938      8.107
REMARK  8 active torsions:
REMARK  status: ('A' for Active; 'I' for Inactive)
REMARK    1  A    between atoms: C3_3  and  C4_4 
REMARK       I    between atoms: C4_4  and  N1_6 
REMARK    2  A    between atoms: N1_6  and  C5_7 
REMARK    3  A    between atoms: C5_7  and  C6_8 
REMARK    4  A    between atoms: C6_8  and  N2_9 
REMARK    5  A    between atoms: C15_23  and  C16_24 
REMARK    6  A    between atoms: C17_25  and  O3_26 
REMARK    7  A    between atoms: O3_26  and  C18_27 
REMARK    8  A    between atoms: C18_27  and  C19_28 
ROOT
HETATM    1  C1  UNL     1      24.775   4.696  49.083  1.00  0.00     0.053 C 
HETATM    2  C2  UNL     1      24.455   5.752  50.023  1.00  0.00    -0.004 C 
HETATM    3  C3  UNL     1      24.236   5.017  51.028  1.00  0.00     0.105 C 
HETATM    4  N3  UNL     1      23.426   6.159  51.564  1.00  0.00    -0.373 N 
HETATM    5  C11 UNL     1      22.625   7.145  50.794  1.00  0.00     0.152 C 
HETATM    6  C12 UNL     1      21.939   7.752  49.794  1.00  0.00     0.141 C 
HETATM    7  N4  UNL     1      21.631   7.392  48.430  1.00  0.00    -0.168 NA
HETATM    8  N5  UNL     1      22.397   7.543  47.504  1.00  0.00    -0.174 NA
HETATM    9  C13 UNL     1      23.693   8.059  47.413  1.00  0.00     0.295 C 
HETATM   10  N6  UNL     1      24.736   7.292  48.020  1.00  0.00    -0.370 N 
HETATM   11  C14 UNL     1      24.843   6.937  49.363  1.00  0.00     0.037 C 
HETATM   12  C15 UNL     1      25.205   7.546  50.453  1.00  0.00     0.031 C 
HETATM   13  H17 UNL     1      23.278   6.458  52.548  1.00  0.00     0.160 HD
HETATM   14  H22 UNL     1      25.636   6.799  47.857  1.00  0.00     0.161 HD
ENDROOT
BRANCH   3  15
HETATM   15  C4  UNL     1      24.104   3.888  51.849  1.00  0.00     0.268 C 
HETATM   16  O1  UNL     1      23.019   3.434  52.264  1.00  0.00    -0.266 OA
HETATM   17  N1  UNL     1      25.166   3.084  52.352  1.00  0.00    -0.354 N 
HETATM   18  H4  UNL     1      26.170   3.345  52.098  1.00  0.00     0.162 HD
BRANCH  17  19
HETATM   19  C5  UNL     1      24.979   1.930  53.200  1.00  0.00     0.153 C 
BRANCH  19  20
HETATM   20  C6  UNL     1      25.259   0.620  52.546  1.00  0.00     0.292 C 
BRANCH  20  21
HETATM   21  N2  UNL     1      25.750  -0.397  53.431  1.00  0.00     0.094 N 
HETATM   22  C7  UNL     1      26.606  -1.349  52.823  1.00  0.00     0.298 C 
HETATM   23  C8  UNL     1      28.074  -1.062  53.015  1.00  0.00     0.198 C 
HETATM   24  O2  UNL     1      28.406  -0.816  54.318  1.00  0.00    -0.388 OA
HETATM   25  C9  UNL     1      27.687   0.223  54.860  1.00  0.00     0.198 C 
HETATM   26  C10 UNL     1      26.209   0.121  54.692  1.00  0.00     0.298 C 
ENDBRANCH  20  21
ENDBRANCH  19  20
ENDBRANCH  17  19
ENDBRANCH   3  15
BRANCH  12  27
HETATM   27  C16 UNL     1      25.657   8.851  49.928  1.00  0.00     0.026 C 
HETATM   28  C17 UNL     1      26.934   9.172  50.047  1.00  0.00     0.135 C 
BRANCH  28  29
HETATM   29  O3  UNL     1      27.662  10.267  49.678  1.00  0.00    -0.357 OA
BRANCH  29  30
HETATM   30  C18 UNL     1      28.783  10.201  48.806  1.00  0.00     0.233 C 
BRANCH  30  31
HETATM   31  C19 UNL     1      28.534   9.297  47.683  1.00  0.00     0.059 A 
HETATM   32  C20 UNL     1      28.802   8.157  47.071  1.00  0.00     0.048 A 
HETATM   33  C21 UNL     1      27.837   8.504  46.020  1.00  0.00     0.119 A 
HETATM   34  N7  UNL     1      27.596   9.616  46.643  1.00  0.00    -0.263 NA
ENDBRANCH  30  31
ENDBRANCH  29  30
ENDBRANCH  28  29
ENDBRANCH  12  27
TORSDOF 8
ENDMDL
MODEL 9
REMARK VINA RESULT:      -7.0      2.563      3.948
REMARK  8 active torsions:
REMARK  status: ('A' for Active; 'I' for Inactive)
REMARK    1  A    between atoms: C3_3  and  C4_4 
REMARK       I    between atoms: C4_4  and  N1_6 
REMARK    2  A    between atoms: N1_6  and  C5_7 
REMARK    3  A    between atoms: C5_7  and  C6_8 
REMARK    4  A    between atoms: C6_8  and  N2_9 
REMARK    5  A    between atoms: C15_23  and  C16_24 
REMARK    6  A    between atoms: C17_25  and  O3_26 
REMARK    7  A    between atoms: O3_26  and  C18_27 
REMARK    8  A    between atoms: C18_27  and  C19_28 
ROOT
HETATM    1  C1  UNL     1      26.618   3.815  49.894  1.00  0.00     0.053 C 
HETATM    2  C2  UNL     1      25.322   4.382  49.579  1.00  0.00    -0.004 C 
HETATM    3  C3  UNL     1      25.735   5.464  49.071  1.00  0.00     0.105 C 
HETATM    4  N3  UNL     1      24.380   6.018  49.394  1.00  0.00    -0.373 N 
HETATM    5  C11 UNL     1      23.504   5.667  50.541  1.00  0.00     0.152 C 
HETATM    6  C12 UNL     1      23.067   5.190  51.734  1.00  0.00     0.141 C 
HETATM    7  N4  UNL     1      23.705   4.502  52.830  1.00  0.00    -0.168 NA
HETATM    8  N5  UNL     1      23.918   3.309  52.845  1.00  0.00    -0.174 NA
HETATM    9  C13 UNL     1      23.657   2.284  51.931  1.00  0.00     0.295 C 
HETATM   10  N6  UNL     1      24.402   2.301  50.712  1.00  0.00    -0.370 N 
HETATM   11  C14 UNL     1      24.420   3.312  49.754  1.00  0.00     0.037 C 
HETATM   12  C15 UNL     1      23.623   3.694  48.801  1.00  0.00     0.031 C 
HETATM   13  H17 UNL     1      23.822   6.734  48.887  1.00  0.00     0.160 HD
HETATM   14  H22 UNL     1      25.060   1.768  50.108  1.00  0.00     0.161 HD
ENDROOT
BRANCH   3  15
HETATM   15  C4  UNL     1      26.583   6.475  48.599  1.00  0.00     0.268 C 
HETATM   16  O1  UNL     1      26.332   7.218  47.629  1.00  0.00    -0.266 OA
HETATM   17  N1  UNL     1      27.860   6.818  49.127  1.00  0.00    -0.354 N 
HETATM   18  H4  UNL     1      28.233   6.266  49.961  1.00  0.00     0.162 HD
BRANCH  17  19
HETATM   19  C5  UNL     1      28.700   7.869  48.602  1.00  0.00     0.153 C 
BRANCH  19  20
HETATM   20  C6  UNL     1      30.012   7.411  48.065  1.00  0.00     0.292 C 
BRANCH  20  21
HETATM   21  N2  UNL     1      30.510   6.201  48.655  1.00  0.00     0.094 N 
HETATM   22  C7  UNL     1      30.624   5.109  47.759  1.00  0.00     0.298 C 
HETATM   23  C8  UNL     1      32.013   4.915  47.205  1.00  0.00     0.198 C 
HETATM   24  O2  UNL     1      32.980   4.903  48.171  1.00  0.00    -0.388 OA
HETATM   25  C9  UNL     1      32.975   6.043  48.939  1.00  0.00     0.198 C 
HETATM   26  C10 UNL     1      31.648   6.412  49.510  1.00  0.00     0.298 C 
ENDBRANCH  20  21
ENDBRANCH  19  20
ENDBRANCH  17  19
ENDBRANCH   3  15
BRANCH  12  27
HETATM   27  C16 UNL     1      22.582   2.646  48.846  1.00  0.00     0.026 C 
HETATM   28  C17 UNL     1      21.318   3.004  48.699  1.00  0.00     0.135 C 
BRANCH  28  29
HETATM   29  O3  UNL     1      20.143   2.309  48.686  1.00  0.00    -0.357 OA
BRANCH  29  30
HETATM   30  C18 UNL     1      19.260   2.247  49.798  1.00  0.00     0.233 C 
BRANCH  30  31
HETATM   31  C19 UNL     1      19.817   1.432  50.878  1.00  0.00     0.059 A 
HETATM   32  C20 UNL     1      20.515   0.373  51.249  1.00  0.00     0.048 A 
HETATM   33  C21 UNL     1      20.304   0.737  52.656  1.00  0.00     0.119 A 
HETATM   34  N7  UNL     1      19.622   1.768  52.261  1.00  0.00    -0.263 NA
ENDBRANCH  30  31
ENDBRANCH  29  30
ENDBRANCH  28  29
ENDBRANCH  12  27
TORSDOF 8
ENDMDL
