MODEL 1
REMARK VINA RESULT:      -8.7      0.000      0.000
REMARK  7 active torsions:
REMARK  status: ('A' for Active; 'I' for Inactive)
REMARK    1  A    between atoms: C2_2  and  O1_3 
REMARK    2  A    between atoms: O1_3  and  C3_4 
REMARK       I    between atoms: C3_4  and  N1_6 
REMARK    3  A    between atoms: C9_12  and  O3_13 
REMARK    4  A    between atoms: O3_13  and  C10_14 
REMARK    5  A    between atoms: C10_14  and  C11_15 
REMARK    6  A    between atoms: C17_23  and  N3_24 
REMARK    7  A    between atoms: N3_24  and  C18_25 
ROOT
HETATM    1  C3  UNL     1      24.615   6.494  50.577  1.00  0.00     0.363 C 
HETATM    2  O2  UNL     1      23.784   7.118  51.248  1.00  0.00    -0.238 OA
HETATM    3  N1  UNL     1      24.704   5.265  49.821  1.00  0.00    -0.315 N 
HETATM    4  C4  UNL     1      26.003   4.953  49.164  1.00  0.00     0.133 C 
HETATM    5  C5  UNL     1      26.355   3.466  49.514  1.00  0.00     0.062 C 
HETATM    6  C6  UNL     1      24.993   3.091  50.092  1.00  0.00    -0.013 C 
HETATM    7  C7  UNL     1      23.985   3.141  49.192  1.00  0.00     0.014 C 
HETATM    8  C8  UNL     1      23.504   4.456  49.779  1.00  0.00     0.163 C 
HETATM    9  C9  UNL     1      22.860   4.143  51.115  1.00  0.00     0.273 C 
HETATM   10  N2  UNL     1      23.501   2.901  51.680  1.00  0.00    -0.238 NA
HETATM   11  C17 UNL     1      24.816   2.937  51.545  1.00  0.00     0.132 C 
ENDROOT
BRANCH   9  12
HETATM   12  O3  UNL     1      21.507   3.965  51.031  1.00  0.00    -0.358 OA
BRANCH  12  13
HETATM   13  C10 UNL     1      20.910   3.639  52.246  1.00  0.00     0.209 C 
BRANCH  13  14
HETATM   14  C11 UNL     1      20.175   2.360  52.069  1.00  0.00    -0.032 A 
HETATM   15  C12 UNL     1      19.231   2.217  51.066  1.00  0.00     0.009 A 
HETATM   16  C13 UNL     1      18.552   1.027  50.907  1.00  0.00     0.004 A 
HETATM   17  C14 UNL     1      18.776  -0.072  51.732  1.00  0.00     0.042 A 
HETATM   18  C15 UNL     1      19.723   0.106  52.722  1.00  0.00     0.117 A 
HETATM   19  F1  UNL     1      20.046  -0.880  53.602  1.00  0.00    -0.206 F 
HETATM   20  C16 UNL     1      20.415   1.286  52.901  1.00  0.00     0.051 A 
ENDBRANCH  13  14
ENDBRANCH  12  13
ENDBRANCH   9  12
BRANCH  11  21
HETATM   21  N3  UNL     1      25.956   2.813  52.384  1.00  0.00    -0.341 N 
HETATM   22  H19 UNL     1      26.370   3.702  52.732  1.00  0.00     0.167 HD
BRANCH  21  23
HETATM   23  C18 UNL     1      26.344   1.469  52.593  1.00  0.00     0.035 A 
HETATM   24  C19 UNL     1      25.629   0.305  52.514  1.00  0.00     0.029 A 
HETATM   25  C20 UNL     1      26.234  -0.906  52.763  1.00  0.00     0.004 A 
HETATM   26  C21 UNL     1      27.588  -0.963  53.102  1.00  0.00     0.024 A 
HETATM   27  C22 UNL     1      28.342   0.201  53.191  1.00  0.00     0.036 A 
HETATM   28 CL1  UNL     1      30.012   0.047  53.615  1.00  0.00    -0.084 Cl
HETATM   29  C23 UNL     1      27.702   1.418  52.931  1.00  0.00     0.053 A 
ENDBRANCH  21  23
ENDBRANCH  11  21
BRANCH   1  30
HETATM   30  O1  UNL     1      25.691   7.333  50.679  1.00  0.00    -0.304 OA
BRANCH  30  31
HETATM   31  C2  UNL     1      25.762   8.610  50.075  1.00  0.00     0.176 C 
HETATM   32  C1  UNL     1      27.203   9.065  50.098  1.00  0.00     0.034 C 
ENDBRANCH  30  31
ENDBRANCH   1  30
TORSDOF 7
ENDMDL
MODEL 2
REMARK VINA RESULT:      -8.6      3.304      6.796
REMARK  7 active torsions:
REMARK  status: ('A' for Active; 'I' for Inactive)
REMARK    1  A    between atoms: C2_2  and  O1_3 
REMARK    2  A    between atoms: O1_3  and  C3_4 
REMARK       I    between atoms: C3_4  and  N1_6 
REMARK    3  A    between atoms: C9_12  and  O3_13 
REMARK    4  A    between atoms: O3_13  and  C10_14 
REMARK    5  A    between atoms: C10_14  and  C11_15 
REMARK    6  A    between atoms: C17_23  and  N3_24 
REMARK    7  A    between atoms: N3_24  and  C18_25 
ROOT
HETATM    1  C3  UNL     1      25.989   3.487  50.326  1.00  0.00     0.363 C 
HETATM    2  O2  UNL     1      26.965   2.728  50.341  1.00  0.00    -0.238 OA
HETATM    3  N1  UNL     1      24.836   3.797  51.141  1.00  0.00    -0.315 N 
HETATM    4  C4  UNL     1      23.908   4.854  50.650  1.00  0.00     0.133 C 
HETATM    5  C5  UNL     1      22.453   4.282  50.763  1.00  0.00     0.062 C 
HETATM    6  C6  UNL     1      22.805   3.060  51.608  1.00  0.00    -0.013 C 
HETATM    7  C7  UNL     1      23.294   3.363  52.831  1.00  0.00     0.014 C 
HETATM    8  C8  UNL     1      24.702   3.039  52.367  1.00  0.00     0.163 C 
HETATM    9  C9  UNL     1      24.799   1.532  52.238  1.00  0.00     0.273 C 
HETATM   10  N2  UNL     1      23.427   0.988  51.925  1.00  0.00    -0.238 NA
HETATM   11  C17 UNL     1      22.821   1.718  51.005  1.00  0.00     0.132 C 
ENDROOT
BRANCH   9  12
HETATM   12  O3  UNL     1      25.289   0.926  53.362  1.00  0.00    -0.358 OA
BRANCH  12  13
HETATM   13  C10 UNL     1      26.465   1.502  53.838  1.00  0.00     0.209 C 
BRANCH  13  14
HETATM   14  C11 UNL     1      27.564   0.521  53.652  1.00  0.00    -0.032 A 
HETATM   15  C12 UNL     1      28.885   0.890  53.846  1.00  0.00     0.009 A 
HETATM   16  C13 UNL     1      29.901  -0.027  53.672  1.00  0.00     0.004 A 
HETATM   17  C14 UNL     1      29.657  -1.345  53.299  1.00  0.00     0.042 A 
HETATM   18  C15 UNL     1      28.329  -1.679  53.113  1.00  0.00     0.117 A 
HETATM   19  F1  UNL     1      27.940  -2.930  52.746  1.00  0.00    -0.206 F 
HETATM   20  C16 UNL     1      27.295  -0.780  53.281  1.00  0.00     0.051 A 
ENDBRANCH  13  14
ENDBRANCH  12  13
ENDBRANCH   9  12
BRANCH  11  21
HETATM   21  N3  UNL     1      22.202   1.504  49.744  1.00  0.00    -0.341 N 
HETATM   22  H19 UNL     1      22.841   1.387  48.931  1.00  0.00     0.167 HD
BRANCH  21  23
HETATM   23  C18 UNL     1      20.789   1.502  49.815  1.00  0.00     0.035 A 
HETATM   24  C19 UNL     1      19.854   2.206  49.108  1.00  0.00     0.029 A 
HETATM   25  C20 UNL     1      18.511   2.033  49.358  1.00  0.00     0.004 A 
HETATM   26  C21 UNL     1      18.086   1.135  50.341  1.00  0.00     0.024 A 
HETATM   27  C22 UNL     1      19.011   0.405  51.077  1.00  0.00     0.036 A 
HETATM   28 CL1  UNL     1      18.405  -0.686  52.275  1.00  0.00    -0.084 Cl
HETATM   29  C23 UNL     1      20.369   0.601  50.801  1.00  0.00     0.053 A 
ENDBRANCH  21  23
ENDBRANCH  11  21
BRANCH   1  30
HETATM   30  O1  UNL     1      26.210   4.146  49.147  1.00  0.00    -0.304 OA
BRANCH  30  31
HETATM   31  C2  UNL     1      27.459   4.686  48.763  1.00  0.00     0.176 C 
HETATM   32  C1  UNL     1      27.266   6.153  48.453  1.00  0.00     0.034 C 
ENDBRANCH  30  31
ENDBRANCH   1  30
TORSDOF 7
ENDMDL
MODEL 3
REMARK VINA RESULT:      -8.4      3.938      7.907
REMARK  7 active torsions:
REMARK  status: ('A' for Active; 'I' for Inactive)
REMARK    1  A    between atoms: C2_2  and  O1_3 
REMARK    2  A    between atoms: O1_3  and  C3_4 
REMARK       I    between atoms: C3_4  and  N1_6 
REMARK    3  A    between atoms: C9_12  and  O3_13 
REMARK    4  A    between atoms: O3_13  and  C10_14 
REMARK    5  A    between atoms: C10_14  and  C11_15 
REMARK    6  A    between atoms: C17_23  and  N3_24 
REMARK    7  A    between atoms: N3_24  and  C18_25 
ROOT
HETATM    1  C3  UNL     1      21.722   0.580  51.873  1.00  0.00     0.363 C 
HETATM    2  O2  UNL     1      21.633   0.041  52.981  1.00  0.00    -0.238 OA
HETATM    3  N1  UNL     1      22.715   1.246  51.061  1.00  0.00    -0.315 N 
HETATM    4  C4  UNL     1      22.291   1.744  49.722  1.00  0.00     0.133 C 
HETATM    5  C5  UNL     1      22.801   3.221  49.594  1.00  0.00     0.062 C 
HETATM    6  C6  UNL     1      23.716   3.201  50.816  1.00  0.00    -0.013 C 
HETATM    7  C7  UNL     1      24.746   2.332  50.715  1.00  0.00     0.014 C 
HETATM    8  C8  UNL     1      24.038   1.358  51.639  1.00  0.00     0.163 C 
HETATM    9  C9  UNL     1      24.110   1.933  53.039  1.00  0.00     0.273 C 
HETATM   10  N2  UNL     1      24.186   3.436  52.939  1.00  0.00    -0.238 NA
HETATM   11  C17 UNL     1      23.324   3.901  52.051  1.00  0.00     0.132 C 
ENDROOT
BRANCH   9  12
HETATM   12  O3  UNL     1      25.174   1.465  53.758  1.00  0.00    -0.358 OA
BRANCH  12  13
HETATM   13  C10 UNL     1      25.509   0.145  53.465  1.00  0.00     0.209 C 
BRANCH  13  14
HETATM   14  C11 UNL     1      26.986   0.014  53.557  1.00  0.00    -0.032 A 
HETATM   15  C12 UNL     1      27.625  -1.137  53.129  1.00  0.00     0.009 A 
HETATM   16  C13 UNL     1      28.996  -1.252  53.218  1.00  0.00     0.004 A 
HETATM   17  C14 UNL     1      29.795  -0.236  53.734  1.00  0.00     0.042 A 
HETATM   18  C15 UNL     1      29.125   0.898  54.153  1.00  0.00     0.117 A 
HETATM   19  F1  UNL     1      29.775   1.972  54.679  1.00  0.00    -0.206 F 
HETATM   20  C16 UNL     1      27.755   1.037  54.074  1.00  0.00     0.051 A 
ENDBRANCH  13  14
ENDBRANCH  12  13
ENDBRANCH   9  12
BRANCH  11  21
HETATM   21  N3  UNL     1      22.274   4.857  52.017  1.00  0.00    -0.341 N 
HETATM   22  H19 UNL     1      21.383   4.579  52.478  1.00  0.00     0.167 HD
BRANCH  21  23
HETATM   23  C18 UNL     1      22.628   6.043  51.332  1.00  0.00     0.035 A 
HETATM   24  C19 UNL     1      23.838   6.661  51.175  1.00  0.00     0.029 A 
HETATM   25  C20 UNL     1      23.939   7.829  50.452  1.00  0.00     0.004 A 
HETATM   26  C21 UNL     1      22.804   8.398  49.868  1.00  0.00     0.024 A 
HETATM   27  C22 UNL     1      21.561   7.795  50.009  1.00  0.00     0.036 A 
HETATM   28 CL1  UNL     1      20.205   8.561  49.257  1.00  0.00    -0.084 Cl
HETATM   29  C23 UNL     1      21.488   6.609  50.749  1.00  0.00     0.053 A 
ENDBRANCH  21  23
ENDBRANCH  11  21
BRANCH   1  30
HETATM   30  O1  UNL     1      20.440   0.420  51.419  1.00  0.00    -0.304 OA
BRANCH  30  31
HETATM   31  C2  UNL     1      19.364  -0.021  52.224  1.00  0.00     0.176 C 
HETATM   32  C1  UNL     1      18.147  -0.181  51.341  1.00  0.00     0.034 C 
ENDBRANCH  30  31
ENDBRANCH   1  30
TORSDOF 7
ENDMDL
MODEL 4
REMARK VINA RESULT:      -8.3      3.439      6.713
REMARK  7 active torsions:
REMARK  status: ('A' for Active; 'I' for Inactive)
REMARK    1  A    between atoms: C2_2  and  O1_3 
REMARK    2  A    between atoms: O1_3  and  C3_4 
REMARK       I    between atoms: C3_4  and  N1_6 
REMARK    3  A    between atoms: C9_12  and  O3_13 
REMARK    4  A    between atoms: O3_13  and  C10_14 
REMARK    5  A    between atoms: C10_14  and  C11_15 
REMARK    6  A    between atoms: C17_23  and  N3_24 
REMARK    7  A    between atoms: N3_24  and  C18_25 
ROOT
HETATM    1  C3  UNL     1      24.341   4.475  49.667  1.00  0.00     0.363 C 
HETATM    2  O2  UNL     1      25.305   4.203  48.941  1.00  0.00    -0.238 OA
HETATM    3  N1  UNL     1      23.942   4.329  51.048  1.00  0.00    -0.315 N 
HETATM    4  C4  UNL     1      22.603   4.853  51.438  1.00  0.00     0.133 C 
HETATM    5  C5  UNL     1      21.888   3.730  52.266  1.00  0.00     0.062 C 
HETATM    6  C6  UNL     1      23.114   2.840  52.457  1.00  0.00    -0.013 C 
HETATM    7  C7  UNL     1      24.099   3.414  53.184  1.00  0.00     0.014 C 
HETATM    8  C8  UNL     1      24.898   3.682  51.922  1.00  0.00     0.163 C 
HETATM    9  C9  UNL     1      25.448   2.352  51.446  1.00  0.00     0.273 C 
HETATM   10  N2  UNL     1      24.515   1.257  51.899  1.00  0.00    -0.238 NA
HETATM   11  C17 UNL     1      23.251   1.589  51.695  1.00  0.00     0.132 C 
ENDROOT
BRANCH   9  12
HETATM   12  O3  UNL     1      26.711   2.099  51.902  1.00  0.00    -0.358 OA
BRANCH  12  13
HETATM   13  C10 UNL     1      26.747   1.620  53.210  1.00  0.00     0.209 C 
BRANCH  13  14
HETATM   14  C11 UNL     1      27.695   0.478  53.256  1.00  0.00    -0.032 A 
HETATM   15  C12 UNL     1      29.007   0.660  53.659  1.00  0.00     0.009 A 
HETATM   16  C13 UNL     1      29.882  -0.405  53.698  1.00  0.00     0.004 A 
HETATM   17  C14 UNL     1      29.499  -1.695  53.342  1.00  0.00     0.042 A 
HETATM   18  C15 UNL     1      28.184  -1.841  52.944  1.00  0.00     0.117 A 
HETATM   19  F1  UNL     1      27.669  -3.042  52.566  1.00  0.00    -0.206 F 
HETATM   20  C16 UNL     1      27.290  -0.791  52.895  1.00  0.00     0.051 A 
ENDBRANCH  13  14
ENDBRANCH  12  13
ENDBRANCH   9  12
BRANCH  11  21
HETATM   21  N3  UNL     1      22.121   1.037  51.034  1.00  0.00    -0.341 N 
HETATM   22  H19 UNL     1      22.050   1.221  50.012  1.00  0.00     0.167 HD
BRANCH  21  23
HETATM   23  C18 UNL     1      21.261   0.331  51.908  1.00  0.00     0.035 A 
HETATM   24  C19 UNL     1      21.524  -0.367  53.055  1.00  0.00     0.029 A 
HETATM   25  C20 UNL     1      20.506  -0.983  53.748  1.00  0.00     0.004 A 
HETATM   26  C21 UNL     1      19.189  -0.903  53.287  1.00  0.00     0.024 A 
HETATM   27  C22 UNL     1      18.889  -0.203  52.125  1.00  0.00     0.036 A 
HETATM   28 CL1  UNL     1      17.236  -0.150  51.621  1.00  0.00    -0.084 Cl
HETATM   29  C23 UNL     1      19.944   0.414  51.442  1.00  0.00     0.053 A 
ENDBRANCH  21  23
ENDBRANCH  11  21
BRANCH   1  30
HETATM   30  O1  UNL     1      23.512   5.073  48.758  1.00  0.00    -0.304 OA
BRANCH  30  31
HETATM   31  C2  UNL     1      22.639   4.369  47.896  1.00  0.00     0.176 C 
HETATM   32  C1  UNL     1      21.289   5.047  47.931  1.00  0.00     0.034 C 
ENDBRANCH  30  31
ENDBRANCH   1  30
TORSDOF 7
ENDMDL
MODEL 5
REMARK VINA RESULT:      -8.3      3.100      6.867
REMARK  7 active torsions:
REMARK  status: ('A' for Active; 'I' for Inactive)
REMARK    1  A    between atoms: C2_2  and  O1_3 
REMARK    2  A    between atoms: O1_3  and  C3_4 
REMARK       I    between atoms: C3_4  and  N1_6 
REMARK    3  A    between atoms: C9_12  and  O3_13 
REMARK    4  A    between atoms: O3_13  and  C10_14 
REMARK    5  A    between atoms: C10_14  and  C11_15 
REMARK    6  A    between atoms: C17_23  and  N3_24 
REMARK    7  A    between atoms: N3_24  and  C18_25 
ROOT
HETATM    1  C3  UNL     1      22.311   1.998  49.636  1.00  0.00     0.363 C 
HETATM    2  O2  UNL     1      22.518   1.946  48.418  1.00  0.00    -0.238 OA
HETATM    3  N1  UNL     1      22.753   2.756  50.785  1.00  0.00    -0.315 N 
HETATM    4  C4  UNL     1      22.165   2.406  52.109  1.00  0.00     0.133 C 
HETATM    5  C5  UNL     1      23.353   2.277  53.124  1.00  0.00     0.062 C 
HETATM    6  C6  UNL     1      24.424   2.889  52.225  1.00  0.00    -0.013 C 
HETATM    7  C7  UNL     1      24.203   4.186  51.914  1.00  0.00     0.014 C 
HETATM    8  C8  UNL     1      23.731   3.791  50.527  1.00  0.00     0.163 C 
HETATM    9  C9  UNL     1      24.956   3.373  49.737  1.00  0.00     0.273 C 
HETATM   10  N2  UNL     1      25.989   2.841  50.698  1.00  0.00    -0.238 NA
HETATM   11  C17 UNL     1      25.442   2.035  51.592  1.00  0.00     0.132 C 
ENDROOT
BRANCH   9  12
HETATM   12  O3  UNL     1      25.494   4.391  49.001  1.00  0.00    -0.358 OA
BRANCH  12  13
HETATM   13  C10 UNL     1      26.851   4.594  49.236  1.00  0.00     0.209 C 
BRANCH  13  14
HETATM   14  C11 UNL     1      27.271   5.808  48.490  1.00  0.00    -0.032 A 
HETATM   15  C12 UNL     1      28.596   5.998  48.132  1.00  0.00     0.009 A 
HETATM   16  C13 UNL     1      28.979   7.128  47.439  1.00  0.00     0.004 A 
HETATM   17  C14 UNL     1      28.071   8.117  47.071  1.00  0.00     0.042 A 
HETATM   18  C15 UNL     1      26.760   7.895  47.445  1.00  0.00     0.117 A 
HETATM   19  F1  UNL     1      25.764   8.776  47.155  1.00  0.00    -0.206 F 
HETATM   20  C16 UNL     1      26.352   6.774  48.138  1.00  0.00     0.051 A 
ENDBRANCH  13  14
ENDBRANCH  12  13
ENDBRANCH   9  12
BRANCH  11  21
HETATM   21  N3  UNL     1      25.639   0.707  52.060  1.00  0.00    -0.341 N 
HETATM   22  H19 UNL     1      24.890   0.022  51.831  1.00  0.00     0.167 HD
BRANCH  21  23
HETATM   23  C18 UNL     1      26.843   0.551  52.787  1.00  0.00     0.035 A 
HETATM   24  C19 UNL     1      27.575   1.450  53.513  1.00  0.00     0.029 A 
HETATM   25  C20 UNL     1      28.735   1.059  54.145  1.00  0.00     0.004 A 
HETATM   26  C21 UNL     1      29.178  -0.263  54.051  1.00  0.00     0.024 A 
HETATM   27  C22 UNL     1      28.457  -1.199  53.321  1.00  0.00     0.036 A 
HETATM   28 CL1  UNL     1      29.073  -2.814  53.254  1.00  0.00    -0.084 Cl
HETATM   29  C23 UNL     1      27.283  -0.774  52.690  1.00  0.00     0.053 A 
ENDBRANCH  21  23
ENDBRANCH  11  21
BRANCH   1  30
HETATM   30  O1  UNL     1      21.387   0.998  49.770  1.00  0.00    -0.304 OA
BRANCH  30  31
HETATM   31  C2  UNL     1      19.998   1.169  49.567  1.00  0.00     0.176 C 
HETATM   32  C1  UNL     1      19.271   0.611  50.770  1.00  0.00     0.034 C 
ENDBRANCH  30  31
ENDBRANCH   1  30
TORSDOF 7
ENDMDL
MODEL 6
REMARK VINA RESULT:      -8.2      3.261      6.328
REMARK  7 active torsions:
REMARK  status: ('A' for Active; 'I' for Inactive)
REMARK    1  A    between atoms: C2_2  and  O1_3 
REMARK    2  A    between atoms: O1_3  and  C3_4 
REMARK       I    between atoms: C3_4  and  N1_6 
REMARK    3  A    between atoms: C9_12  and  O3_13 
REMARK    4  A    between atoms: O3_13  and  C10_14 
REMARK    5  A    between atoms: C10_14  and  C11_15 
REMARK    6  A    between atoms: C17_23  and  N3_24 
REMARK    7  A    between atoms: N3_24  and  C18_25 
ROOT
HETATM    1  C3  UNL     1      21.186   4.068  51.956  1.00  0.00     0.363 C 
HETATM    2  O2  UNL     1      22.301   4.333  52.420  1.00  0.00    -0.238 OA
HETATM    3  N1  UNL     1      20.224   2.989  51.980  1.00  0.00    -0.315 N 
HETATM    4  C4  UNL     1      18.961   3.174  51.212  1.00  0.00     0.133 C 
HETATM    5  C5  UNL     1      18.741   1.875  50.362  1.00  0.00     0.062 C 
HETATM    6  C6  UNL     1      19.809   1.028  51.049  1.00  0.00    -0.013 C 
HETATM    7  C7  UNL     1      19.560   0.788  52.356  1.00  0.00     0.014 C 
HETATM    8  C8  UNL     1      20.592   1.826  52.759  1.00  0.00     0.163 C 
HETATM    9  C9  UNL     1      21.959   1.235  52.477  1.00  0.00     0.273 C 
HETATM   10  N2  UNL     1      21.832   0.251  51.341  1.00  0.00    -0.238 NA
HETATM   11  C17 UNL     1      21.081   0.737  50.368  1.00  0.00     0.132 C 
ENDROOT
BRANCH   9  12
HETATM   12  O3  UNL     1      22.512   0.615  53.563  1.00  0.00    -0.358 OA
BRANCH  12  13
HETATM   13  C10 UNL     1      23.335  -0.459  53.234  1.00  0.00     0.209 C 
BRANCH  13  14
HETATM   14  C11 UNL     1      24.746  -0.006  53.339  1.00  0.00    -0.032 A 
HETATM   15  C12 UNL     1      25.496  -0.278  54.471  1.00  0.00     0.009 A 
HETATM   16  C13 UNL     1      26.806   0.146  54.561  1.00  0.00     0.004 A 
HETATM   17  C14 UNL     1      27.429   0.856  53.539  1.00  0.00     0.042 A 
HETATM   18  C15 UNL     1      26.651   1.111  52.426  1.00  0.00     0.117 A 
HETATM   19  F1  UNL     1      27.126   1.795  51.350  1.00  0.00    -0.206 F 
HETATM   20  C16 UNL     1      25.339   0.698  52.312  1.00  0.00     0.051 A 
ENDBRANCH  13  14
ENDBRANCH  12  13
ENDBRANCH   9  12
BRANCH  11  21
HETATM   21  N3  UNL     1      21.198   0.955  48.969  1.00  0.00    -0.341 N 
HETATM   22  H19 UNL     1      20.933   0.157  48.355  1.00  0.00     0.167 HD
BRANCH  21  23
HETATM   23  C18 UNL     1      21.680   2.246  48.649  1.00  0.00     0.035 A 
HETATM   24  C19 UNL     1      21.096   3.280  47.970  1.00  0.00     0.029 A 
HETATM   25  C20 UNL     1      21.773   4.463  47.780  1.00  0.00     0.004 A 
HETATM   26  C21 UNL     1      23.068   4.624  48.279  1.00  0.00     0.024 A 
HETATM   27  C22 UNL     1      23.689   3.593  48.974  1.00  0.00     0.036 A 
HETATM   28 CL1  UNL     1      25.293   3.870  49.561  1.00  0.00    -0.084 Cl
HETATM   29  C23 UNL     1      22.977   2.402  49.152  1.00  0.00     0.053 A 
ENDBRANCH  21  23
ENDBRANCH  11  21
BRANCH   1  30
HETATM   30  O1  UNL     1      20.936   5.213  51.250  1.00  0.00    -0.304 OA
BRANCH  30  31
HETATM   31  C2  UNL     1      21.811   6.323  51.204  1.00  0.00     0.176 C 
HETATM   32  C1  UNL     1      21.187   7.382  50.323  1.00  0.00     0.034 C 
ENDBRANCH  30  31
ENDBRANCH   1  30
TORSDOF 7
ENDMDL
MODEL 7
REMARK VINA RESULT:      -8.2      3.183      6.747
REMARK  7 active torsions:
REMARK  status: ('A' for Active; 'I' for Inactive)
REMARK    1  A    between atoms: C2_2  and  O1_3 
REMARK    2  A    between atoms: O1_3  and  C3_4 
REMARK       I    between atoms: C3_4  and  N1_6 
REMARK    3  A    between atoms: C9_12  and  O3_13 
REMARK    4  A    between atoms: O3_13  and  C10_14 
REMARK    5  A    between atoms: C10_14  and  C11_15 
REMARK    6  A    between atoms: C17_23  and  N3_24 
REMARK    7  A    between atoms: N3_24  and  C18_25 
ROOT
HETATM    1  C3  UNL     1      21.859   2.308  49.865  1.00  0.00     0.363 C 
HETATM    2  O2  UNL     1      22.272   1.564  48.967  1.00  0.00    -0.238 OA
HETATM    3  N1  UNL     1      22.223   3.554  50.500  1.00  0.00    -0.315 N 
HETATM    4  C4  UNL     1      21.345   4.050  51.597  1.00  0.00     0.133 C 
HETATM    5  C5  UNL     1      22.277   4.447  52.794  1.00  0.00     0.062 C 
HETATM    6  C6  UNL     1      23.595   4.377  52.025  1.00  0.00    -0.013 C 
HETATM    7  C7  UNL     1      23.693   5.282  51.025  1.00  0.00     0.014 C 
HETATM    8  C8  UNL     1      23.416   4.201  49.997  1.00  0.00     0.163 C 
HETATM    9  C9  UNL     1      24.658   3.337  49.905  1.00  0.00     0.273 C 
HETATM   10  N2  UNL     1      25.373   3.380  51.233  1.00  0.00    -0.238 NA
HETATM   11  C17 UNL     1      24.523   3.255  52.238  1.00  0.00     0.132 C 
ENDROOT
BRANCH   9  12
HETATM   12  O3  UNL     1      25.512   3.726  48.910  1.00  0.00    -0.358 OA
BRANCH  12  13
HETATM   13  C10 UNL     1      26.809   3.971  49.352  1.00  0.00     0.209 C 
BRANCH  13  14
HETATM   14  C11 UNL     1      27.291   5.214  48.697  1.00  0.00    -0.032 A 
HETATM   15  C12 UNL     1      26.431   6.276  48.469  1.00  0.00     0.009 A 
HETATM   16  C13 UNL     1      26.885   7.427  47.860  1.00  0.00     0.004 A 
HETATM   17  C14 UNL     1      28.206   7.578  47.449  1.00  0.00     0.042 A 
HETATM   18  C15 UNL     1      29.036   6.500  47.690  1.00  0.00     0.117 A 
HETATM   19  F1  UNL     1      30.352   6.505  47.343  1.00  0.00    -0.206 F 
HETATM   20  C16 UNL     1      28.606   5.338  48.298  1.00  0.00     0.051 A 
ENDBRANCH  13  14
ENDBRANCH  12  13
ENDBRANCH   9  12
BRANCH  11  21
HETATM   21  N3  UNL     1      24.366   2.416  53.374  1.00  0.00    -0.341 N 
HETATM   22  H19 UNL     1      23.672   2.728  54.085  1.00  0.00     0.167 HD
BRANCH  21  23
HETATM   23  C18 UNL     1      25.214   1.284  53.346  1.00  0.00     0.035 A 
HETATM   24  C19 UNL     1      24.999   0.014  52.887  1.00  0.00     0.029 A 
HETATM   25  C20 UNL     1      25.993  -0.936  52.966  1.00  0.00     0.004 A 
HETATM   26  C21 UNL     1      27.235  -0.614  53.517  1.00  0.00     0.024 A 
HETATM   27  C22 UNL     1      27.485   0.667  53.993  1.00  0.00     0.036 A 
HETATM   28 CL1  UNL     1      29.048   0.987  54.661  1.00  0.00    -0.084 Cl
HETATM   29  C23 UNL     1      26.457   1.612  53.900  1.00  0.00     0.053 A 
ENDBRANCH  21  23
ENDBRANCH  11  21
BRANCH   1  30
HETATM   30  O1  UNL     1      20.748   1.616  50.264  1.00  0.00    -0.304 OA
BRANCH  30  31
HETATM   31  C2  UNL     1      20.787   0.428  51.030  1.00  0.00     0.176 C 
HETATM   32  C1  UNL     1      19.459   0.277  51.738  1.00  0.00     0.034 C 
ENDBRANCH  30  31
ENDBRANCH   1  30
TORSDOF 7
ENDMDL
MODEL 8
REMARK VINA RESULT:      -8.2      3.739      7.003
REMARK  7 active torsions:
REMARK  status: ('A' for Active; 'I' for Inactive)
REMARK    1  A    between atoms: C2_2  and  O1_3 
REMARK    2  A    between atoms: O1_3  and  C3_4 
REMARK       I    between atoms: C3_4  and  N1_6 
REMARK    3  A    between atoms: C9_12  and  O3_13 
REMARK    4  A    between atoms: O3_13  and  C10_14 
REMARK    5  A    between atoms: C10_14  and  C11_15 
REMARK    6  A    between atoms: C17_23  and  N3_24 
REMARK    7  A    between atoms: N3_24  and  C18_25 
ROOT
HETATM    1  C3  UNL     1      21.930   4.529  48.867  1.00  0.00     0.363 C 
HETATM    2  O2  UNL     1      22.518   4.762  47.804  1.00  0.00    -0.238 OA
HETATM    3  N1  UNL     1      22.128   4.716  50.286  1.00  0.00    -0.315 N 
HETATM    4  C4  UNL     1      21.059   4.229  51.202  1.00  0.00     0.133 C 
HETATM    5  C5  UNL     1      21.760   3.403  52.335  1.00  0.00     0.062 C 
HETATM    6  C6  UNL     1      23.189   3.832  52.011  1.00  0.00    -0.013 C 
HETATM    7  C7  UNL     1      23.415   5.154  52.177  1.00  0.00     0.014 C 
HETATM    8  C8  UNL     1      23.360   5.369  50.676  1.00  0.00     0.163 C 
HETATM    9  C9  UNL     1      24.636   4.795  50.092  1.00  0.00     0.273 C 
HETATM   10  N2  UNL     1      25.115   3.681  50.988  1.00  0.00    -0.238 NA
HETATM   11  C17 UNL     1      24.116   2.897  51.354  1.00  0.00     0.132 C 
ENDROOT
BRANCH   9  12
HETATM   12  O3  UNL     1      25.627   5.726  49.946  1.00  0.00    -0.358 OA
BRANCH  12  13
HETATM   13  C10 UNL     1      25.722   6.241  48.655  1.00  0.00     0.209 C 
BRANCH  13  14
HETATM   14  C11 UNL     1      27.162   6.339  48.305  1.00  0.00    -0.032 A 
HETATM   15  C12 UNL     1      28.015   5.267  48.503  1.00  0.00     0.009 A 
HETATM   16  C13 UNL     1      29.352   5.365  48.176  1.00  0.00     0.004 A 
HETATM   17  C14 UNL     1      29.902   6.526  47.640  1.00  0.00     0.042 A 
HETATM   18  C15 UNL     1      29.023   7.576  47.457  1.00  0.00     0.117 A 
HETATM   19  F1  UNL     1      29.419   8.772  46.943  1.00  0.00    -0.206 F 
HETATM   20  C16 UNL     1      27.683   7.502  47.776  1.00  0.00     0.051 A 
ENDBRANCH  13  14
ENDBRANCH  12  13
ENDBRANCH   9  12
BRANCH  11  21
HETATM   21  N3  UNL     1      23.807   1.510  51.312  1.00  0.00    -0.341 N 
HETATM   22  H19 UNL     1      23.126   1.212  50.583  1.00  0.00     0.167 HD
BRANCH  21  23
HETATM   23  C18 UNL     1      24.486   0.763  52.303  1.00  0.00     0.035 A 
HETATM   24  C19 UNL     1      25.821   0.555  52.513  1.00  0.00     0.029 A 
HETATM   25  C20 UNL     1      26.252  -0.224  53.563  1.00  0.00     0.004 A 
HETATM   26  C21 UNL     1      25.328  -0.814  54.430  1.00  0.00     0.024 A 
HETATM   27  C22 UNL     1      23.964  -0.622  54.244  1.00  0.00     0.036 A 
HETATM   28 CL1  UNL     1      22.885  -1.385  55.359  1.00  0.00    -0.084 Cl
HETATM   29  C23 UNL     1      23.556   0.175  53.168  1.00  0.00     0.053 A 
ENDBRANCH  21  23
ENDBRANCH  11  21
BRANCH   1  30
HETATM   30  O1  UNL     1      20.798   3.924  48.391  1.00  0.00    -0.304 OA
BRANCH  30  31
HETATM   31  C2  UNL     1      20.793   2.708  47.669  1.00  0.00     0.176 C 
HETATM   32  C1  UNL     1      21.237   1.602  48.600  1.00  0.00     0.034 C 
ENDBRANCH  30  31
ENDBRANCH   1  30
TORSDOF 7
ENDMDL
MODEL 9
REMARK VINA RESULT:      -8.0      3.650      6.824
REMARK  7 active torsions:
REMARK  status: ('A' for Active; 'I' for Inactive)
REMARK    1  A    between atoms: C2_2  and  O1_3 
REMARK    2  A    between atoms: O1_3  and  C3_4 
REMARK       I    between atoms: C3_4  and  N1_6 
REMARK    3  A    between atoms: C9_12  and  O3_13 
REMARK    4  A    between atoms: O3_13  and  C10_14 
REMARK    5  A    between atoms: C10_14  and  C11_15 
REMARK    6  A    between atoms: C17_23  and  N3_24 
REMARK    7  A    between atoms: N3_24  and  C18_25 
ROOT
HETATM    1  C3  UNL     1      24.403   4.845  49.791  1.00  0.00     0.363 C 
HETATM    2  O2  UNL     1      25.305   4.492  49.022  1.00  0.00    -0.238 OA
HETATM    3  N1  UNL     1      23.943   4.568  51.133  1.00  0.00    -0.315 N 
HETATM    4  C4  UNL     1      22.738   5.299  51.614  1.00  0.00     0.133 C 
HETATM    5  C5  UNL     1      21.776   4.239  52.252  1.00  0.00     0.062 C 
HETATM    6  C6  UNL     1      22.776   3.086  52.285  1.00  0.00    -0.013 C 
HETATM    7  C7  UNL     1      23.841   3.307  53.088  1.00  0.00     0.014 C 
HETATM    8  C8  UNL     1      24.713   3.597  51.881  1.00  0.00     0.163 C 
HETATM    9  C9  UNL     1      24.977   2.274  51.189  1.00  0.00     0.273 C 
HETATM   10  N2  UNL     1      23.819   1.348  51.463  1.00  0.00    -0.238 NA
HETATM   11  C17 UNL     1      22.662   1.975  51.326  1.00  0.00     0.132 C 
ENDROOT
BRANCH   9  12
HETATM   12  O3  UNL     1      26.144   1.682  51.587  1.00  0.00    -0.358 OA
BRANCH  12  13
HETATM   13  C10 UNL     1      25.956   0.494  52.288  1.00  0.00     0.209 C 
BRANCH  13  14
HETATM   14  C11 UNL     1      27.278   0.044  52.793  1.00  0.00    -0.032 A 
HETATM   15  C12 UNL     1      28.208   0.957  53.259  1.00  0.00     0.009 A 
HETATM   16  C13 UNL     1      29.434   0.532  53.726  1.00  0.00     0.004 A 
HETATM   17  C14 UNL     1      29.794  -0.812  53.752  1.00  0.00     0.042 A 
HETATM   18  C15 UNL     1      28.843  -1.696  53.279  1.00  0.00     0.117 A 
HETATM   19  F1  UNL     1      29.056  -3.039  53.243  1.00  0.00    -0.206 F 
HETATM   20  C16 UNL     1      27.610  -1.295  52.806  1.00  0.00     0.051 A 
ENDBRANCH  13  14
ENDBRANCH  12  13
ENDBRANCH   9  12
BRANCH  11  21
HETATM   21  N3  UNL     1      21.458   1.796  50.594  1.00  0.00    -0.341 N 
HETATM   22  H19 UNL     1      20.694   1.286  51.082  1.00  0.00     0.167 HD
BRANCH  21  23
HETATM   23  C18 UNL     1      21.518   2.344  49.290  1.00  0.00     0.035 A 
HETATM   24  C19 UNL     1      22.415   2.149  48.276  1.00  0.00     0.029 A 
HETATM   25  C20 UNL     1      22.264   2.804  47.074  1.00  0.00     0.004 A 
HETATM   26  C21 UNL     1      21.192   3.677  46.876  1.00  0.00     0.024 A 
HETATM   27  C22 UNL     1      20.265   3.897  47.886  1.00  0.00     0.036 A 
HETATM   28 CL1  UNL     1      18.966   4.992  47.563  1.00  0.00    -0.084 Cl
HETATM   29  C23 UNL     1      20.442   3.217  49.097  1.00  0.00     0.053 A 
ENDBRANCH  21  23
ENDBRANCH  11  21
BRANCH   1  30
HETATM   30  O1  UNL     1      23.747   5.748  48.999  1.00  0.00    -0.304 OA
BRANCH  30  31
HETATM   31  C2  UNL     1      24.344   6.913  48.463  1.00  0.00     0.176 C 
HETATM   32  C1  UNL     1      24.527   7.910  49.585  1.00  0.00     0.034 C 
ENDBRANCH  30  31
ENDBRANCH   1  30
TORSDOF 7
ENDMDL
