MODEL 1
REMARK VINA RESULT:      -6.6      0.000      0.000
REMARK  9 active torsions:
REMARK  status: ('A' for Active; 'I' for Inactive)
REMARK    1  A    between atoms: O1_2  and  C2_3 
REMARK    2  A    between atoms: C6_7  and  N1_8 
REMARK    3  A    between atoms: N1_8  and  C7_9 
REMARK    4  A    between atoms: C7_9  and  C8_10 
REMARK    5  A    between atoms: C9_11  and  C10_13 
REMARK    6  A    between atoms: C13_18  and  O2_19 
REMARK    7  A    between atoms: O2_19  and  C14_20 
REMARK    8  A    between atoms: C14_20  and  C15_21 
REMARK    9  A    between atoms: C15_21  and  N3_22 
ROOT
HETATM    1  C2  UNL     1      27.721   1.985  53.328  1.00  0.00     0.124 C 
HETATM    2  C3  UNL     1      27.322   0.919  54.022  1.00  0.00     0.046 C 
HETATM    3  C4  UNL     1      27.413  -0.461  53.230  1.00  0.00     0.100 C 
HETATM    4  C5  UNL     1      26.001   0.062  52.801  1.00  0.00    -0.026 C 
HETATM    5  C6  UNL     1      25.070  -0.306  53.659  1.00  0.00     0.029 C 
HETATM    6  C11 UNL     1      25.566  -0.434  55.098  1.00  0.00     0.176 C 
HETATM    7  N2  UNL     1      26.624   0.648  55.242  1.00  0.00    -0.385 N 
HETATM    8  C12 UNL     1      26.101   1.018  51.695  1.00  0.00     0.049 C 
HETATM    9  C13 UNL     1      27.013   2.024  51.979  1.00  0.00     0.104 C 
HETATM   10  H14 UNL     1      27.128   1.379  55.872  1.00  0.00     0.159 HD
ENDROOT
BRANCH   5  11
HETATM   11  N1  UNL     1      23.916  -0.386  52.784  1.00  0.00    -0.388 N 
HETATM   12  H6  UNL     1      23.683  -0.919  51.966  1.00  0.00     0.159 HD
BRANCH  11  13
HETATM   13  C7  UNL     1      22.881   0.530  53.199  1.00  0.00     0.148 C 
BRANCH  13  14
HETATM   14  C8  UNL     1      22.459   1.478  52.137  1.00  0.00     0.014 C 
HETATM   15  C9  UNL     1      22.871   2.735  52.024  1.00  0.00     0.038 C 
HETATM   16 CL1  UNL     1      24.004   3.427  53.169  1.00  0.00    -0.087 Cl
BRANCH  15  17
HETATM   17  C10 UNL     1      22.369   3.571  50.917  1.00  0.00     0.273 C 
HETATM   18  F1  UNL     1      22.043   2.802  49.805  1.00  0.00    -0.250 F 
ENDBRANCH  15  17
ENDBRANCH  13  14
ENDBRANCH  11  13
ENDBRANCH   5  11
BRANCH   9  19
HETATM   19  O2  UNL     1      27.216   2.970  51.052  1.00  0.00    -0.346 OA
BRANCH  19  20
HETATM   20  C14 UNL     1      26.246   3.446  50.185  1.00  0.00     0.206 C 
BRANCH  20  21
HETATM   21  C15 UNL     1      26.977   4.283  49.131  1.00  0.00     0.297 C 
BRANCH  21  22
HETATM   22  N3  UNL     1      26.118   5.432  48.883  1.00  0.00     0.082 N 
HETATM   23  C16 UNL     1      25.356   5.730  50.055  1.00  0.00     0.309 C 
HETATM   24  C17 UNL     1      26.951   6.543  48.497  1.00  0.00     0.309 C 
ENDBRANCH  21  22
ENDBRANCH  20  21
ENDBRANCH  19  20
ENDBRANCH   9  19
BRANCH   1  25
HETATM   25  O1  UNL     1      28.595   2.645  54.086  1.00  0.00    -0.351 OA
HETATM   26  C1  UNL     1      29.764   2.072  54.615  1.00  0.00     0.210 C 
ENDBRANCH   1  25
TORSDOF 9
ENDMDL
MODEL 2
REMARK VINA RESULT:      -6.5      2.020      2.352
REMARK  9 active torsions:
REMARK  status: ('A' for Active; 'I' for Inactive)
REMARK    1  A    between atoms: O1_2  and  C2_3 
REMARK    2  A    between atoms: C6_7  and  N1_8 
REMARK    3  A    between atoms: N1_8  and  C7_9 
REMARK    4  A    between atoms: C7_9  and  C8_10 
REMARK    5  A    between atoms: C9_11  and  C10_13 
REMARK    6  A    between atoms: C13_18  and  O2_19 
REMARK    7  A    between atoms: O2_19  and  C14_20 
REMARK    8  A    between atoms: C14_20  and  C15_21 
REMARK    9  A    between atoms: C15_21  and  N3_22 
ROOT
HETATM    1  C2  UNL     1      27.657   1.065  52.994  1.00  0.00     0.124 C 
HETATM    2  C3  UNL     1      27.052   0.062  53.629  1.00  0.00     0.046 C 
HETATM    3  C4  UNL     1      26.387  -1.026  52.673  1.00  0.00     0.100 C 
HETATM    4  C5  UNL     1      25.242   0.033  52.797  1.00  0.00    -0.026 C 
HETATM    5  C6  UNL     1      24.485  -0.196  53.852  1.00  0.00     0.029 C 
HETATM    6  C11 UNL     1      25.228  -0.835  55.023  1.00  0.00     0.176 C 
HETATM    7  N2  UNL     1      26.629  -0.248  54.962  1.00  0.00    -0.385 N 
HETATM    8  C12 UNL     1      25.437   1.140  51.857  1.00  0.00     0.049 C 
HETATM    9  C13 UNL     1      26.714   1.673  51.963  1.00  0.00     0.104 C 
HETATM   10  H14 UNL     1      27.521   0.088  55.487  1.00  0.00     0.159 HD
ENDROOT
BRANCH   5  11
HETATM   11  N1  UNL     1      23.218   0.339  53.393  1.00  0.00    -0.388 N 
HETATM   12  H6  UNL     1      22.837   1.262  53.279  1.00  0.00     0.159 HD
BRANCH  11  13
HETATM   13  C7  UNL     1      22.303  -0.718  53.034  1.00  0.00     0.148 C 
BRANCH  13  14
HETATM   14  C8  UNL     1      20.910  -0.254  52.807  1.00  0.00     0.014 C 
HETATM   15  C9  UNL     1      20.463   0.313  51.693  1.00  0.00     0.038 C 
HETATM   16 CL1  UNL     1      21.521   0.582  50.322  1.00  0.00    -0.087 Cl
BRANCH  15  17
HETATM   17  C10 UNL     1      19.051   0.729  51.601  1.00  0.00     0.273 C 
HETATM   18  F1  UNL     1      18.400   0.091  50.551  1.00  0.00    -0.250 F 
ENDBRANCH  15  17
ENDBRANCH  13  14
ENDBRANCH  11  13
ENDBRANCH   5  11
BRANCH   9  19
HETATM   19  O2  UNL     1      27.040   2.691  51.156  1.00  0.00    -0.346 OA
BRANCH  19  20
HETATM   20  C14 UNL     1      26.397   2.993  49.966  1.00  0.00     0.206 C 
BRANCH  20  21
HETATM   21  C15 UNL     1      26.010   4.473  50.044  1.00  0.00     0.297 C 
BRANCH  21  22
HETATM   22  N3  UNL     1      24.558   4.502  49.944  1.00  0.00     0.082 N 
HETATM   23  C16 UNL     1      24.098   3.342  49.246  1.00  0.00     0.309 C 
HETATM   24  C17 UNL     1      24.014   4.568  51.276  1.00  0.00     0.309 C 
ENDBRANCH  21  22
ENDBRANCH  20  21
ENDBRANCH  19  20
ENDBRANCH   9  19
BRANCH   1  25
HETATM   25  O1  UNL     1      28.880   1.180  53.510  1.00  0.00    -0.351 OA
HETATM   26  C1  UNL     1      29.815   0.133  53.550  1.00  0.00     0.210 C 
ENDBRANCH   1  25
TORSDOF 9
ENDMDL
MODEL 3
REMARK VINA RESULT:      -6.4      2.715      5.785
REMARK  9 active torsions:
REMARK  status: ('A' for Active; 'I' for Inactive)
REMARK    1  A    between atoms: O1_2  and  C2_3 
REMARK    2  A    between atoms: C6_7  and  N1_8 
REMARK    3  A    between atoms: N1_8  and  C7_9 
REMARK    4  A    between atoms: C7_9  and  C8_10 
REMARK    5  A    between atoms: C9_11  and  C10_13 
REMARK    6  A    between atoms: C13_18  and  O2_19 
REMARK    7  A    between atoms: O2_19  and  C14_20 
REMARK    8  A    between atoms: C14_20  and  C15_21 
REMARK    9  A    between atoms: C15_21  and  N3_22 
ROOT
HETATM    1  C2  UNL     1      23.159   0.491  53.162  1.00  0.00     0.124 C 
HETATM    2  C3  UNL     1      22.401   1.313  52.437  1.00  0.00     0.046 C 
HETATM    3  C4  UNL     1      23.047   1.767  51.053  1.00  0.00     0.100 C 
HETATM    4  C5  UNL     1      23.634   2.827  52.043  1.00  0.00    -0.026 C 
HETATM    5  C6  UNL     1      22.821   3.856  52.185  1.00  0.00     0.029 C 
HETATM    6  C11 UNL     1      21.342   3.503  52.043  1.00  0.00     0.176 C 
HETATM    7  N2  UNL     1      21.219   2.101  52.618  1.00  0.00    -0.385 N 
HETATM    8  C12 UNL     1      24.815   2.309  52.739  1.00  0.00     0.049 C 
HETATM    9  C13 UNL     1      24.557   1.076  53.320  1.00  0.00     0.104 C 
HETATM   10  H14 UNL     1      20.624   1.364  53.154  1.00  0.00     0.159 HD
ENDROOT
BRANCH   5  11
HETATM   11  N1  UNL     1      23.773   4.911  52.471  1.00  0.00    -0.388 N 
HETATM   12  H6  UNL     1      24.411   5.107  53.222  1.00  0.00     0.159 HD
BRANCH  11  13
HETATM   13  C7  UNL     1      23.778   5.907  51.426  1.00  0.00     0.148 C 
BRANCH  13  14
HETATM   14  C8  UNL     1      25.035   5.939  50.635  1.00  0.00     0.014 C 
HETATM   15  C9  UNL     1      25.230   5.314  49.480  1.00  0.00     0.038 C 
HETATM   16 CL1  UNL     1      23.965   4.348  48.746  1.00  0.00    -0.087 Cl
BRANCH  15  17
HETATM   17  C10 UNL     1      26.532   5.429  48.798  1.00  0.00     0.273 C 
HETATM   18  F1  UNL     1      27.168   4.196  48.703  1.00  0.00    -0.250 F 
ENDBRANCH  15  17
ENDBRANCH  13  14
ENDBRANCH  11  13
ENDBRANCH   5  11
BRANCH   9  19
HETATM   19  O2  UNL     1      25.552   0.474  53.986  1.00  0.00    -0.346 OA
BRANCH  19  20
HETATM   20  C14 UNL     1      26.207  -0.670  53.561  1.00  0.00     0.206 C 
BRANCH  20  21
HETATM   21  C15 UNL     1      27.526  -0.209  52.934  1.00  0.00     0.297 C 
BRANCH  21  22
HETATM   22  N3  UNL     1      28.518  -0.307  53.995  1.00  0.00     0.082 N 
HETATM   23  C16 UNL     1      29.570  -1.187  53.593  1.00  0.00     0.309 C 
HETATM   24  C17 UNL     1      29.014   1.017  54.274  1.00  0.00     0.309 C 
ENDBRANCH  21  22
ENDBRANCH  20  21
ENDBRANCH  19  20
ENDBRANCH   9  19
BRANCH   1  25
HETATM   25  O1  UNL     1      22.401  -0.551  53.501  1.00  0.00    -0.351 OA
HETATM   26  C1  UNL     1      22.098  -0.901  54.827  1.00  0.00     0.210 C 
ENDBRANCH   1  25
TORSDOF 9
ENDMDL
MODEL 4
REMARK VINA RESULT:      -6.3      2.321      5.427
REMARK  9 active torsions:
REMARK  status: ('A' for Active; 'I' for Inactive)
REMARK    1  A    between atoms: O1_2  and  C2_3 
REMARK    2  A    between atoms: C6_7  and  N1_8 
REMARK    3  A    between atoms: N1_8  and  C7_9 
REMARK    4  A    between atoms: C7_9  and  C8_10 
REMARK    5  A    between atoms: C9_11  and  C10_13 
REMARK    6  A    between atoms: C13_18  and  O2_19 
REMARK    7  A    between atoms: O2_19  and  C14_20 
REMARK    8  A    between atoms: C14_20  and  C15_21 
REMARK    9  A    between atoms: C15_21  and  N3_22 
ROOT
HETATM    1  C2  UNL     1      26.340   3.351  50.138  1.00  0.00     0.124 C 
HETATM    2  C3  UNL     1      25.113   3.788  49.854  1.00  0.00     0.046 C 
HETATM    3  C4  UNL     1      24.477   4.746  50.958  1.00  0.00     0.100 C 
HETATM    4  C5  UNL     1      24.086   3.331  51.499  1.00  0.00    -0.026 C 
HETATM    5  C6  UNL     1      22.950   2.912  50.977  1.00  0.00     0.029 C 
HETATM    6  C11 UNL     1      22.695   3.417  49.559  1.00  0.00     0.176 C 
HETATM    7  N2  UNL     1      24.071   3.490  48.918  1.00  0.00    -0.385 N 
HETATM    8  C12 UNL     1      25.185   2.730  52.260  1.00  0.00     0.049 C 
HETATM    9  C13 UNL     1      26.369   2.750  51.537  1.00  0.00     0.104 C 
HETATM   10  H14 UNL     1      24.688   3.402  48.025  1.00  0.00     0.159 HD
ENDROOT
BRANCH   5  11
HETATM   11  N1  UNL     1      22.454   2.074  52.052  1.00  0.00    -0.388 N 
HETATM   12  H6  UNL     1      22.325   2.192  53.041  1.00  0.00     0.159 HD
BRANCH  11  13
HETATM   13  C7  UNL     1      22.075   0.769  51.565  1.00  0.00     0.148 C 
BRANCH  13  14
HETATM   14  C8  UNL     1      21.611  -0.157  52.630  1.00  0.00     0.014 C 
HETATM   15  C9  UNL     1      22.401  -0.811  53.474  1.00  0.00     0.038 C 
HETATM   16 CL1  UNL     1      24.144  -0.636  53.407  1.00  0.00    -0.087 Cl
BRANCH  15  17
HETATM   17  C10 UNL     1      21.808  -1.703  54.486  1.00  0.00     0.273 C 
HETATM   18  F1  UNL     1      20.446  -1.889  54.267  1.00  0.00    -0.250 F 
ENDBRANCH  15  17
ENDBRANCH  13  14
ENDBRANCH  11  13
ENDBRANCH   5  11
BRANCH   9  19
HETATM   19  O2  UNL     1      27.466   2.239  52.112  1.00  0.00    -0.346 OA
BRANCH  19  20
HETATM   20  C14 UNL     1      27.643   2.084  53.478  1.00  0.00     0.206 C 
BRANCH  20  21
HETATM   21  C15 UNL     1      29.038   1.486  53.671  1.00  0.00     0.297 C 
BRANCH  21  22
HETATM   22  N3  UNL     1      28.845   0.309  54.505  1.00  0.00     0.082 N 
HETATM   23  C16 UNL     1      27.455   0.143  54.795  1.00  0.00     0.309 C 
HETATM   24  C17 UNL     1      29.379  -0.834  53.807  1.00  0.00     0.309 C 
ENDBRANCH  21  22
ENDBRANCH  20  21
ENDBRANCH  19  20
ENDBRANCH   9  19
BRANCH   1  25
HETATM   25  O1  UNL     1      27.101   3.590  49.070  1.00  0.00    -0.351 OA
HETATM   26  C1  UNL     1      27.513   4.873  48.674  1.00  0.00     0.210 C 
ENDBRANCH   1  25
TORSDOF 9
ENDMDL
MODEL 5
REMARK VINA RESULT:      -6.2      3.474      7.307
REMARK  9 active torsions:
REMARK  status: ('A' for Active; 'I' for Inactive)
REMARK    1  A    between atoms: O1_2  and  C2_3 
REMARK    2  A    between atoms: C6_7  and  N1_8 
REMARK    3  A    between atoms: N1_8  and  C7_9 
REMARK    4  A    between atoms: C7_9  and  C8_10 
REMARK    5  A    between atoms: C9_11  and  C10_13 
REMARK    6  A    between atoms: C13_18  and  O2_19 
REMARK    7  A    between atoms: O2_19  and  C14_20 
REMARK    8  A    between atoms: C14_20  and  C15_21 
REMARK    9  A    between atoms: C15_21  and  N3_22 
ROOT
HETATM    1  C2  UNL     1      24.804   3.561  51.428  1.00  0.00     0.124 C 
HETATM    2  C3  UNL     1      24.585   4.715  50.799  1.00  0.00     0.046 C 
HETATM    3  C4  UNL     1      24.481   4.598  49.213  1.00  0.00     0.100 C 
HETATM    4  C5  UNL     1      26.024   4.751  49.421  1.00  0.00    -0.026 C 
HETATM    5  C6  UNL     1      26.381   6.020  49.464  1.00  0.00     0.029 C 
HETATM    6  C11 UNL     1      25.315   6.946  50.046  1.00  0.00     0.176 C 
HETATM    7  N2  UNL     1      24.613   6.114  51.106  1.00  0.00    -0.385 N 
HETATM    8  C12 UNL     1      26.647   3.466  49.750  1.00  0.00     0.049 C 
HETATM    9  C13 UNL     1      25.994   2.844  50.804  1.00  0.00     0.104 C 
HETATM   10  H14 UNL     1      24.099   6.069  52.065  1.00  0.00     0.159 HD
ENDROOT
BRANCH   5  11
HETATM   11  N1  UNL     1      27.731   5.936  48.941  1.00  0.00    -0.388 N 
HETATM   12  H6  UNL     1      28.527   5.351  49.122  1.00  0.00     0.159 HD
BRANCH  11  13
HETATM   13  C7  UNL     1      27.966   6.946  47.937  1.00  0.00     0.148 C 
BRANCH  13  14
HETATM   14  C8  UNL     1      29.246   7.678  48.111  1.00  0.00     0.014 C 
HETATM   15  C9  UNL     1      29.424   8.738  48.890  1.00  0.00     0.038 C 
HETATM   16 CL1  UNL     1      28.103   9.405  49.831  1.00  0.00    -0.087 Cl
BRANCH  15  17
HETATM   17  C10 UNL     1      30.753   9.372  48.970  1.00  0.00     0.273 C 
HETATM   18  F1  UNL     1      30.798  10.335  49.973  1.00  0.00    -0.250 F 
ENDBRANCH  15  17
ENDBRANCH  13  14
ENDBRANCH  11  13
ENDBRANCH   5  11
BRANCH   9  19
HETATM   19  O2  UNL     1      26.450   1.651  51.211  1.00  0.00    -0.346 OA
BRANCH  19  20
HETATM   20  C14 UNL     1      26.616   1.280  52.536  1.00  0.00     0.206 C 
BRANCH  20  21
HETATM   21  C15 UNL     1      27.957   1.866  52.987  1.00  0.00     0.297 C 
BRANCH  21  22
HETATM   22  N3  UNL     1      28.367   1.065  54.131  1.00  0.00     0.082 N 
HETATM   23  C16 UNL     1      27.299   0.198  54.522  1.00  0.00     0.309 C 
HETATM   24  C17 UNL     1      29.544   0.320  53.763  1.00  0.00     0.309 C 
ENDBRANCH  21  22
ENDBRANCH  20  21
ENDBRANCH  19  20
ENDBRANCH   9  19
BRANCH   1  25
HETATM   25  O1  UNL     1      23.896   3.463  52.399  1.00  0.00    -0.351 OA
HETATM   26  C1  UNL     1      23.019   2.375  52.543  1.00  0.00     0.210 C 
ENDBRANCH   1  25
TORSDOF 9
ENDMDL
MODEL 6
REMARK VINA RESULT:      -5.9      5.015      8.864
REMARK  9 active torsions:
REMARK  status: ('A' for Active; 'I' for Inactive)
REMARK    1  A    between atoms: O1_2  and  C2_3 
REMARK    2  A    between atoms: C6_7  and  N1_8 
REMARK    3  A    between atoms: N1_8  and  C7_9 
REMARK    4  A    between atoms: C7_9  and  C8_10 
REMARK    5  A    between atoms: C9_11  and  C10_13 
REMARK    6  A    between atoms: C13_18  and  O2_19 
REMARK    7  A    between atoms: O2_19  and  C14_20 
REMARK    8  A    between atoms: C14_20  and  C15_21 
REMARK    9  A    between atoms: C15_21  and  N3_22 
ROOT
HETATM    1  C2  UNL     1      26.549   6.966  49.203  1.00  0.00     0.124 C 
HETATM    2  C3  UNL     1      27.566   7.724  48.794  1.00  0.00     0.046 C 
HETATM    3  C4  UNL     1      28.047   7.441  47.301  1.00  0.00     0.100 C 
HETATM    4  C5  UNL     1      28.872   6.384  48.109  1.00  0.00    -0.026 C 
HETATM    5  C6  UNL     1      30.006   6.892  48.549  1.00  0.00     0.029 C 
HETATM    6  C11 UNL     1      29.939   8.386  48.860  1.00  0.00     0.176 C 
HETATM    7  N2  UNL     1      28.527   8.613  49.375  1.00  0.00    -0.385 N 
HETATM    8  C12 UNL     1      28.080   5.180  48.373  1.00  0.00     0.049 C 
HETATM    9  C13 UNL     1      26.856   5.497  48.944  1.00  0.00     0.104 C 
HETATM   10  H14 UNL     1      27.853   9.158  50.033  1.00  0.00     0.159 HD
ENDROOT
BRANCH   5  11
HETATM   11  N1  UNL     1      30.839   5.705  48.574  1.00  0.00    -0.388 N 
HETATM   12  H6  UNL     1      30.947   4.928  49.201  1.00  0.00     0.159 HD
BRANCH  11  13
HETATM   13  C7  UNL     1      31.716   5.658  47.429  1.00  0.00     0.148 C 
BRANCH  13  14
HETATM   14  C8  UNL     1      33.041   5.050  47.713  1.00  0.00     0.014 C 
HETATM   15  C9  UNL     1      33.393   3.805  47.414  1.00  0.00     0.038 C 
HETATM   16 CL1  UNL     1      32.277   2.711  46.620  1.00  0.00    -0.087 Cl
BRANCH  15  17
HETATM   17  C10 UNL     1      34.746   3.327  47.754  1.00  0.00     0.273 C 
HETATM   18  F1  UNL     1      35.480   3.020  46.612  1.00  0.00    -0.250 F 
ENDBRANCH  15  17
ENDBRANCH  13  14
ENDBRANCH  11  13
ENDBRANCH   5  11
BRANCH   9  19
HETATM   19  O2  UNL     1      26.018   4.492  49.235  1.00  0.00    -0.346 OA
BRANCH  19  20
HETATM   20  C14 UNL     1      26.347   3.388  50.005  1.00  0.00     0.206 C 
BRANCH  20  21
HETATM   21  C15 UNL     1      25.204   3.200  51.006  1.00  0.00     0.297 C 
BRANCH  21  22
HETATM   22  N3  UNL     1      25.632   2.125  51.889  1.00  0.00     0.082 N 
HETATM   23  C16 UNL     1      27.050   2.180  52.066  1.00  0.00     0.309 C 
HETATM   24  C17 UNL     1      24.937   2.264  53.143  1.00  0.00     0.309 C 
ENDBRANCH  21  22
ENDBRANCH  20  21
ENDBRANCH  19  20
ENDBRANCH   9  19
BRANCH   1  25
HETATM   25  O1  UNL     1      25.627   7.784  49.711  1.00  0.00    -0.351 OA
HETATM   26  C1  UNL     1      24.626   7.375  50.608  1.00  0.00     0.210 C 
ENDBRANCH   1  25
TORSDOF 9
ENDMDL
MODEL 7
REMARK VINA RESULT:      -5.8      2.968      5.008
REMARK  9 active torsions:
REMARK  status: ('A' for Active; 'I' for Inactive)
REMARK    1  A    between atoms: O1_2  and  C2_3 
REMARK    2  A    between atoms: C6_7  and  N1_8 
REMARK    3  A    between atoms: N1_8  and  C7_9 
REMARK    4  A    between atoms: C7_9  and  C8_10 
REMARK    5  A    between atoms: C9_11  and  C10_13 
REMARK    6  A    between atoms: C13_18  and  O2_19 
REMARK    7  A    between atoms: O2_19  and  C14_20 
REMARK    8  A    between atoms: C14_20  and  C15_21 
REMARK    9  A    between atoms: C15_21  and  N3_22 
ROOT
HETATM    1  C2  UNL     1      23.381   3.634  50.744  1.00  0.00     0.124 C 
HETATM    2  C3  UNL     1      23.128   2.976  51.875  1.00  0.00     0.046 C 
HETATM    3  C4  UNL     1      24.176   3.240  53.046  1.00  0.00     0.100 C 
HETATM    4  C5  UNL     1      24.861   2.072  52.262  1.00  0.00    -0.026 C 
HETATM    5  C6  UNL     1      24.442   0.895  52.685  1.00  0.00     0.029 C 
HETATM    6  C11 UNL     1      23.000   0.895  53.190  1.00  0.00     0.176 C 
HETATM    7  N2  UNL     1      22.281   1.908  52.315  1.00  0.00    -0.385 N 
HETATM    8  C12 UNL     1      25.610   2.574  51.106  1.00  0.00     0.049 C 
HETATM    9  C13 UNL     1      24.824   3.400  50.317  1.00  0.00     0.104 C 
HETATM   10  H14 UNL     1      21.367   2.223  51.814  1.00  0.00     0.159 HD
ENDROOT
BRANCH   5  11
HETATM   11  N1  UNL     1      25.611   0.081  52.418  1.00  0.00    -0.388 N 
HETATM   12  H6  UNL     1      26.081  -0.234  51.588  1.00  0.00     0.159 HD
BRANCH  11  13
HETATM   13  C7  UNL     1      26.217  -0.381  53.643  1.00  0.00     0.148 C 
BRANCH  13  14
HETATM   14  C8  UNL     1      27.680  -0.619  53.537  1.00  0.00     0.014 C 
HETATM   15  C9  UNL     1      28.612   0.326  53.553  1.00  0.00     0.038 C 
HETATM   16 CL1  UNL     1      28.188   2.020  53.709  1.00  0.00    -0.087 Cl
BRANCH  15  17
HETATM   17  C10 UNL     1      30.034  -0.050  53.438  1.00  0.00     0.273 C 
HETATM   18  F1  UNL     1      30.274  -1.308  53.981  1.00  0.00    -0.250 F 
ENDBRANCH  15  17
ENDBRANCH  13  14
ENDBRANCH  11  13
ENDBRANCH   5  11
BRANCH   9  19
HETATM   19  O2  UNL     1      25.381   3.942  49.224  1.00  0.00    -0.346 OA
BRANCH  19  20
HETATM   20  C14 UNL     1      26.462   4.808  49.236  1.00  0.00     0.206 C 
BRANCH  20  21
HETATM   21  C15 UNL     1      25.904   6.196  49.562  1.00  0.00     0.297 C 
BRANCH  21  22
HETATM   22  N3  UNL     1      25.148   6.598  48.384  1.00  0.00     0.082 N 
HETATM   23  C16 UNL     1      23.894   7.157  48.781  1.00  0.00     0.309 C 
HETATM   24  C17 UNL     1      25.938   7.549  47.643  1.00  0.00     0.309 C 
ENDBRANCH  21  22
ENDBRANCH  20  21
ENDBRANCH  19  20
ENDBRANCH   9  19
BRANCH   1  25
HETATM   25  O1  UNL     1      22.256   4.253  50.388  1.00  0.00    -0.351 OA
HETATM   26  C1  UNL     1      21.668   5.295  51.125  1.00  0.00     0.210 C 
ENDBRANCH   1  25
TORSDOF 9
ENDMDL
MODEL 8
REMARK VINA RESULT:      -5.8      3.703      7.486
REMARK  9 active torsions:
REMARK  status: ('A' for Active; 'I' for Inactive)
REMARK    1  A    between atoms: O1_2  and  C2_3 
REMARK    2  A    between atoms: C6_7  and  N1_8 
REMARK    3  A    between atoms: N1_8  and  C7_9 
REMARK    4  A    between atoms: C7_9  and  C8_10 
REMARK    5  A    between atoms: C9_11  and  C10_13 
REMARK    6  A    between atoms: C13_18  and  O2_19 
REMARK    7  A    between atoms: O2_19  and  C14_20 
REMARK    8  A    between atoms: C14_20  and  C15_21 
REMARK    9  A    between atoms: C15_21  and  N3_22 
ROOT
HETATM    1  C2  UNL     1      24.426   4.036  51.368  1.00  0.00     0.124 C 
HETATM    2  C3  UNL     1      24.559   5.123  50.609  1.00  0.00     0.046 C 
HETATM    3  C4  UNL     1      24.394   4.865  49.045  1.00  0.00     0.100 C 
HETATM    4  C5  UNL     1      25.914   4.561  49.261  1.00  0.00    -0.026 C 
HETATM    5  C6  UNL     1      26.643   5.656  49.166  1.00  0.00     0.029 C 
HETATM    6  C11 UNL     1      25.921   6.923  49.622  1.00  0.00     0.176 C 
HETATM    7  N2  UNL     1      25.019   6.471  50.758  1.00  0.00    -0.385 N 
HETATM    8  C12 UNL     1      26.120   3.193  49.742  1.00  0.00     0.049 C 
HETATM    9  C13 UNL     1      25.328   2.923  50.849  1.00  0.00     0.104 C 
HETATM   10  H14 UNL     1      24.534   6.694  51.707  1.00  0.00     0.159 HD
ENDROOT
BRANCH   5  11
HETATM   11  N1  UNL     1      27.892   5.106  48.679  1.00  0.00    -0.388 N 
HETATM   12  H6  UNL     1      28.283   4.183  48.614  1.00  0.00     0.159 HD
BRANCH  11  13
HETATM   13  C7  UNL     1      28.765   6.145  48.188  1.00  0.00     0.148 C 
BRANCH  13  14
HETATM   14  C8  UNL     1      30.209   5.817  48.300  1.00  0.00     0.014 C 
HETATM   15  C9  UNL     1      31.151   6.645  48.738  1.00  0.00     0.038 C 
HETATM   16 CL1  UNL     1      30.761   8.276  49.248  1.00  0.00    -0.087 Cl
BRANCH  15  17
HETATM   17  C10 UNL     1      32.552   6.190  48.799  1.00  0.00     0.273 C 
HETATM   18  F1  UNL     1      32.763   5.082  47.984  1.00  0.00    -0.250 F 
ENDBRANCH  15  17
ENDBRANCH  13  14
ENDBRANCH  11  13
ENDBRANCH   5  11
BRANCH   9  19
HETATM   19  O2  UNL     1      25.404   1.702  51.395  1.00  0.00    -0.346 OA
BRANCH  19  20
HETATM   20  C14 UNL     1      25.954   1.426  52.637  1.00  0.00     0.206 C 
BRANCH  20  21
HETATM   21  C15 UNL     1      26.726   0.113  52.489  1.00  0.00     0.297 C 
BRANCH  21  22
HETATM   22  N3  UNL     1      27.629   0.061  53.630  1.00  0.00     0.082 N 
HETATM   23  C16 UNL     1      28.622   1.083  53.507  1.00  0.00     0.309 C 
HETATM   24  C17 UNL     1      26.850   0.223  54.831  1.00  0.00     0.309 C 
ENDBRANCH  21  22
ENDBRANCH  20  21
ENDBRANCH  19  20
ENDBRANCH   9  19
BRANCH   1  25
HETATM   25  O1  UNL     1      23.550   4.330  52.328  1.00  0.00    -0.351 OA
HETATM   26  C1  UNL     1      22.193   4.607  52.093  1.00  0.00     0.210 C 
ENDBRANCH   1  25
TORSDOF 9
ENDMDL
MODEL 9
REMARK VINA RESULT:      -5.8      5.120      8.993
REMARK  9 active torsions:
REMARK  status: ('A' for Active; 'I' for Inactive)
REMARK    1  A    between atoms: O1_2  and  C2_3 
REMARK    2  A    between atoms: C6_7  and  N1_8 
REMARK    3  A    between atoms: N1_8  and  C7_9 
REMARK    4  A    between atoms: C7_9  and  C8_10 
REMARK    5  A    between atoms: C9_11  and  C10_13 
REMARK    6  A    between atoms: C13_18  and  O2_19 
REMARK    7  A    between atoms: O2_19  and  C14_20 
REMARK    8  A    between atoms: C14_20  and  C15_21 
REMARK    9  A    between atoms: C15_21  and  N3_22 
ROOT
HETATM    1  C2  UNL     1      27.168   6.740  48.792  1.00  0.00     0.124 C 
HETATM    2  C3  UNL     1      28.062   7.708  48.596  1.00  0.00     0.046 C 
HETATM    3  C4  UNL     1      28.844   7.620  47.211  1.00  0.00     0.100 C 
HETATM    4  C5  UNL     1      29.716   6.701  48.129  1.00  0.00    -0.026 C 
HETATM    5  C6  UNL     1      30.626   7.396  48.784  1.00  0.00     0.029 C 
HETATM    6  C11 UNL     1      30.197   8.824  49.114  1.00  0.00     0.176 C 
HETATM    7  N2  UNL     1      28.701   8.733  49.366  1.00  0.00    -0.385 N 
HETATM    8  C12 UNL     1      29.157   5.349  48.213  1.00  0.00     0.049 C 
HETATM    9  C13 UNL     1      27.813   5.379  48.557  1.00  0.00     0.104 C 
HETATM   10  H14 UNL     1      27.824   9.091  49.902  1.00  0.00     0.159 HD
ENDROOT
BRANCH   5  11
HETATM   11  N1  UNL     1      31.669   6.400  48.932  1.00  0.00    -0.388 N 
HETATM   12  H6  UNL     1      31.786   5.574  49.492  1.00  0.00     0.159 HD
BRANCH  11  13
HETATM   13  C7  UNL     1      32.793   6.688  48.074  1.00  0.00     0.148 C 
BRANCH  13  14
HETATM   14  C8  UNL     1      33.814   5.609  48.041  1.00  0.00     0.014 C 
HETATM   15  C9  UNL     1      33.708   4.476  47.358  1.00  0.00     0.038 C 
HETATM   16 CL1  UNL     1      32.290   4.127  46.389  1.00  0.00    -0.087 Cl
BRANCH  15  17
HETATM   17  C10 UNL     1      34.800   3.486  47.414  1.00  0.00     0.273 C 
HETATM   18  F1  UNL     1      34.653   2.625  48.497  1.00  0.00    -0.250 F 
ENDBRANCH  15  17
ENDBRANCH  13  14
ENDBRANCH  11  13
ENDBRANCH   5  11
BRANCH   9  19
HETATM   19  O2  UNL     1      27.164   4.212  48.663  1.00  0.00    -0.346 OA
BRANCH  19  20
HETATM   20  C14 UNL     1      26.660   3.694  49.846  1.00  0.00     0.206 C 
BRANCH  20  21
HETATM   21  C15 UNL     1      25.138   3.654  49.690  1.00  0.00     0.297 C 
BRANCH  21  22
HETATM   22  N3  UNL     1      24.654   2.840  50.796  1.00  0.00     0.082 N 
HETATM   23  C16 UNL     1      25.757   2.405  51.595  1.00  0.00     0.309 C 
HETATM   24  C17 UNL     1      23.724   3.628  51.564  1.00  0.00     0.309 C 
ENDBRANCH  21  22
ENDBRANCH  20  21
ENDBRANCH  19  20
ENDBRANCH   9  19
BRANCH   1  25
HETATM   25  O1  UNL     1      26.022   7.324  49.142  1.00  0.00    -0.351 OA
HETATM   26  C1  UNL     1      25.503   7.313  50.447  1.00  0.00     0.210 C 
ENDBRANCH   1  25
TORSDOF 9
ENDMDL
