MODEL 1
REMARK VINA RESULT:      -8.6      0.000      0.000
REMARK  3 active torsions:
REMARK  status: ('A' for Active; 'I' for Inactive)
REMARK    1  A    between atoms: C5_6  and  N1_7 
REMARK    2  A    between atoms: N1_7  and  C6_8 
REMARK    3  A    between atoms: C6_8  and  C7_9 
ROOT
HETATM    1  C7  UNL     1      26.975  -1.092  52.941  1.00  0.00     0.093 A 
HETATM    2  N2  UNL     1      27.898  -1.978  53.186  1.00  0.00    -0.238 NA
HETATM    3  C8  UNL     1      29.232  -1.508  53.539  1.00  0.00     0.236 A 
HETATM    4  N3  UNL     1      29.893  -0.415  53.714  1.00  0.00    -0.215 NA
HETATM    5  C9  UNL     1      29.327   0.904  53.564  1.00  0.00     0.210 A 
HETATM    6  N4  UNL     1      29.388   2.183  53.581  1.00  0.00    -0.146 NA
HETATM    7  N5  UNL     1      28.251   2.892  53.280  1.00  0.00    -0.268 N 
HETATM    8  C10 UNL     1      27.037   2.237  52.958  1.00  0.00     0.100 A 
HETATM    9  C11 UNL     1      25.694   2.522  52.602  1.00  0.00    -0.001 A 
HETATM   10  C12 UNL     1      25.356   2.192  51.283  1.00  0.00     0.014 A 
HETATM   11  C13 UNL     1      24.093   2.406  50.778  1.00  0.00     0.001 A 
HETATM   12  C14 UNL     1      23.162   2.961  51.626  1.00  0.00     0.000 A 
HETATM   13  C15 UNL     1      23.468   3.295  52.933  1.00  0.00     0.001 A 
HETATM   14  C16 UNL     1      24.736   3.079  53.429  1.00  0.00     0.014 A 
HETATM   15  S1  UNL     1      27.582   0.679  53.102  1.00  0.00    -0.043 SA
HETATM   16  H8  UNL     1      28.257   3.958  53.281  1.00  0.00     0.190 HD
ENDROOT
BRANCH   1  17
HETATM   17  C6  UNL     1      25.554  -1.162  52.564  1.00  0.00     0.186 C 
BRANCH  17  18
HETATM   18  N1  UNL     1      24.793  -0.869  53.788  1.00  0.00    -0.384 N 
HETATM   19  H4  UNL     1      25.233  -0.783  54.749  1.00  0.00     0.160 HD
BRANCH  18  20
HETATM   20  C5  UNL     1      23.377  -0.679  53.760  1.00  0.00     0.029 A 
HETATM   21  C4  UNL     1      22.555  -0.832  54.873  1.00  0.00     0.029 A 
HETATM   22  C3  UNL     1      21.190  -0.638  54.802  1.00  0.00     0.004 A 
HETATM   23  C2  UNL     1      20.592  -0.283  53.623  1.00  0.00     0.024 A 
HETATM   24  C1  UNL     1      21.364  -0.119  52.493  1.00  0.00     0.036 A 
HETATM   25 CL1  UNL     1      20.645   0.336  50.949  1.00  0.00    -0.084 Cl
HETATM   26  C17 UNL     1      22.730  -0.320  52.590  1.00  0.00     0.052 A 
ENDBRANCH  18  20
ENDBRANCH  17  18
ENDBRANCH   1  17
TORSDOF 3
ENDMDL
MODEL 2
REMARK VINA RESULT:      -8.6      3.082      6.271
REMARK  3 active torsions:
REMARK  status: ('A' for Active; 'I' for Inactive)
REMARK    1  A    between atoms: C5_6  and  N1_7 
REMARK    2  A    between atoms: N1_7  and  C6_8 
REMARK    3  A    between atoms: C6_8  and  C7_9 
ROOT
HETATM    1  C7  UNL     1      24.474   2.964  51.635  1.00  0.00     0.093 A 
HETATM    2  N2  UNL     1      25.035   3.786  50.793  1.00  0.00    -0.238 NA
HETATM    3  C8  UNL     1      24.507   3.853  49.436  1.00  0.00     0.236 A 
HETATM    4  N3  UNL     1      23.588   3.337  48.694  1.00  0.00    -0.215 NA
HETATM    5  C9  UNL     1      22.651   2.338  49.147  1.00  0.00     0.210 A 
HETATM    6  N4  UNL     1      21.665   1.537  48.983  1.00  0.00    -0.146 NA
HETATM    7  N5  UNL     1      21.266   0.770  50.051  1.00  0.00    -0.268 N 
HETATM    8  C10 UNL     1      21.920   0.854  51.304  1.00  0.00     0.100 A 
HETATM    9  C11 UNL     1      21.871   0.301  52.609  1.00  0.00    -0.001 A 
HETATM   10  C12 UNL     1      22.957  -0.523  52.936  1.00  0.00     0.014 A 
HETATM   11  C13 UNL     1      23.062  -1.138  54.164  1.00  0.00     0.001 A 
HETATM   12  C14 UNL     1      22.052  -0.912  55.069  1.00  0.00     0.000 A 
HETATM   13  C15 UNL     1      20.969  -0.103  54.773  1.00  0.00     0.001 A 
HETATM   14  C16 UNL     1      20.872   0.508  53.541  1.00  0.00     0.014 A 
HETATM   15  S1  UNL     1      23.043   2.000  50.891  1.00  0.00    -0.043 SA
HETATM   16  H8  UNL     1      20.450   0.090  49.958  1.00  0.00     0.190 HD
ENDROOT
BRANCH   1  17
HETATM   17  C6  UNL     1      24.707   2.617  53.046  1.00  0.00     0.186 C 
BRANCH  17  18
HETATM   18  N1  UNL     1      26.150   2.791  53.275  1.00  0.00    -0.384 N 
HETATM   19  H4  UNL     1      26.612   3.733  53.430  1.00  0.00     0.160 HD
BRANCH  18  20
HETATM   20  C5  UNL     1      27.041   1.676  53.303  1.00  0.00     0.029 A 
HETATM   21  C4  UNL     1      28.368   1.757  53.718  1.00  0.00     0.029 A 
HETATM   22  C3  UNL     1      29.196   0.652  53.730  1.00  0.00     0.004 A 
HETATM   23  C2  UNL     1      28.737  -0.573  53.331  1.00  0.00     0.024 A 
HETATM   24  C1  UNL     1      27.431  -0.705  52.912  1.00  0.00     0.036 A 
HETATM   25 CL1  UNL     1      26.788  -2.261  52.387  1.00  0.00    -0.084 Cl
HETATM   26  C17 UNL     1      26.621   0.417  52.909  1.00  0.00     0.052 A 
ENDBRANCH  18  20
ENDBRANCH  17  18
ENDBRANCH   1  17
TORSDOF 3
ENDMDL
MODEL 3
REMARK VINA RESULT:      -8.5      3.383      6.582
REMARK  3 active torsions:
REMARK  status: ('A' for Active; 'I' for Inactive)
REMARK    1  A    between atoms: C5_6  and  N1_7 
REMARK    2  A    between atoms: N1_7  and  C6_8 
REMARK    3  A    between atoms: C6_8  and  C7_9 
ROOT
HETATM    1  C7  UNL     1      22.748   0.896  52.208  1.00  0.00     0.093 A 
HETATM    2  N2  UNL     1      21.483   1.045  51.934  1.00  0.00    -0.238 NA
HETATM    3  C8  UNL     1      20.508   0.361  52.775  1.00  0.00     0.236 A 
HETATM    4  N3  UNL     1      20.444  -0.419  53.799  1.00  0.00    -0.215 NA
HETATM    5  C9  UNL     1      21.597  -0.909  54.515  1.00  0.00     0.210 A 
HETATM    6  N4  UNL     1      22.165  -1.587  55.442  1.00  0.00    -0.146 NA
HETATM    7  N5  UNL     1      23.538  -1.573  55.509  1.00  0.00    -0.268 N 
HETATM    8  C10 UNL     1      24.313  -0.834  54.583  1.00  0.00     0.100 A 
HETATM    9  C11 UNL     1      25.665  -0.534  54.273  1.00  0.00    -0.001 A 
HETATM   10  C12 UNL     1      26.128  -1.098  53.077  1.00  0.00     0.014 A 
HETATM   11  C13 UNL     1      27.416  -0.905  52.630  1.00  0.00     0.001 A 
HETATM   12  C14 UNL     1      28.243  -0.129  53.410  1.00  0.00     0.000 A 
HETATM   13  C15 UNL     1      27.811   0.439  54.595  1.00  0.00     0.001 A 
HETATM   14  C16 UNL     1      26.520   0.240  55.034  1.00  0.00     0.014 A 
HETATM   15  S1  UNL     1      23.063  -0.214  53.691  1.00  0.00    -0.043 SA
HETATM   16  H8  UNL     1      24.051  -2.122  56.264  1.00  0.00     0.190 HD
ENDROOT
BRANCH   1  17
HETATM   17  C6  UNL     1      23.997   1.404  51.616  1.00  0.00     0.186 C 
BRANCH  17  18
HETATM   18  N1  UNL     1      23.640   2.650  50.920  1.00  0.00    -0.384 N 
HETATM   19  H4  UNL     1      22.653   3.033  50.867  1.00  0.00     0.160 HD
BRANCH  18  20
HETATM   20  C5  UNL     1      24.626   3.441  50.254  1.00  0.00     0.029 A 
HETATM   21  C4  UNL     1      25.964   3.072  50.139  1.00  0.00     0.029 A 
HETATM   22  C3  UNL     1      26.884   3.868  49.485  1.00  0.00     0.004 A 
HETATM   23  C2  UNL     1      26.509   5.057  48.922  1.00  0.00     0.024 A 
HETATM   24  C1  UNL     1      25.196   5.465  49.009  1.00  0.00     0.036 A 
HETATM   25 CL1  UNL     1      24.659   6.989  48.302  1.00  0.00    -0.084 Cl
HETATM   26  C17 UNL     1      24.292   4.650  49.670  1.00  0.00     0.052 A 
ENDBRANCH  18  20
ENDBRANCH  17  18
ENDBRANCH   1  17
TORSDOF 3
ENDMDL
MODEL 4
REMARK VINA RESULT:      -8.5      3.651      6.847
REMARK  3 active torsions:
REMARK  status: ('A' for Active; 'I' for Inactive)
REMARK    1  A    between atoms: C5_6  and  N1_7 
REMARK    2  A    between atoms: N1_7  and  C6_8 
REMARK    3  A    between atoms: C6_8  and  C7_9 
ROOT
HETATM    1  C7  UNL     1      23.517   3.945  52.356  1.00  0.00     0.093 A 
HETATM    2  N2  UNL     1      23.761   5.126  51.863  1.00  0.00    -0.238 NA
HETATM    3  C8  UNL     1      22.672   5.839  51.206  1.00  0.00     0.236 A 
HETATM    4  N3  UNL     1      21.425   5.705  50.908  1.00  0.00    -0.215 NA
HETATM    5  C9  UNL     1      20.638   4.541  51.235  1.00  0.00     0.210 A 
HETATM    6  N4  UNL     1      19.552   3.861  51.244  1.00  0.00    -0.146 NA
HETATM    7  N5  UNL     1      19.567   2.623  51.840  1.00  0.00    -0.268 N 
HETATM    8  C10 UNL     1      20.745   2.103  52.430  1.00  0.00     0.100 A 
HETATM    9  C11 UNL     1      21.216   0.954  53.116  1.00  0.00    -0.001 A 
HETATM   10  C12 UNL     1      22.127   0.173  52.392  1.00  0.00     0.014 A 
HETATM   11  C13 UNL     1      22.679  -0.975  52.913  1.00  0.00     0.001 A 
HETATM   12  C14 UNL     1      22.301  -1.334  54.186  1.00  0.00     0.000 A 
HETATM   13  C15 UNL     1      21.405  -0.582  54.923  1.00  0.00     0.001 A 
HETATM   14  C16 UNL     1      20.856   0.566  54.393  1.00  0.00     0.014 A 
HETATM   15  S1  UNL     1      21.741   3.387  52.107  1.00  0.00    -0.043 SA
HETATM   16  H8  UNL     1      18.687   2.023  51.871  1.00  0.00     0.190 HD
ENDROOT
BRANCH   1  17
HETATM   17  C6  UNL     1      24.322   2.940  53.070  1.00  0.00     0.186 C 
BRANCH  17  18
HETATM   18  N1  UNL     1      25.616   2.884  52.371  1.00  0.00    -0.384 N 
HETATM   19  H4  UNL     1      25.902   3.561  51.607  1.00  0.00     0.160 HD
BRANCH  18  20
HETATM   20  C5  UNL     1      26.590   1.887  52.683  1.00  0.00     0.029 A 
HETATM   21  C4  UNL     1      27.829   2.170  53.253  1.00  0.00     0.029 A 
HETATM   22  C3  UNL     1      28.743   1.175  53.539  1.00  0.00     0.004 A 
HETATM   23  C2  UNL     1      28.459  -0.136  53.271  1.00  0.00     0.024 A 
HETATM   24  C1  UNL     1      27.246  -0.467  52.708  1.00  0.00     0.036 A 
HETATM   25 CL1  UNL     1      26.830  -2.141  52.342  1.00  0.00    -0.084 Cl
HETATM   26  C17 UNL     1      26.347   0.549  52.430  1.00  0.00     0.052 A 
ENDBRANCH  18  20
ENDBRANCH  17  18
ENDBRANCH   1  17
TORSDOF 3
ENDMDL
MODEL 5
REMARK VINA RESULT:      -8.2      3.174      6.281
REMARK  3 active torsions:
REMARK  status: ('A' for Active; 'I' for Inactive)
REMARK    1  A    between atoms: C5_6  and  N1_7 
REMARK    2  A    between atoms: N1_7  and  C6_8 
REMARK    3  A    between atoms: C6_8  and  C7_9 
ROOT
HETATM    1  C7  UNL     1      23.869  -0.146  53.535  1.00  0.00     0.093 A 
HETATM    2  N2  UNL     1      24.056  -0.841  54.622  1.00  0.00    -0.238 NA
HETATM    3  C8  UNL     1      22.895  -1.441  55.268  1.00  0.00     0.236 A 
HETATM    4  N3  UNL     1      21.617  -1.540  55.135  1.00  0.00    -0.215 NA
HETATM    5  C9  UNL     1      20.868  -0.936  54.060  1.00  0.00     0.210 A 
HETATM    6  N4  UNL     1      19.785  -0.674  53.427  1.00  0.00    -0.146 NA
HETATM    7  N5  UNL     1      19.867   0.094  52.290  1.00  0.00    -0.268 N 
HETATM    8  C10 UNL     1      21.110   0.587  51.822  1.00  0.00     0.100 A 
HETATM    9  C11 UNL     1      21.658   1.366  50.771  1.00  0.00    -0.001 A 
HETATM   10  C12 UNL     1      22.157   2.614  51.167  1.00  0.00     0.014 A 
HETATM   11  C13 UNL     1      22.723   3.492  50.269  1.00  0.00     0.001 A 
HETATM   12  C14 UNL     1      22.781   3.095  48.953  1.00  0.00     0.000 A 
HETATM   13  C15 UNL     1      22.296   1.869  48.535  1.00  0.00     0.001 A 
HETATM   14  C16 UNL     1      21.731   0.998  49.441  1.00  0.00     0.014 A 
HETATM   15  S1  UNL     1      22.067  -0.061  53.009  1.00  0.00    -0.043 SA
HETATM   16  H8  UNL     1      18.992   0.336  51.732  1.00  0.00     0.190 HD
ENDROOT
BRANCH   1  17
HETATM   17  C6  UNL     1      24.753   0.592  52.620  1.00  0.00     0.186 C 
BRANCH  17  18
HETATM   18  N1  UNL     1      25.755  -0.377  52.151  1.00  0.00    -0.384 N 
HETATM   19  H4  UNL     1      25.575  -1.084  51.382  1.00  0.00     0.160 HD
BRANCH  18  20
HETATM   20  C5  UNL     1      27.066  -0.429  52.716  1.00  0.00     0.029 A 
HETATM   21  C4  UNL     1      27.840  -1.585  52.769  1.00  0.00     0.029 A 
HETATM   22  C3  UNL     1      29.104  -1.591  53.325  1.00  0.00     0.004 A 
HETATM   23  C2  UNL     1      29.645  -0.448  53.848  1.00  0.00     0.024 A 
HETATM   24  C1  UNL     1      28.918   0.722  53.819  1.00  0.00     0.036 A 
HETATM   25 CL1  UNL     1      29.568   2.223  54.480  1.00  0.00    -0.084 Cl
HETATM   26  C17 UNL     1      27.653   0.702  53.257  1.00  0.00     0.052 A 
ENDBRANCH  18  20
ENDBRANCH  17  18
ENDBRANCH   1  17
TORSDOF 3
ENDMDL
MODEL 6
REMARK VINA RESULT:      -8.1      4.143      6.424
REMARK  3 active torsions:
REMARK  status: ('A' for Active; 'I' for Inactive)
REMARK    1  A    between atoms: C5_6  and  N1_7 
REMARK    2  A    between atoms: N1_7  and  C6_8 
REMARK    3  A    between atoms: C6_8  and  C7_9 
ROOT
HETATM    1  C7  UNL     1      26.452   4.925  49.321  1.00  0.00     0.093 A 
HETATM    2  N2  UNL     1      27.149   5.785  48.633  1.00  0.00    -0.238 NA
HETATM    3  C8  UNL     1      26.685   7.166  48.578  1.00  0.00     0.236 A 
HETATM    4  N3  UNL     1      25.733   7.919  49.012  1.00  0.00    -0.215 NA
HETATM    5  C9  UNL     1      24.654   7.454  49.850  1.00  0.00     0.210 A 
HETATM    6  N4  UNL     1      23.576   7.618  50.522  1.00  0.00    -0.146 NA
HETATM    7  N5  UNL     1      23.039   6.528  51.166  1.00  0.00    -0.268 N 
HETATM    8  C10 UNL     1      23.652   5.254  51.093  1.00  0.00     0.100 A 
HETATM    9  C11 UNL     1      23.482   3.924  51.556  1.00  0.00    -0.001 A 
HETATM   10  C12 UNL     1      23.150   2.996  50.560  1.00  0.00     0.014 A 
HETATM   11  C13 UNL     1      22.950   1.663  50.842  1.00  0.00     0.001 A 
HETATM   12  C14 UNL     1      23.089   1.270  52.153  1.00  0.00     0.000 A 
HETATM   13  C15 UNL     1      23.416   2.164  53.155  1.00  0.00     0.001 A 
HETATM   14  C16 UNL     1      23.614   3.496  52.864  1.00  0.00     0.014 A 
HETATM   15  S1  UNL     1      24.933   5.678  50.132  1.00  0.00    -0.043 SA
HETATM   16  H8  UNL     1      22.144   6.620  51.736  1.00  0.00     0.190 HD
ENDROOT
BRANCH   1  17
HETATM   17  C6  UNL     1      26.584   3.488  49.611  1.00  0.00     0.186 C 
BRANCH  17  18
HETATM   18  N1  UNL     1      26.801   3.383  51.062  1.00  0.00    -0.384 N 
HETATM   19  H4  UNL     1      26.846   4.220  51.712  1.00  0.00     0.160 HD
BRANCH  18  20
HETATM   20  C5  UNL     1      26.969   2.118  51.702  1.00  0.00     0.029 A 
HETATM   21  C4  UNL     1      26.404   0.934  51.234  1.00  0.00     0.029 A 
HETATM   22  C3  UNL     1      26.593  -0.269  51.885  1.00  0.00     0.004 A 
HETATM   23  C2  UNL     1      27.349  -0.341  53.023  1.00  0.00     0.024 A 
HETATM   24  C1  UNL     1      27.930   0.803  53.525  1.00  0.00     0.036 A 
HETATM   25 CL1  UNL     1      28.914   0.767  54.988  1.00  0.00    -0.084 Cl
HETATM   26  C17 UNL     1      27.725   1.998  52.855  1.00  0.00     0.052 A 
ENDBRANCH  18  20
ENDBRANCH  17  18
ENDBRANCH   1  17
TORSDOF 3
ENDMDL
MODEL 7
REMARK VINA RESULT:      -8.0      3.523      6.024
REMARK  3 active torsions:
REMARK  status: ('A' for Active; 'I' for Inactive)
REMARK    1  A    between atoms: C5_6  and  N1_7 
REMARK    2  A    between atoms: N1_7  and  C6_8 
REMARK    3  A    between atoms: C6_8  and  C7_9 
ROOT
HETATM    1  C7  UNL     1      26.638   2.128  52.125  1.00  0.00     0.093 A 
HETATM    2  N2  UNL     1      27.912   2.279  52.358  1.00  0.00    -0.238 NA
HETATM    3  C8  UNL     1      28.509   1.523  53.452  1.00  0.00     0.236 A 
HETATM    4  N3  UNL     1      28.195   0.669  54.366  1.00  0.00    -0.215 NA
HETATM    5  C9  UNL     1      26.864   0.145  54.559  1.00  0.00     0.210 A 
HETATM    6  N4  UNL     1      26.000  -0.590  55.153  1.00  0.00    -0.146 NA
HETATM    7  N5  UNL     1      24.703  -0.563  54.700  1.00  0.00    -0.268 N 
HETATM    8  C10 UNL     1      24.321   0.252  53.607  1.00  0.00     0.100 A 
HETATM    9  C11 UNL     1      23.181   0.590  52.833  1.00  0.00    -0.001 A 
HETATM   10  C12 UNL     1      22.724   1.903  53.009  1.00  0.00     0.014 A 
HETATM   11  C13 UNL     1      21.628   2.391  52.333  1.00  0.00     0.001 A 
HETATM   12  C14 UNL     1      20.990   1.533  51.467  1.00  0.00     0.000 A 
HETATM   13  C15 UNL     1      21.420   0.233  51.273  1.00  0.00     0.001 A 
HETATM   14  C16 UNL     1      22.518  -0.247  51.955  1.00  0.00     0.014 A 
HETATM   15  S1  UNL     1      25.806   0.917  53.296  1.00  0.00    -0.043 SA
HETATM   16  H8  UNL     1      23.951  -1.159  55.165  1.00  0.00     0.190 HD
ENDROOT
BRANCH   1  17
HETATM   17  C6  UNL     1      25.696   2.693  51.146  1.00  0.00     0.186 C 
BRANCH  17  18
HETATM   18  N1  UNL     1      26.491   2.999  49.946  1.00  0.00    -0.384 N 
HETATM   19  H4  UNL     1      27.092   2.286  49.441  1.00  0.00     0.160 HD
BRANCH  18  20
HETATM   20  C5  UNL     1      26.503   4.306  49.371  1.00  0.00     0.029 A 
HETATM   21  C4  UNL     1      25.397   5.153  49.354  1.00  0.00     0.029 A 
HETATM   22  C3  UNL     1      25.453   6.411  48.787  1.00  0.00     0.004 A 
HETATM   23  C2  UNL     1      26.608   6.874  48.219  1.00  0.00     0.024 A 
HETATM   24  C1  UNL     1      27.730   6.074  48.213  1.00  0.00     0.036 A 
HETATM   25 CL1  UNL     1      29.244   6.622  47.493  1.00  0.00    -0.084 Cl
HETATM   26  C17 UNL     1      27.649   4.817  48.786  1.00  0.00     0.052 A 
ENDBRANCH  18  20
ENDBRANCH  17  18
ENDBRANCH   1  17
TORSDOF 3
ENDMDL
MODEL 8
REMARK VINA RESULT:      -8.0      3.720      7.102
REMARK  3 active torsions:
REMARK  status: ('A' for Active; 'I' for Inactive)
REMARK    1  A    between atoms: C5_6  and  N1_7 
REMARK    2  A    between atoms: N1_7  and  C6_8 
REMARK    3  A    between atoms: C6_8  and  C7_9 
ROOT
HETATM    1  C7  UNL     1      23.017   2.703  52.290  1.00  0.00     0.093 A 
HETATM    2  N2  UNL     1      21.862   3.237  52.010  1.00  0.00    -0.238 NA
HETATM    3  C8  UNL     1      20.655   2.505  52.373  1.00  0.00     0.236 A 
HETATM    4  N3  UNL     1      20.284   1.403  52.930  1.00  0.00    -0.215 NA
HETATM    5  C9  UNL     1      21.197   0.409  53.442  1.00  0.00     0.210 A 
HETATM    6  N4  UNL     1      21.473  -0.705  54.010  1.00  0.00    -0.146 NA
HETATM    7  N5  UNL     1      22.795  -1.034  54.188  1.00  0.00    -0.268 N 
HETATM    8  C10 UNL     1      23.833  -0.172  53.757  1.00  0.00     0.100 A 
HETATM    9  C11 UNL     1      25.248  -0.086  53.725  1.00  0.00    -0.001 A 
HETATM   10  C12 UNL     1      25.811  -0.183  52.445  1.00  0.00     0.014 A 
HETATM   11  C13 UNL     1      27.170  -0.119  52.238  1.00  0.00     0.001 A 
HETATM   12  C14 UNL     1      27.968   0.046  53.347  1.00  0.00     0.000 A 
HETATM   13  C15 UNL     1      27.440   0.145  54.622  1.00  0.00     0.001 A 
HETATM   14  C16 UNL     1      26.077   0.079  54.818  1.00  0.00     0.014 A 
HETATM   15  S1  UNL     1      22.879   1.032  53.138  1.00  0.00    -0.043 SA
HETATM   16  H8  UNL     1      23.070  -1.951  54.656  1.00  0.00     0.190 HD
ENDROOT
BRANCH   1  17
HETATM   17  C6  UNL     1      24.417   3.113  52.091  1.00  0.00     0.186 C 
BRANCH  17  18
HETATM   18  N1  UNL     1      24.367   4.405  51.389  1.00  0.00    -0.384 N 
HETATM   19  H4  UNL     1      23.608   5.129  51.543  1.00  0.00     0.160 HD
BRANCH  18  20
HETATM   20  C5  UNL     1      25.361   4.774  50.433  1.00  0.00     0.029 A 
HETATM   21  C4  UNL     1      26.287   3.881  49.897  1.00  0.00     0.029 A 
HETATM   22  C3  UNL     1      27.232   4.280  48.973  1.00  0.00     0.004 A 
HETATM   23  C2  UNL     1      27.293   5.579  48.547  1.00  0.00     0.024 A 
HETATM   24  C1  UNL     1      26.397   6.500  49.047  1.00  0.00     0.036 A 
HETATM   25 CL1  UNL     1      26.432   8.186  48.532  1.00  0.00    -0.084 Cl
HETATM   26  C17 UNL     1      25.460   6.076  49.973  1.00  0.00     0.052 A 
ENDBRANCH  18  20
ENDBRANCH  17  18
ENDBRANCH   1  17
TORSDOF 3
ENDMDL
MODEL 9
REMARK VINA RESULT:      -7.7      3.188      6.179
REMARK  3 active torsions:
REMARK  status: ('A' for Active; 'I' for Inactive)
REMARK    1  A    between atoms: C5_6  and  N1_7 
REMARK    2  A    between atoms: N1_7  and  C6_8 
REMARK    3  A    between atoms: C6_8  and  C7_9 
ROOT
HETATM    1  C7  UNL     1      24.308   0.756  52.587  1.00  0.00     0.093 A 
HETATM    2  N2  UNL     1      25.499   0.449  53.017  1.00  0.00    -0.238 NA
HETATM    3  C8  UNL     1      25.612  -0.444  54.165  1.00  0.00     0.236 A 
HETATM    4  N3  UNL     1      24.879  -1.107  54.992  1.00  0.00    -0.215 NA
HETATM    5  C9  UNL     1      23.436  -1.117  54.961  1.00  0.00     0.210 A 
HETATM    6  N4  UNL     1      22.286  -1.482  55.393  1.00  0.00    -0.146 NA
HETATM    7  N5  UNL     1      21.170  -1.006  54.748  1.00  0.00    -0.268 N 
HETATM    8  C10 UNL     1      21.276  -0.135  53.636  1.00  0.00     0.100 A 
HETATM    9  C11 UNL     1      20.465   0.568  52.709  1.00  0.00    -0.001 A 
HETATM   10  C12 UNL     1      20.483   1.961  52.856  1.00  0.00     0.014 A 
HETATM   11  C13 UNL     1      19.751   2.791  52.037  1.00  0.00     0.001 A 
HETATM   12  C14 UNL     1      18.991   2.196  51.056  1.00  0.00     0.000 A 
HETATM   13  C15 UNL     1      18.956   0.824  50.888  1.00  0.00     0.001 A 
HETATM   14  C16 UNL     1      19.691   0.001  51.713  1.00  0.00     0.014 A 
HETATM   15  S1  UNL     1      22.930  -0.050  53.578  1.00  0.00    -0.043 SA
HETATM   16  H8  UNL     1      20.193  -1.283  55.073  1.00  0.00     0.190 HD
ENDROOT
BRANCH   1  17
HETATM   17  C6  UNL     1      23.792   1.596  51.495  1.00  0.00     0.186 C 
BRANCH  17  18
HETATM   18  N1  UNL     1      24.268   2.960  51.771  1.00  0.00    -0.384 N 
HETATM   19  H4  UNL     1      24.063   3.485  52.669  1.00  0.00     0.160 HD
BRANCH  18  20
HETATM   20  C5  UNL     1      25.054   3.683  50.822  1.00  0.00     0.029 A 
HETATM   21  C4  UNL     1      26.189   3.164  50.204  1.00  0.00     0.029 A 
HETATM   22  C3  UNL     1      26.920   3.898  49.292  1.00  0.00     0.004 A 
HETATM   23  C2  UNL     1      26.552   5.172  48.959  1.00  0.00     0.024 A 
HETATM   24  C1  UNL     1      25.435   5.730  49.543  1.00  0.00     0.036 A 
HETATM   25 CL1  UNL     1      24.915   7.369  49.151  1.00  0.00    -0.084 Cl
HETATM   26  C17 UNL     1      24.718   4.975  50.456  1.00  0.00     0.052 A 
ENDBRANCH  18  20
ENDBRANCH  17  18
ENDBRANCH   1  17
TORSDOF 3
ENDMDL
