MODEL 1
REMARK VINA RESULT:      -7.9      0.000      0.000
REMARK  5 active torsions:
REMARK  status: ('A' for Active; 'I' for Inactive)
REMARK    1  A    between atoms: N1_2  and  C3_4 
REMARK    2  A    between atoms: C3_4  and  C4_5 
REMARK    3  A    between atoms: C4_5  and  N2_6 
REMARK    4  A    between atoms: C6_9  and  C7_10 
REMARK    5  A    between atoms: C13_17  and  C14_18 
ROOT
HETATM    1  N2  UNL     1      21.889   0.155  54.030  1.00  0.00    -0.337 N 
HETATM    2  C5  UNL     1      22.154  -0.949  54.799  1.00  0.00     0.210 A 
HETATM    3  N3  UNL     1      23.471  -1.136  54.697  1.00  0.00    -0.241 NA
HETATM    4  C6  UNL     1      24.015  -0.215  53.915  1.00  0.00     0.096 A 
HETATM    5  C13 UNL     1      23.023   0.606  53.489  1.00  0.00     0.076 A 
ENDROOT
BRANCH   5   6
HETATM    6  C14 UNL     1      23.231   1.654  52.542  1.00  0.00    -0.002 C 
HETATM    7  C15 UNL     1      23.521   2.962  52.739  1.00  0.00     0.009 C 
HETATM    8  C16 UNL     1      23.793   4.267  52.122  1.00  0.00     0.180 C 
HETATM    9  N4  UNL     1      22.854   4.691  51.074  1.00  0.00    -0.258 N 
HETATM   10  N5  UNL     1      22.179   5.803  50.564  1.00  0.00    -0.181 NA
HETATM   11  C18 UNL     1      22.236   3.879  50.036  1.00  0.00     0.113 A 
HETATM   12  C17 UNL     1      21.585   5.137  49.601  1.00  0.00     0.177 A 
HETATM   13  S1  UNL     1      22.490   2.235  49.854  1.00  0.00    -0.080 SA
HETATM   14  C19 UNL     1      23.215   1.338  51.079  1.00  0.00     0.065 C 
ENDBRANCH   5   6
BRANCH   1  15
HETATM   15  C4  UNL     1      20.525   0.552  53.950  1.00  0.00     0.160 C 
BRANCH  15  16
HETATM   16  C3  UNL     1      19.794  -0.206  52.884  1.00  0.00     0.291 C 
BRANCH  16  17
HETATM   17  N1  UNL     1      19.576   0.590  51.688  1.00  0.00     0.081 N 
HETATM   18  C1  UNL     1      18.347   0.123  51.082  1.00  0.00     0.309 C 
HETATM   19  C2  UNL     1      19.437   1.992  51.994  1.00  0.00     0.309 C 
ENDBRANCH  16  17
ENDBRANCH  15  16
ENDBRANCH   1  15
BRANCH   4  20
HETATM   20  C7  UNL     1      25.437  -0.423  53.720  1.00  0.00    -0.005 A 
HETATM   21  C8  UNL     1      26.270   0.210  54.676  1.00  0.00     0.017 A 
HETATM   22  C9  UNL     1      27.665   0.244  54.749  1.00  0.00     0.043 A 
HETATM   23  C10 UNL     1      28.287  -0.445  53.735  1.00  0.00     0.116 A 
HETATM   24  F1  UNL     1      29.637  -0.479  53.711  1.00  0.00    -0.206 F 
HETATM   25  C11 UNL     1      27.605  -1.103  52.742  1.00  0.00     0.043 A 
HETATM   26  C12 UNL     1      26.243  -1.050  52.798  1.00  0.00     0.017 A 
ENDBRANCH   4  20
TORSDOF 5
ENDMDL
MODEL 2
REMARK VINA RESULT:      -7.8      2.859      5.835
REMARK  5 active torsions:
REMARK  status: ('A' for Active; 'I' for Inactive)
REMARK    1  A    between atoms: N1_2  and  C3_4 
REMARK    2  A    between atoms: C3_4  and  C4_5 
REMARK    3  A    between atoms: C4_5  and  N2_6 
REMARK    4  A    between atoms: C6_9  and  C7_10 
REMARK    5  A    between atoms: C13_17  and  C14_18 
ROOT
HETATM    1  N2  UNL     1      25.081   0.646  53.541  1.00  0.00    -0.337 N 
HETATM    2  C5  UNL     1      24.704  -0.554  54.085  1.00  0.00     0.210 A 
HETATM    3  N3  UNL     1      23.438  -0.727  53.702  1.00  0.00    -0.241 NA
HETATM    4  C6  UNL     1      23.028   0.293  52.963  1.00  0.00     0.096 A 
HETATM    5  C13 UNL     1      24.060   1.167  52.854  1.00  0.00     0.076 A 
ENDROOT
BRANCH   5   6
HETATM    6  C14 UNL     1      23.944   2.435  52.210  1.00  0.00    -0.002 C 
HETATM    7  C15 UNL     1      23.702   3.661  52.735  1.00  0.00     0.009 C 
HETATM    8  C16 UNL     1      23.518   5.094  52.475  1.00  0.00     0.180 C 
HETATM    9  N4  UNL     1      22.588   5.437  51.389  1.00  0.00    -0.258 N 
HETATM   10  N5  UNL     1      21.594   6.345  51.016  1.00  0.00    -0.181 NA
HETATM   11  C18 UNL     1      22.419   4.773  50.105  1.00  0.00     0.113 A 
HETATM   12  C17 UNL     1      21.385   5.801  49.840  1.00  0.00     0.177 A 
HETATM   13  S1  UNL     1      23.288   3.426  49.622  1.00  0.00    -0.080 SA
HETATM   14  C19 UNL     1      24.182   2.537  50.736  1.00  0.00     0.065 C 
ENDBRANCH   5   6
BRANCH   1  15
HETATM   15  C4  UNL     1      26.405   1.079  53.830  1.00  0.00     0.160 C 
BRANCH  15  16
HETATM   16  C3  UNL     1      27.065   0.189  54.838  1.00  0.00     0.291 C 
BRANCH  16  17
HETATM   17  N1  UNL     1      28.488   0.032  54.592  1.00  0.00     0.081 N 
HETATM   18  C1  UNL     1      28.630  -0.856  53.458  1.00  0.00     0.309 C 
HETATM   19  C2  UNL     1      29.122   1.288  54.279  1.00  0.00     0.309 C 
ENDBRANCH  16  17
ENDBRANCH  15  16
ENDBRANCH   1  15
BRANCH   4  20
HETATM   20  C7  UNL     1      21.633   0.179  52.584  1.00  0.00    -0.005 A 
HETATM   21  C8  UNL     1      20.806  -0.463  53.538  1.00  0.00     0.017 A 
HETATM   22  C9  UNL     1      19.443  -0.767  53.466  1.00  0.00     0.043 A 
HETATM   23  C10 UNL     1      18.853  -0.373  52.288  1.00  0.00     0.116 A 
HETATM   24  F1  UNL     1      17.536  -0.617  52.113  1.00  0.00    -0.206 F 
HETATM   25  C11 UNL     1      19.534   0.257  51.277  1.00  0.00     0.043 A 
HETATM   26  C12 UNL     1      20.862   0.488  51.487  1.00  0.00     0.017 A 
ENDBRANCH   4  20
TORSDOF 5
ENDMDL
MODEL 3
REMARK VINA RESULT:      -7.6      1.776      2.242
REMARK  5 active torsions:
REMARK  status: ('A' for Active; 'I' for Inactive)
REMARK    1  A    between atoms: N1_2  and  C3_4 
REMARK    2  A    between atoms: C3_4  and  C4_5 
REMARK    3  A    between atoms: C4_5  and  N2_6 
REMARK    4  A    between atoms: C6_9  and  C7_10 
REMARK    5  A    between atoms: C13_17  and  C14_18 
ROOT
HETATM    1  N2  UNL     1      22.266   0.234  52.822  1.00  0.00    -0.337 N 
HETATM    2  C5  UNL     1      22.704  -0.834  53.562  1.00  0.00     0.210 A 
HETATM    3  N3  UNL     1      24.011  -0.626  53.731  1.00  0.00    -0.241 NA
HETATM    4  C6  UNL     1      24.387   0.498  53.140  1.00  0.00     0.096 A 
HETATM    5  C13 UNL     1      23.291   1.050  52.563  1.00  0.00     0.076 A 
ENDROOT
BRANCH   5   6
HETATM    6  C14 UNL     1      23.344   2.221  51.747  1.00  0.00    -0.002 C 
HETATM    7  C15 UNL     1      24.134   2.509  50.686  1.00  0.00     0.009 C 
HETATM    8  C16 UNL     1      24.494   3.489  49.653  1.00  0.00     0.180 C 
HETATM    9  N4  UNL     1      24.715   4.865  50.120  1.00  0.00    -0.258 N 
HETATM   10  N5  UNL     1      25.523   5.990  49.936  1.00  0.00    -0.181 NA
HETATM   11  C18 UNL     1      23.969   5.604  51.128  1.00  0.00     0.113 A 
HETATM   12  C17 UNL     1      24.899   6.719  50.832  1.00  0.00     0.177 A 
HETATM   13  S1  UNL     1      22.674   4.979  51.984  1.00  0.00    -0.080 SA
HETATM   14  C19 UNL     1      22.361   3.326  51.982  1.00  0.00     0.065 C 
ENDBRANCH   5   6
BRANCH   1  15
HETATM   15  C4  UNL     1      20.885   0.235  52.478  1.00  0.00     0.160 C 
BRANCH  15  16
HETATM   16  C3  UNL     1      20.074  -0.549  53.464  1.00  0.00     0.291 C 
BRANCH  16  17
HETATM   17  N1  UNL     1      18.652  -0.509  53.168  1.00  0.00     0.081 N 
HETATM   18  C1  UNL     1      18.516  -0.204  51.760  1.00  0.00     0.309 C 
HETATM   19  C2  UNL     1      18.012  -1.774  53.432  1.00  0.00     0.309 C 
ENDBRANCH  16  17
ENDBRANCH  15  16
ENDBRANCH   1  15
BRANCH   4  20
HETATM   20  C7  UNL     1      25.816   0.727  53.240  1.00  0.00    -0.005 A 
HETATM   21  C8  UNL     1      26.616  -0.438  53.136  1.00  0.00     0.017 A 
HETATM   22  C9  UNL     1      28.004  -0.570  53.232  1.00  0.00     0.043 A 
HETATM   23  C10 UNL     1      28.655   0.620  53.458  1.00  0.00     0.116 A 
HETATM   24  F1  UNL     1      30.002   0.607  53.565  1.00  0.00    -0.206 F 
HETATM   25  C11 UNL     1      28.007   1.823  53.581  1.00  0.00     0.043 A 
HETATM   26  C12 UNL     1      26.648   1.799  53.466  1.00  0.00     0.017 A 
ENDBRANCH   4  20
TORSDOF 5
ENDMDL
MODEL 4
REMARK VINA RESULT:      -7.6      2.183      5.025
REMARK  5 active torsions:
REMARK  status: ('A' for Active; 'I' for Inactive)
REMARK    1  A    between atoms: N1_2  and  C3_4 
REMARK    2  A    between atoms: C3_4  and  C4_5 
REMARK    3  A    between atoms: C4_5  and  N2_6 
REMARK    4  A    between atoms: C6_9  and  C7_10 
REMARK    5  A    between atoms: C13_17  and  C14_18 
ROOT
HETATM    1  N2  UNL     1      24.810   3.791  49.769  1.00  0.00    -0.337 N 
HETATM    2  C5  UNL     1      26.131   4.000  49.465  1.00  0.00     0.210 A 
HETATM    3  N3  UNL     1      26.805   3.160  50.254  1.00  0.00    -0.241 NA
HETATM    4  C6  UNL     1      25.974   2.460  51.011  1.00  0.00     0.096 A 
HETATM    5  C13 UNL     1      24.710   2.851  50.712  1.00  0.00     0.076 A 
ENDROOT
BRANCH   5   6
HETATM    6  C14 UNL     1      23.561   2.378  51.414  1.00  0.00    -0.002 C 
HETATM    7  C15 UNL     1      23.103   1.116  51.589  1.00  0.00     0.009 C 
HETATM    8  C16 UNL     1      22.071   0.254  52.178  1.00  0.00     0.180 C 
HETATM    9  N4  UNL     1      20.679   0.665  51.944  1.00  0.00    -0.258 N 
HETATM   10  N5  UNL     1      19.401   0.173  51.668  1.00  0.00    -0.181 NA
HETATM   11  C18 UNL     1      20.126   2.011  51.948  1.00  0.00     0.113 A 
HETATM   12  C17 UNL     1      18.829   1.354  51.656  1.00  0.00     0.177 A 
HETATM   13  S1  UNL     1      21.026   3.396  52.219  1.00  0.00    -0.080 SA
HETATM   14  C19 UNL     1      22.707   3.351  52.166  1.00  0.00     0.065 C 
ENDBRANCH   5   6
BRANCH   1  15
HETATM   15  C4  UNL     1      23.870   4.599  49.071  1.00  0.00     0.160 C 
BRANCH  15  16
HETATM   16  C3  UNL     1      24.115   6.058  49.311  1.00  0.00     0.291 C 
BRANCH  16  17
HETATM   17  N1  UNL     1      23.465   6.538  50.518  1.00  0.00     0.081 N 
HETATM   18  C1  UNL     1      23.972   7.869  50.776  1.00  0.00     0.309 C 
HETATM   19  C2  UNL     1      22.033   6.610  50.365  1.00  0.00     0.309 C 
ENDBRANCH  16  17
ENDBRANCH  15  16
ENDBRANCH   1  15
BRANCH   4  20
HETATM   20  C7  UNL     1      26.670   1.584  51.934  1.00  0.00    -0.005 A 
HETATM   21  C8  UNL     1      27.605   2.229  52.781  1.00  0.00     0.017 A 
HETATM   22  C9  UNL     1      28.459   1.677  53.739  1.00  0.00     0.043 A 
HETATM   23  C10 UNL     1      28.351   0.311  53.851  1.00  0.00     0.116 A 
HETATM   24  F1  UNL     1      29.131  -0.326  54.751  1.00  0.00    -0.206 F 
HETATM   25  C11 UNL     1      27.489  -0.442  53.094  1.00  0.00     0.043 A 
HETATM   26  C12 UNL     1      26.715   0.234  52.196  1.00  0.00     0.017 A 
ENDBRANCH   4  20
TORSDOF 5
ENDMDL
MODEL 5
REMARK VINA RESULT:      -7.5      2.231      4.549
REMARK  5 active torsions:
REMARK  status: ('A' for Active; 'I' for Inactive)
REMARK    1  A    between atoms: N1_2  and  C3_4 
REMARK    2  A    between atoms: C3_4  and  C4_5 
REMARK    3  A    between atoms: C4_5  and  N2_6 
REMARK    4  A    between atoms: C6_9  and  C7_10 
REMARK    5  A    between atoms: C13_17  and  C14_18 
ROOT
HETATM    1  N2  UNL     1      24.643   3.318  49.850  1.00  0.00    -0.337 N 
HETATM    2  C5  UNL     1      25.887   3.609  49.354  1.00  0.00     0.210 A 
HETATM    3  N3  UNL     1      26.742   3.030  50.199  1.00  0.00    -0.241 NA
HETATM    4  C6  UNL     1      26.091   2.409  51.171  1.00  0.00     0.096 A 
HETATM    5  C13 UNL     1      24.763   2.584  50.960  1.00  0.00     0.076 A 
ENDROOT
BRANCH   5   6
HETATM    6  C14 UNL     1      23.761   2.137  51.873  1.00  0.00    -0.002 C 
HETATM    7  C15 UNL     1      23.638   0.955  52.522  1.00  0.00     0.009 C 
HETATM    8  C16 UNL     1      22.851   0.144  53.460  1.00  0.00     0.180 C 
HETATM    9  N4  UNL     1      21.404   0.091  53.206  1.00  0.00    -0.258 N 
HETATM   10  N5  UNL     1      20.297  -0.762  53.227  1.00  0.00    -0.181 NA
HETATM   11  C18 UNL     1      20.526   1.168  52.775  1.00  0.00     0.113 A 
HETATM   12  C17 UNL     1      19.444   0.157  52.840  1.00  0.00     0.177 A 
HETATM   13  S1  UNL     1      21.039   2.731  52.461  1.00  0.00    -0.080 SA
HETATM   14  C19 UNL     1      22.677   3.079  52.294  1.00  0.00     0.065 C 
ENDBRANCH   5   6
BRANCH   1  15
HETATM   15  C4  UNL     1      23.539   3.855  49.131  1.00  0.00     0.160 C 
BRANCH  15  16
HETATM   16  C3  UNL     1      22.869   2.809  48.293  1.00  0.00     0.291 C 
BRANCH  16  17
HETATM   17  N1  UNL     1      21.564   2.435  48.811  1.00  0.00     0.081 N 
HETATM   18  C1  UNL     1      20.588   2.776  47.798  1.00  0.00     0.309 C 
HETATM   19  C2  UNL     1      21.477   1.021  49.081  1.00  0.00     0.309 C 
ENDBRANCH  16  17
ENDBRANCH  15  16
ENDBRANCH   1  15
BRANCH   4  20
HETATM   20  C7  UNL     1      26.985   1.823  52.152  1.00  0.00    -0.005 A 
HETATM   21  C8  UNL     1      26.990   0.407  52.186  1.00  0.00     0.017 A 
HETATM   22  C9  UNL     1      27.695  -0.456  53.029  1.00  0.00     0.043 A 
HETATM   23  C10 UNL     1      28.488   0.195  53.944  1.00  0.00     0.116 A 
HETATM   24  F1  UNL     1      29.216  -0.544  54.809  1.00  0.00    -0.206 F 
HETATM   25  C11 UNL     1      28.580   1.562  54.025  1.00  0.00     0.043 A 
HETATM   26  C12 UNL     1      27.832   2.278  53.136  1.00  0.00     0.017 A 
ENDBRANCH   4  20
TORSDOF 5
ENDMDL
MODEL 6
REMARK VINA RESULT:      -7.3      3.232      6.153
REMARK  5 active torsions:
REMARK  status: ('A' for Active; 'I' for Inactive)
REMARK    1  A    between atoms: N1_2  and  C3_4 
REMARK    2  A    between atoms: C3_4  and  C4_5 
REMARK    3  A    between atoms: C4_5  and  N2_6 
REMARK    4  A    between atoms: C6_9  and  C7_10 
REMARK    5  A    between atoms: C13_17  and  C14_18 
ROOT
HETATM    1  N2  UNL     1      25.268   0.673  52.623  1.00  0.00    -0.337 N 
HETATM    2  C5  UNL     1      25.118  -0.481  53.347  1.00  0.00     0.210 A 
HETATM    3  N3  UNL     1      23.810  -0.740  53.323  1.00  0.00    -0.241 NA
HETATM    4  C6  UNL     1      23.162   0.185  52.630  1.00  0.00     0.096 A 
HETATM    5  C13 UNL     1      24.075   1.083  52.182  1.00  0.00     0.076 A 
ENDROOT
BRANCH   5   6
HETATM    6  C14 UNL     1      23.719   2.276  51.485  1.00  0.00    -0.002 C 
HETATM    7  C15 UNL     1      23.788   2.568  50.164  1.00  0.00     0.009 C 
HETATM    8  C16 UNL     1      23.553   3.566  49.112  1.00  0.00     0.180 C 
HETATM    9  N4  UNL     1      24.068   4.916  49.380  1.00  0.00    -0.258 N 
HETATM   10  N5  UNL     1      24.689   6.014  48.778  1.00  0.00    -0.181 NA
HETATM   11  C18 UNL     1      24.058   5.651  50.636  1.00  0.00     0.113 A 
HETATM   12  C17 UNL     1      24.715   6.738  49.873  1.00  0.00     0.177 A 
HETATM   13  S1  UNL     1      23.440   5.049  52.071  1.00  0.00    -0.080 SA
HETATM   14  C19 UNL     1      23.096   3.411  52.238  1.00  0.00     0.065 C 
ENDBRANCH   5   6
BRANCH   1  15
HETATM   15  C4  UNL     1      26.592   1.184  52.520  1.00  0.00     0.160 C 
BRANCH  15  16
HETATM   16  C3  UNL     1      27.606   0.170  52.954  1.00  0.00     0.291 C 
BRANCH  16  17
HETATM   17  N1  UNL     1      28.568   0.715  53.896  1.00  0.00     0.081 N 
HETATM   18  C1  UNL     1      29.822   0.026  53.673  1.00  0.00     0.309 C 
HETATM   19  C2  UNL     1      28.775   2.128  53.696  1.00  0.00     0.309 C 
ENDBRANCH  16  17
ENDBRANCH  15  16
ENDBRANCH   1  15
BRANCH   4  20
HETATM   20  C7  UNL     1      21.727  -0.020  52.637  1.00  0.00    -0.005 A 
HETATM   21  C8  UNL     1      21.066   0.338  51.435  1.00  0.00     0.017 A 
HETATM   22  C9  UNL     1      19.703   0.305  51.132  1.00  0.00     0.043 A 
HETATM   23  C10 UNL     1      18.918  -0.144  52.168  1.00  0.00     0.116 A 
HETATM   24  F1  UNL     1      17.583  -0.218  51.981  1.00  0.00    -0.206 F 
HETATM   25  C11 UNL     1      19.423  -0.523  53.387  1.00  0.00     0.043 A 
HETATM   26  C12 UNL     1      20.776  -0.437  53.541  1.00  0.00     0.017 A 
ENDBRANCH   4  20
TORSDOF 5
ENDMDL
MODEL 7
REMARK VINA RESULT:      -7.3      3.198      5.673
REMARK  5 active torsions:
REMARK  status: ('A' for Active; 'I' for Inactive)
REMARK    1  A    between atoms: N1_2  and  C3_4 
REMARK    2  A    between atoms: C3_4  and  C4_5 
REMARK    3  A    between atoms: C4_5  and  N2_6 
REMARK    4  A    between atoms: C6_9  and  C7_10 
REMARK    5  A    between atoms: C13_17  and  C14_18 
ROOT
HETATM    1  N2  UNL     1      25.388   3.214  50.352  1.00  0.00    -0.337 N 
HETATM    2  C5  UNL     1      26.477   2.642  50.957  1.00  0.00     0.210 A 
HETATM    3  N3  UNL     1      25.971   1.761  51.822  1.00  0.00    -0.241 NA
HETATM    4  C6  UNL     1      24.647   1.767  51.776  1.00  0.00     0.096 A 
HETATM    5  C13 UNL     1      24.269   2.682  50.849  1.00  0.00     0.076 A 
ENDROOT
BRANCH   5   6
HETATM    6  C14 UNL     1      22.906   3.031  50.608  1.00  0.00    -0.002 C 
HETATM    7  C15 UNL     1      22.141   4.000  51.166  1.00  0.00     0.009 C 
HETATM    8  C16 UNL     1      20.827   4.652  51.215  1.00  0.00     0.180 C 
HETATM    9  N4  UNL     1      19.667   3.755  51.322  1.00  0.00    -0.258 N 
HETATM   10  N5  UNL     1      18.417   3.615  51.930  1.00  0.00    -0.181 NA
HETATM   11  C18 UNL     1      19.455   2.476  50.661  1.00  0.00     0.113 A 
HETATM   12  C17 UNL     1      18.154   2.457  51.371  1.00  0.00     0.177 A 
HETATM   13  S1  UNL     1      20.555   1.761  49.622  1.00  0.00    -0.080 SA
HETATM   14  C19 UNL     1      22.141   2.315  49.538  1.00  0.00     0.065 C 
ENDBRANCH   5   6
BRANCH   1  15
HETATM   15  C4  UNL     1      25.664   4.225  49.390  1.00  0.00     0.160 C 
BRANCH  15  16
HETATM   16  C3  UNL     1      27.131   4.322  49.100  1.00  0.00     0.291 C 
BRANCH  16  17
HETATM   17  N1  UNL     1      27.466   5.503  48.324  1.00  0.00     0.081 N 
HETATM   18  C1  UNL     1      26.794   6.627  48.942  1.00  0.00     0.309 C 
HETATM   19  C2  UNL     1      28.885   5.758  48.319  1.00  0.00     0.309 C 
ENDBRANCH  16  17
ENDBRANCH  15  16
ENDBRANCH   1  15
BRANCH   4  20
HETATM   20  C7  UNL     1      24.054   0.873  52.752  1.00  0.00    -0.005 A 
HETATM   21  C8  UNL     1      24.982   0.182  53.571  1.00  0.00     0.017 A 
HETATM   22  C9  UNL     1      24.746  -0.770  54.566  1.00  0.00     0.043 A 
HETATM   23  C10 UNL     1      23.413  -1.054  54.751  1.00  0.00     0.116 A 
HETATM   24  F1  UNL     1      23.072  -1.961  55.692  1.00  0.00    -0.206 F 
HETATM   25  C11 UNL     1      22.408  -0.461  54.029  1.00  0.00     0.043 A 
HETATM   26  C12 UNL     1      22.789   0.451  53.088  1.00  0.00     0.017 A 
ENDBRANCH   4  20
TORSDOF 5
ENDMDL
MODEL 8
REMARK VINA RESULT:      -7.2      3.143      6.757
REMARK  5 active torsions:
REMARK  status: ('A' for Active; 'I' for Inactive)
REMARK    1  A    between atoms: N1_2  and  C3_4 
REMARK    2  A    between atoms: C3_4  and  C4_5 
REMARK    3  A    between atoms: C4_5  and  N2_6 
REMARK    4  A    between atoms: C6_9  and  C7_10 
REMARK    5  A    between atoms: C13_17  and  C14_18 
ROOT
HETATM    1  N2  UNL     1      22.803   3.612  52.159  1.00  0.00    -0.337 N 
HETATM    2  C5  UNL     1      21.502   4.032  52.057  1.00  0.00     0.210 A 
HETATM    3  N3  UNL     1      20.766   2.967  52.382  1.00  0.00    -0.241 NA
HETATM    4  C6  UNL     1      21.542   1.933  52.673  1.00  0.00     0.096 A 
HETATM    5  C13 UNL     1      22.832   2.331  52.535  1.00  0.00     0.076 A 
ENDROOT
BRANCH   5   6
HETATM    6  C14 UNL     1      23.941   1.442  52.669  1.00  0.00    -0.002 C 
HETATM    7  C15 UNL     1      24.196   0.501  53.609  1.00  0.00     0.009 C 
HETATM    8  C16 UNL     1      25.117  -0.537  54.089  1.00  0.00     0.180 C 
HETATM    9  N4  UNL     1      26.533  -0.154  54.169  1.00  0.00    -0.258 N 
HETATM   10  N5  UNL     1      27.686  -0.296  54.946  1.00  0.00    -0.181 NA
HETATM   11  C18 UNL     1      27.300   0.659  53.237  1.00  0.00     0.113 A 
HETATM   12  C17 UNL     1      28.442   0.426  54.153  1.00  0.00     0.177 A 
HETATM   13  S1  UNL     1      26.666   1.345  51.848  1.00  0.00    -0.080 SA
HETATM   14  C19 UNL     1      25.002   1.427  51.613  1.00  0.00     0.065 C 
ENDBRANCH   5   6
BRANCH   1  15
HETATM   15  C4  UNL     1      23.800   4.573  51.832  1.00  0.00     0.160 C 
BRANCH  15  16
HETATM   16  C3  UNL     1      23.475   5.288  50.556  1.00  0.00     0.291 C 
BRANCH  16  17
HETATM   17  N1  UNL     1      24.665   5.703  49.833  1.00  0.00     0.081 N 
HETATM   18  C1  UNL     1      25.151   6.911  50.467  1.00  0.00     0.309 C 
HETATM   19  C2  UNL     1      25.702   4.702  49.886  1.00  0.00     0.309 C 
ENDBRANCH  16  17
ENDBRANCH  15  16
ENDBRANCH   1  15
BRANCH   4  20
HETATM   20  C7  UNL     1      20.782   0.733  52.964  1.00  0.00    -0.005 A 
HETATM   21  C8  UNL     1      19.544   0.631  52.282  1.00  0.00     0.017 A 
HETATM   22  C9  UNL     1      18.566  -0.364  52.369  1.00  0.00     0.043 A 
HETATM   23  C10 UNL     1      18.881  -1.371  53.250  1.00  0.00     0.116 A 
HETATM   24  F1  UNL     1      18.005  -2.386  53.411  1.00  0.00    -0.206 F 
HETATM   25  C11 UNL     1      20.045  -1.399  53.978  1.00  0.00     0.043 A 
HETATM   26  C12 UNL     1      20.907  -0.359  53.791  1.00  0.00     0.017 A 
ENDBRANCH   4  20
TORSDOF 5
ENDMDL
MODEL 9
REMARK VINA RESULT:      -7.1      3.165      4.992
REMARK  5 active torsions:
REMARK  status: ('A' for Active; 'I' for Inactive)
REMARK    1  A    between atoms: N1_2  and  C3_4 
REMARK    2  A    between atoms: C3_4  and  C4_5 
REMARK    3  A    between atoms: C4_5  and  N2_6 
REMARK    4  A    between atoms: C6_9  and  C7_10 
REMARK    5  A    between atoms: C13_17  and  C14_18 
ROOT
HETATM    1  N2  UNL     1      24.201   0.974  52.276  1.00  0.00    -0.337 N 
HETATM    2  C5  UNL     1      25.568   0.891  52.348  1.00  0.00     0.210 A 
HETATM    3  N3  UNL     1      26.016   1.947  51.668  1.00  0.00    -0.241 NA
HETATM    4  C6  UNL     1      25.007   2.661  51.192  1.00  0.00     0.096 A 
HETATM    5  C13 UNL     1      23.855   2.055  51.571  1.00  0.00     0.076 A 
ENDROOT
BRANCH   5   6
HETATM    6  C14 UNL     1      22.565   2.493  51.145  1.00  0.00    -0.002 C 
HETATM    7  C15 UNL     1      21.849   3.582  51.513  1.00  0.00     0.009 C 
HETATM    8  C16 UNL     1      20.607   4.349  51.348  1.00  0.00     0.180 C 
HETATM    9  N4  UNL     1      19.359   3.576  51.415  1.00  0.00    -0.258 N 
HETATM   10  N5  UNL     1      18.046   3.615  51.890  1.00  0.00    -0.181 NA
HETATM   11  C18 UNL     1      19.089   2.255  50.867  1.00  0.00     0.113 A 
HETATM   12  C17 UNL     1      17.727   2.429  51.424  1.00  0.00     0.177 A 
HETATM   13  S1  UNL     1      20.212   1.335  50.035  1.00  0.00    -0.080 SA
HETATM   14  C19 UNL     1      21.846   1.734  50.074  1.00  0.00     0.065 C 
ENDBRANCH   5   6
BRANCH   1  15
HETATM   15  C4  UNL     1      23.474  -0.070  52.912  1.00  0.00     0.160 C 
BRANCH  15  16
HETATM   16  C3  UNL     1      22.285   0.461  53.653  1.00  0.00     0.291 C 
BRANCH  16  17
HETATM   17  N1  UNL     1      21.841  -0.436  54.706  1.00  0.00     0.081 N 
HETATM   18  C1  UNL     1      20.787  -1.259  54.151  1.00  0.00     0.309 C 
HETATM   19  C2  UNL     1      22.905  -1.294  55.165  1.00  0.00     0.309 C 
ENDBRANCH  16  17
ENDBRANCH  15  16
ENDBRANCH   1  15
BRANCH   4  20
HETATM   20  C7  UNL     1      25.452   3.782  50.386  1.00  0.00    -0.005 A 
HETATM   21  C8  UNL     1      26.652   3.560  49.665  1.00  0.00     0.017 A 
HETATM   22  C9  UNL     1      27.363   4.436  48.841  1.00  0.00     0.043 A 
HETATM   23  C10 UNL     1      26.789   5.681  48.735  1.00  0.00     0.116 A 
HETATM   24  F1  UNL     1      27.395   6.607  47.960  1.00  0.00    -0.206 F 
HETATM   25  C11 UNL     1      25.629   6.034  49.378  1.00  0.00     0.043 A 
HETATM   26  C12 UNL     1      25.044   5.075  50.152  1.00  0.00     0.017 A 
ENDBRANCH   4  20
TORSDOF 5
ENDMDL
