MODEL 1
REMARK VINA RESULT:     -11.0      0.000      0.000
REMARK  0 active torsions:
REMARK  status: ('A' for Active; 'I' for Inactive)
ROOT
HETATM    1  C1  UNL     1      19.471   3.123  46.952  1.00  0.00     0.039 C 
HETATM    2  C2  UNL     1      20.796   3.281  47.630  1.00  0.00     0.119 C 
HETATM    3  C3  UNL     1      21.093   4.769  47.858  1.00  0.00     0.039 C 
HETATM    4  C4  UNL     1      22.404   4.854  48.567  1.00  0.00     0.083 C 
HETATM    5  C5  UNL     1      22.819   6.223  48.875  1.00  0.00     0.131 A 
HETATM    6  N1  UNL     1      23.486   7.128  48.158  1.00  0.00    -0.135 NA
HETATM    7  N2  UNL     1      23.624   8.220  48.874  1.00  0.00    -0.143 NA
HETATM    8  C6  UNL     1      23.045   8.040  50.075  1.00  0.00     0.237 A 
HETATM    9  N3  UNL     1      22.535   6.774  50.077  1.00  0.00    -0.308 N 
HETATM   10  C7  UNL     1      21.819   6.126  51.142  1.00  0.00     0.282 C 
HETATM   11  N4  UNL     1      22.622   5.203  51.864  1.00  0.00    -0.265 NA
HETATM   12  C8  UNL     1      23.812   5.371  52.307  1.00  0.00     0.198 C 
HETATM   13  N5  UNL     1      24.260   4.183  52.985  1.00  0.00    -0.381 N 
HETATM   14  C9  UNL     1      24.378   3.064  52.077  1.00  0.00     0.155 C 
HETATM   15  C10 UNL     1      24.838   1.810  52.725  1.00  0.00    -0.054 C 
HETATM   16  C11 UNL     1      25.712   2.109  53.693  1.00  0.00    -0.018 C 
HETATM   17  C12 UNL     1      26.348   1.074  54.520  1.00  0.00     0.054 C 
HETATM   18  C13 UNL     1      26.493  -0.216  53.795  1.00  0.00    -0.026 C 
HETATM   19  C14 UNL     1      25.623  -0.493  52.847  1.00  0.00    -0.017 C 
HETATM   20  C15 UNL     1      24.481   0.414  52.441  1.00  0.00     0.072 C 
HETATM   21  C16 UNL     1      23.213  -0.061  53.024  1.00  0.00    -0.028 A 
HETATM   22  C17 UNL     1      23.260  -0.639  54.275  1.00  0.00     0.009 A 
HETATM   23  C18 UNL     1      22.068  -1.082  54.792  1.00  0.00     0.001 A 
HETATM   24  C19 UNL     1      20.813  -1.029  54.229  1.00  0.00     0.002 A 
HETATM   25  C20 UNL     1      20.789  -0.447  52.979  1.00  0.00     0.021 A 
HETATM   26  C21 UNL     1      21.967   0.003  52.441  1.00  0.00     0.025 A 
HETATM   27  C22 UNL     1      21.879   0.574  51.180  1.00  0.00    -0.064 C 
HETATM   28  C23 UNL     1      21.813   1.062  50.149  1.00  0.00    -0.075 C 
HETATM   29  C24 UNL     1      21.737   1.686  48.889  1.00  0.00     0.262 C 
HETATM   30  O1  UNL     1      20.750   2.703  48.879  1.00  0.00    -0.374 OA
HETATM   31  H13 UNL     1      24.422   4.330  54.003  1.00  0.00     0.160 HD
ENDROOT
TORSDOF 0
ENDMDL
MODEL 2
REMARK VINA RESULT:     -10.1      2.539      7.149
REMARK  0 active torsions:
REMARK  status: ('A' for Active; 'I' for Inactive)
ROOT
HETATM    1  C1  UNL     1      21.679  -1.816  53.991  1.00  0.00     0.039 C 
HETATM    2  C2  UNL     1      22.504  -0.568  53.953  1.00  0.00     0.119 C 
HETATM    3  C3  UNL     1      23.979  -0.907  54.205  1.00  0.00     0.039 C 
HETATM    4  C4  UNL     1      24.747   0.370  54.118  1.00  0.00     0.083 C 
HETATM    5  C5  UNL     1      26.187   0.206  54.318  1.00  0.00     0.131 A 
HETATM    6  N1  UNL     1      26.929   0.181  55.425  1.00  0.00    -0.135 NA
HETATM    7  N2  UNL     1      28.188   0.013  55.089  1.00  0.00    -0.143 NA
HETATM    8  C6  UNL     1      28.284  -0.074  53.750  1.00  0.00     0.237 A 
HETATM    9  N3  UNL     1      27.015   0.048  53.260  1.00  0.00    -0.308 N 
HETATM   10  C7  UNL     1      26.609   0.012  51.882  1.00  0.00     0.282 C 
HETATM   11  N4  UNL     1      26.337   1.303  51.353  1.00  0.00    -0.265 NA
HETATM   12  C8  UNL     1      27.040   2.367  51.473  1.00  0.00     0.198 C 
HETATM   13  N5  UNL     1      26.405   3.459  50.783  1.00  0.00    -0.381 N 
HETATM   14  C9  UNL     1      25.137   3.806  51.386  1.00  0.00     0.155 C 
HETATM   15  C10 UNL     1      24.438   4.929  50.712  1.00  0.00    -0.054 C 
HETATM   16  C11 UNL     1      25.343   5.808  50.268  1.00  0.00    -0.018 C 
HETATM   17  C12 UNL     1      24.959   7.035  49.555  1.00  0.00     0.054 C 
HETATM   18  C13 UNL     1      23.618   7.529  49.966  1.00  0.00    -0.026 C 
HETATM   19  C14 UNL     1      22.741   6.648  50.399  1.00  0.00    -0.017 C 
HETATM   20  C15 UNL     1      23.002   5.161  50.507  1.00  0.00     0.072 C 
HETATM   21  C16 UNL     1      22.386   4.445  49.375  1.00  0.00    -0.028 A 
HETATM   22  C17 UNL     1      22.359   5.082  48.152  1.00  0.00     0.009 A 
HETATM   23  C18 UNL     1      21.771   4.399  47.117  1.00  0.00     0.001 A 
HETATM   24  C19 UNL     1      21.196   3.149  47.127  1.00  0.00     0.002 A 
HETATM   25  C20 UNL     1      21.232   2.531  48.359  1.00  0.00     0.021 A 
HETATM   26  C21 UNL     1      21.815   3.193  49.410  1.00  0.00     0.025 A 
HETATM   27  C22 UNL     1      21.817   2.522  50.623  1.00  0.00    -0.064 C 
HETATM   28  C23 UNL     1      21.840   1.968  51.623  1.00  0.00    -0.075 C 
HETATM   29  C24 UNL     1      21.892   1.284  52.852  1.00  0.00     0.262 C 
HETATM   30  O1  UNL     1      22.447  -0.011  52.696  1.00  0.00    -0.374 OA
HETATM   31  H13 UNL     1      26.961   3.811  49.976  1.00  0.00     0.160 HD
ENDROOT
TORSDOF 0
ENDMDL
MODEL 3
REMARK VINA RESULT:      -9.6      2.362      4.644
REMARK  0 active torsions:
REMARK  status: ('A' for Active; 'I' for Inactive)
ROOT
HETATM    1  C1  UNL     1      23.828   7.780  50.598  1.00  0.00     0.039 C 
HETATM    2  C2  UNL     1      22.873   6.698  50.997  1.00  0.00     0.119 C 
HETATM    3  C3  UNL     1      21.768   6.559  49.942  1.00  0.00     0.039 C 
HETATM    4  C4  UNL     1      20.876   5.445  50.380  1.00  0.00     0.083 C 
HETATM    5  C5  UNL     1      19.774   5.176  49.456  1.00  0.00     0.131 A 
HETATM    6  N1  UNL     1      18.558   5.711  49.351  1.00  0.00    -0.135 NA
HETATM    7  N2  UNL     1      17.921   5.128  48.360  1.00  0.00    -0.143 NA
HETATM    8  C6  UNL     1      18.720   4.200  47.803  1.00  0.00     0.237 A 
HETATM    9  N3  UNL     1      19.895   4.229  48.497  1.00  0.00    -0.308 N 
HETATM   10  C7  UNL     1      21.060   3.420  48.269  1.00  0.00     0.282 C 
HETATM   11  N4  UNL     1      21.184   2.354  49.200  1.00  0.00    -0.265 NA
HETATM   12  C8  UNL     1      20.275   1.540  49.590  1.00  0.00     0.198 C 
HETATM   13  N5  UNL     1      20.821   0.610  50.543  1.00  0.00    -0.381 N 
HETATM   14  C9  UNL     1      21.241   1.275  51.757  1.00  0.00     0.155 C 
HETATM   15  C10 UNL     1      21.813   0.360  52.777  1.00  0.00    -0.054 C 
HETATM   16  C11 UNL     1      21.171  -0.812  52.726  1.00  0.00    -0.018 C 
HETATM   17  C12 UNL     1      21.510  -1.930  53.619  1.00  0.00     0.054 C 
HETATM   18  C13 UNL     1      22.055  -1.464  54.922  1.00  0.00    -0.026 C 
HETATM   19  C14 UNL     1      22.685  -0.309  54.951  1.00  0.00    -0.017 C 
HETATM   20  C15 UNL     1      22.894   0.584  53.745  1.00  0.00     0.072 C 
HETATM   21  C16 UNL     1      24.267   0.438  53.228  1.00  0.00    -0.028 A 
HETATM   22  C17 UNL     1      24.854  -0.807  53.310  1.00  0.00     0.009 A 
HETATM   23  C18 UNL     1      26.136  -0.914  52.830  1.00  0.00     0.001 A 
HETATM   24  C19 UNL     1      26.930   0.061  52.271  1.00  0.00     0.002 A 
HETATM   25  C20 UNL     1      26.323   1.298  52.200  1.00  0.00     0.021 A 
HETATM   26  C21 UNL     1      25.042   1.431  52.672  1.00  0.00     0.025 A 
HETATM   27  C22 UNL     1      24.489   2.698  52.577  1.00  0.00    -0.064 C 
HETATM   28  C23 UNL     1      24.019   3.736  52.485  1.00  0.00    -0.075 C 
HETATM   29  C24 UNL     1      23.424   5.005  52.356  1.00  0.00     0.262 C 
HETATM   30  O1  UNL     1      23.529   5.488  51.028  1.00  0.00    -0.374 OA
HETATM   31  H13 UNL     1      20.820  -0.374  50.201  1.00  0.00     0.160 HD
ENDROOT
TORSDOF 0
ENDMDL
MODEL 4
REMARK VINA RESULT:      -9.3      1.458      1.909
REMARK  0 active torsions:
REMARK  status: ('A' for Active; 'I' for Inactive)
ROOT
HETATM    1  C1  UNL     1      20.679   3.849  44.718  1.00  0.00     0.039 C 
HETATM    2  C2  UNL     1      21.746   4.083  45.741  1.00  0.00     0.119 C 
HETATM    3  C3  UNL     1      21.909   5.588  45.993  1.00  0.00     0.039 C 
HETATM    4  C4  UNL     1      22.956   5.749  47.044  1.00  0.00     0.083 C 
HETATM    5  C5  UNL     1      23.212   7.142  47.410  1.00  0.00     0.131 A 
HETATM    6  N1  UNL     1      24.022   8.061  46.883  1.00  0.00    -0.135 NA
HETATM    7  N2  UNL     1      23.907   9.175  47.571  1.00  0.00    -0.143 NA
HETATM    8  C6  UNL     1      23.014   8.994  48.562  1.00  0.00     0.237 A 
HETATM    9  N3  UNL     1      22.574   7.706  48.461  1.00  0.00    -0.308 N 
HETATM   10  C7  UNL     1      21.607   7.050  49.298  1.00  0.00     0.282 C 
HETATM   11  N4  UNL     1      22.203   6.181  50.251  1.00  0.00    -0.265 NA
HETATM   12  C8  UNL     1      23.208   6.414  51.010  1.00  0.00     0.198 C 
HETATM   13  N5  UNL     1      23.487   5.263  51.828  1.00  0.00    -0.381 N 
HETATM   14  C9  UNL     1      23.905   4.131  51.031  1.00  0.00     0.155 C 
HETATM   15  C10 UNL     1      24.206   2.914  51.827  1.00  0.00    -0.054 C 
HETATM   16  C11 UNL     1      24.752   3.275  52.993  1.00  0.00    -0.018 C 
HETATM   17  C12 UNL     1      25.163   2.289  54.003  1.00  0.00     0.054 C 
HETATM   18  C13 UNL     1      25.559   0.992  53.396  1.00  0.00    -0.026 C 
HETATM   19  C14 UNL     1      25.010   0.654  52.248  1.00  0.00    -0.017 C 
HETATM   20  C15 UNL     1      23.999   1.498  51.501  1.00  0.00     0.072 C 
HETATM   21  C16 UNL     1      22.636   0.977  51.713  1.00  0.00    -0.028 A 
HETATM   22  C17 UNL     1      22.343   0.429  52.944  1.00  0.00     0.009 A 
HETATM   23  C18 UNL     1      21.071  -0.057  53.113  1.00  0.00     0.001 A 
HETATM   24  C19 UNL     1      20.030  -0.075  52.213  1.00  0.00     0.002 A 
HETATM   25  C20 UNL     1      20.344   0.477  50.989  1.00  0.00     0.021 A 
HETATM   26  C21 UNL     1      21.609   0.971  50.795  1.00  0.00     0.025 A 
HETATM   27  C22 UNL     1      21.866   1.508  49.544  1.00  0.00    -0.064 C 
HETATM   28  C23 UNL     1      22.080   1.970  48.521  1.00  0.00    -0.075 C 
HETATM   29  C24 UNL     1      22.345   2.561  47.271  1.00  0.00     0.262 C 
HETATM   30  O1  UNL     1      21.366   3.531  46.943  1.00  0.00    -0.374 OA
HETATM   31  H13 UNL     1      23.344   5.440  52.845  1.00  0.00     0.160 HD
ENDROOT
TORSDOF 0
ENDMDL
MODEL 5
REMARK VINA RESULT:      -8.6      2.027      2.947
REMARK  0 active torsions:
REMARK  status: ('A' for Active; 'I' for Inactive)
ROOT
HETATM    1  C1  UNL     1      21.223   5.074  45.107  1.00  0.00     0.039 C 
HETATM    2  C2  UNL     1      21.980   4.656  46.328  1.00  0.00     0.119 C 
HETATM    3  C3  UNL     1      22.580   5.887  47.020  1.00  0.00     0.039 C 
HETATM    4  C4  UNL     1      23.287   5.406  48.243  1.00  0.00     0.083 C 
HETATM    5  C5  UNL     1      23.901   6.477  49.029  1.00  0.00     0.131 A 
HETATM    6  N1  UNL     1      25.090   7.072  48.936  1.00  0.00    -0.135 NA
HETATM    7  N2  UNL     1      25.185   7.982  49.879  1.00  0.00    -0.143 NA
HETATM    8  C6  UNL     1      24.051   7.993  50.602  1.00  0.00     0.237 A 
HETATM    9  N3  UNL     1      23.236   7.039  50.064  1.00  0.00    -0.308 N 
HETATM   10  C7  UNL     1      21.912   6.683  50.495  1.00  0.00     0.282 C 
HETATM   11  N4  UNL     1      21.883   5.482  51.254  1.00  0.00    -0.265 NA
HETATM   12  C8  UNL     1      22.657   5.138  52.215  1.00  0.00     0.198 C 
HETATM   13  N5  UNL     1      22.283   3.840  52.710  1.00  0.00    -0.381 N 
HETATM   14  C9  UNL     1      22.482   2.811  51.713  1.00  0.00     0.155 C 
HETATM   15  C10 UNL     1      22.112   1.449  52.173  1.00  0.00    -0.054 C 
HETATM   16  C11 UNL     1      22.407   1.327  53.472  1.00  0.00    -0.018 C 
HETATM   17  C12 UNL     1      22.156   0.085  54.218  1.00  0.00     0.054 C 
HETATM   18  C13 UNL     1      22.227  -1.119  53.349  1.00  0.00    -0.026 C 
HETATM   19  C14 UNL     1      21.931  -0.978  52.074  1.00  0.00    -0.017 C 
HETATM   20  C15 UNL     1      21.523   0.329  51.428  1.00  0.00     0.072 C 
HETATM   21  C16 UNL     1      20.062   0.375  51.237  1.00  0.00    -0.028 A 
HETATM   22  C17 UNL     1      19.272  -0.232  52.190  1.00  0.00     0.009 A 
HETATM   23  C18 UNL     1      17.915  -0.184  51.985  1.00  0.00     0.001 A 
HETATM   24  C19 UNL     1      17.222   0.394  50.946  1.00  0.00     0.002 A 
HETATM   25  C20 UNL     1      18.031   0.995  50.004  1.00  0.00     0.021 A 
HETATM   26  C21 UNL     1      19.390   0.960  50.187  1.00  0.00     0.025 A 
HETATM   27  C22 UNL     1      20.151   1.577  49.206  1.00  0.00    -0.064 C 
HETATM   28  C23 UNL     1      20.783   2.099  48.410  1.00  0.00    -0.075 C 
HETATM   29  C24 UNL     1      21.570   2.760  47.447  1.00  0.00     0.262 C 
HETATM   30  O1  UNL     1      21.118   4.086  47.237  1.00  0.00    -0.374 OA
HETATM   31  H13 UNL     1      21.937   3.861  53.693  1.00  0.00     0.160 HD
ENDROOT
TORSDOF 0
ENDMDL
MODEL 6
REMARK VINA RESULT:      -8.4      2.601      7.091
REMARK  0 active torsions:
REMARK  status: ('A' for Active; 'I' for Inactive)
ROOT
HETATM    1  C1  UNL     1      17.098  -0.160  50.626  1.00  0.00     0.039 C 
HETATM    2  C2  UNL     1      18.099   0.708  51.322  1.00  0.00     0.119 C 
HETATM    3  C3  UNL     1      19.027  -0.153  52.189  1.00  0.00     0.039 C 
HETATM    4  C4  UNL     1      20.018   0.765  52.822  1.00  0.00     0.083 C 
HETATM    5  C5  UNL     1      20.994   0.083  53.673  1.00  0.00     0.131 A 
HETATM    6  N1  UNL     1      20.951  -0.275  54.956  1.00  0.00    -0.135 NA
HETATM    7  N2  UNL     1      22.083  -0.863  55.272  1.00  0.00    -0.143 NA
HETATM    8  C6  UNL     1      22.883  -0.896  54.191  1.00  0.00     0.237 A 
HETATM    9  N3  UNL     1      22.193  -0.297  53.176  1.00  0.00    -0.308 N 
HETATM   10  C7  UNL     1      22.635  -0.099  51.823  1.00  0.00     0.282 C 
HETATM   11  N4  UNL     1      23.061   1.232  51.570  1.00  0.00    -0.265 NA
HETATM   12  C8  UNL     1      23.829   1.963  52.289  1.00  0.00     0.198 C 
HETATM   13  N5  UNL     1      24.007   3.250  51.669  1.00  0.00    -0.381 N 
HETATM   14  C9  UNL     1      22.766   3.992  51.615  1.00  0.00     0.155 C 
HETATM   15  C10 UNL     1      22.893   5.330  50.985  1.00  0.00    -0.054 C 
HETATM   16  C11 UNL     1      24.086   5.851  51.293  1.00  0.00    -0.018 C 
HETATM   17  C12 UNL     1      24.510   7.175  50.815  1.00  0.00     0.054 C 
HETATM   18  C13 UNL     1      23.359   8.092  50.602  1.00  0.00    -0.026 C 
HETATM   19  C14 UNL     1      22.193   7.560  50.298  1.00  0.00    -0.017 C 
HETATM   20  C15 UNL     1      21.942   6.075  50.150  1.00  0.00     0.072 C 
HETATM   21  C16 UNL     1      21.900   5.699  48.724  1.00  0.00    -0.028 A 
HETATM   22  C17 UNL     1      22.733   6.376  47.858  1.00  0.00     0.009 A 
HETATM   23  C18 UNL     1      22.668   6.016  46.536  1.00  0.00     0.001 A 
HETATM   24  C19 UNL     1      21.877   5.058  45.943  1.00  0.00     0.002 A 
HETATM   25  C20 UNL     1      21.053   4.393  46.826  1.00  0.00     0.021 A 
HETATM   26  C21 UNL     1      21.099   4.736  48.154  1.00  0.00     0.025 A 
HETATM   27  C22 UNL     1      20.244   4.036  48.991  1.00  0.00    -0.064 C 
HETATM   28  C23 UNL     1      19.556   3.451  49.691  1.00  0.00    -0.075 C 
HETATM   29  C24 UNL     1      18.728   2.720  50.563  1.00  0.00     0.262 C 
HETATM   30  O1  UNL     1      18.905   1.324  50.392  1.00  0.00    -0.374 OA
HETATM   31  H13 UNL     1      24.989   3.428  51.370  1.00  0.00     0.160 HD
ENDROOT
TORSDOF 0
ENDMDL
MODEL 7
REMARK VINA RESULT:      -8.1      3.358      5.744
REMARK  0 active torsions:
REMARK  status: ('A' for Active; 'I' for Inactive)
ROOT
HETATM    1  C1  UNL     1      19.686   8.905  47.811  1.00  0.00     0.039 C 
HETATM    2  C2  UNL     1      19.638   7.672  48.659  1.00  0.00     0.119 C 
HETATM    3  C3  UNL     1      18.564   6.713  48.129  1.00  0.00     0.039 C 
HETATM    4  C4  UNL     1      18.594   5.495  48.991  1.00  0.00     0.083 C 
HETATM    5  C5  UNL     1      17.629   4.469  48.595  1.00  0.00     0.131 A 
HETATM    6  N1  UNL     1      16.345   4.295  48.906  1.00  0.00    -0.135 NA
HETATM    7  N2  UNL     1      15.903   3.215  48.303  1.00  0.00    -0.143 NA
HETATM    8  C6  UNL     1      16.901   2.668  47.585  1.00  0.00     0.237 A 
HETATM    9  N3  UNL     1      17.996   3.462  47.770  1.00  0.00    -0.308 N 
HETATM   10  C7  UNL     1      19.303   3.286  47.200  1.00  0.00     0.282 C 
HETATM   11  N4  UNL     1      20.238   2.742  48.121  1.00  0.00    -0.265 NA
HETATM   12  C8  UNL     1      20.076   1.749  48.914  1.00  0.00     0.198 C 
HETATM   13  N5  UNL     1      21.275   1.526  49.679  1.00  0.00    -0.381 N 
HETATM   14  C9  UNL     1      21.558   2.637  50.561  1.00  0.00     0.155 C 
HETATM   15  C10 UNL     1      22.786   2.460  51.376  1.00  0.00    -0.054 C 
HETATM   16  C11 UNL     1      22.916   1.168  51.701  1.00  0.00    -0.018 C 
HETATM   17  C12 UNL     1      24.040   0.674  52.510  1.00  0.00     0.054 C 
HETATM   18  C13 UNL     1      24.557   1.707  53.447  1.00  0.00    -0.026 C 
HETATM   19  C14 UNL     1      24.420   2.971  53.108  1.00  0.00    -0.017 C 
HETATM   20  C15 UNL     1      23.771   3.451  51.827  1.00  0.00     0.072 C 
HETATM   21  C16 UNL     1      24.799   3.837  50.842  1.00  0.00    -0.028 A 
HETATM   22  C17 UNL     1      25.974   3.115  50.825  1.00  0.00     0.009 A 
HETATM   23  C18 UNL     1      26.918   3.500  49.907  1.00  0.00     0.001 A 
HETATM   24  C19 UNL     1      26.856   4.521  48.985  1.00  0.00     0.002 A 
HETATM   25  C20 UNL     1      25.673   5.229  49.019  1.00  0.00     0.021 A 
HETATM   26  C21 UNL     1      24.713   4.863  49.929  1.00  0.00     0.025 A 
HETATM   27  C22 UNL     1      23.549   5.615  49.918  1.00  0.00    -0.064 C 
HETATM   28  C23 UNL     1      22.578   6.219  49.903  1.00  0.00    -0.075 C 
HETATM   29  C24 UNL     1      21.371   6.942  49.876  1.00  0.00     0.262 C 
HETATM   30  O1  UNL     1      20.835   6.998  48.566  1.00  0.00    -0.374 OA
HETATM   31  H13 UNL     1      21.729   0.612  49.471  1.00  0.00     0.160 HD
ENDROOT
TORSDOF 0
ENDMDL
MODEL 8
REMARK VINA RESULT:      -7.9      9.879     12.430
REMARK  0 active torsions:
REMARK  status: ('A' for Active; 'I' for Inactive)
ROOT
HETATM    1  C1  UNL     1      34.822   2.769  45.955  1.00  0.00     0.039 C 
HETATM    2  C2  UNL     1      34.581   4.245  45.908  1.00  0.00     0.119 C 
HETATM    3  C3  UNL     1      34.850   4.776  44.493  1.00  0.00     0.039 C 
HETATM    4  C4  UNL     1      34.556   6.239  44.506  1.00  0.00     0.083 C 
HETATM    5  C5  UNL     1      34.749   6.890  43.210  1.00  0.00     0.131 A 
HETATM    6  N1  UNL     1      35.832   7.414  42.636  1.00  0.00    -0.135 NA
HETATM    7  N2  UNL     1      35.500   7.893  41.458  1.00  0.00    -0.143 NA
HETATM    8  C6  UNL     1      34.187   7.684  41.248  1.00  0.00     0.237 A 
HETATM    9  N3  UNL     1      33.710   7.048  42.358  1.00  0.00    -0.308 N 
HETATM   10  C7  UNL     1      32.362   6.613  42.599  1.00  0.00     0.282 C 
HETATM   11  N4  UNL     1      31.651   7.478  43.474  1.00  0.00    -0.265 NA
HETATM   12  C8  UNL     1      31.595   8.757  43.444  1.00  0.00     0.198 C 
HETATM   13  N5  UNL     1      30.761   9.241  44.513  1.00  0.00    -0.381 N 
HETATM   14  C9  UNL     1      31.331   8.945  45.809  1.00  0.00     0.155 C 
HETATM   15  C10 UNL     1      30.510   9.423  46.950  1.00  0.00    -0.054 C 
HETATM   16  C11 UNL     1      29.921  10.576  46.615  1.00  0.00    -0.018 C 
HETATM   17  C12 UNL     1      29.039  11.302  47.541  1.00  0.00     0.054 C 
HETATM   18  C13 UNL     1      29.399  11.065  48.964  1.00  0.00    -0.026 C 
HETATM   19  C14 UNL     1      29.977   9.924  49.273  1.00  0.00    -0.017 C 
HETATM   20  C15 UNL     1      30.303   8.831  48.277  1.00  0.00     0.072 C 
HETATM   21  C16 UNL     1      29.303   7.749  48.354  1.00  0.00    -0.028 A 
HETATM   22  C17 UNL     1      28.000   8.099  48.635  1.00  0.00     0.009 A 
HETATM   23  C18 UNL     1      27.091   7.073  48.711  1.00  0.00     0.001 A 
HETATM   24  C19 UNL     1      27.301   5.724  48.544  1.00  0.00     0.002 A 
HETATM   25  C20 UNL     1      28.611   5.395  48.265  1.00  0.00     0.021 A 
HETATM   26  C21 UNL     1      29.538   6.403  48.183  1.00  0.00     0.025 A 
HETATM   27  C22 UNL     1      30.838   6.010  47.905  1.00  0.00    -0.064 C 
HETATM   28  C23 UNL     1      31.909   5.696  47.657  1.00  0.00    -0.075 C 
HETATM   29  C24 UNL     1      33.226   5.321  47.330  1.00  0.00     0.262 C 
HETATM   30  O1  UNL     1      33.255   4.508  46.170  1.00  0.00    -0.374 OA
HETATM   31  H13 UNL     1      29.899   9.718  44.175  1.00  0.00     0.160 HD
ENDROOT
TORSDOF 0
ENDMDL
MODEL 9
REMARK VINA RESULT:      -7.5      5.347      8.136
REMARK  0 active torsions:
REMARK  status: ('A' for Active; 'I' for Inactive)
ROOT
HETATM    1  C1  UNL     1      25.920  10.681  42.660  1.00  0.00     0.039 C 
HETATM    2  C2  UNL     1      26.343   9.525  43.511  1.00  0.00     0.119 C 
HETATM    3  C3  UNL     1      27.803   9.702  43.948  1.00  0.00     0.039 C 
HETATM    4  C4  UNL     1      28.148   8.540  44.820  1.00  0.00     0.083 C 
HETATM    5  C5  UNL     1      29.516   8.578  45.337  1.00  0.00     0.131 A 
HETATM    6  N1  UNL     1      30.669   8.152  44.820  1.00  0.00    -0.135 NA
HETATM    7  N2  UNL     1      31.636   8.405  45.672  1.00  0.00    -0.143 NA
HETATM    8  C6  UNL     1      31.123   9.003  46.762  1.00  0.00     0.237 A 
HETATM    9  N3  UNL     1      29.779   9.113  46.551  1.00  0.00    -0.308 N 
HETATM   10  C7  UNL     1      28.804   9.691  47.435  1.00  0.00     0.282 C 
HETATM   11  N4  UNL     1      28.048   8.715  48.137  1.00  0.00    -0.265 NA
HETATM   12  C8  UNL     1      28.477   7.670  48.741  1.00  0.00     0.198 C 
HETATM   13  N5  UNL     1      27.376   6.949  49.324  1.00  0.00    -0.381 N 
HETATM   14  C9  UNL     1      26.485   6.427  48.311  1.00  0.00     0.155 C 
HETATM   15  C10 UNL     1      25.330   5.672  48.858  1.00  0.00    -0.054 C 
HETATM   16  C11 UNL     1      25.716   5.011  49.956  1.00  0.00    -0.018 C 
HETATM   17  C12 UNL     1      24.791   4.168  50.727  1.00  0.00     0.054 C 
HETATM   18  C13 UNL     1      23.717   3.587  49.879  1.00  0.00    -0.026 C 
HETATM   19  C14 UNL     1      23.351   4.252  48.804  1.00  0.00    -0.017 C 
HETATM   20  C15 UNL     1      23.949   5.574  48.369  1.00  0.00     0.072 C 
HETATM   21  C16 UNL     1      23.053   6.688  48.730  1.00  0.00    -0.028 A 
HETATM   22  C17 UNL     1      22.332   6.577  49.900  1.00  0.00     0.009 A 
HETATM   23  C18 UNL     1      21.498   7.623  50.209  1.00  0.00     0.001 A 
HETATM   24  C19 UNL     1      21.278   8.785  49.505  1.00  0.00     0.002 A 
HETATM   25  C20 UNL     1      22.009   8.875  48.339  1.00  0.00     0.021 A 
HETATM   26  C21 UNL     1      22.850   7.843  48.008  1.00  0.00     0.025 A 
HETATM   27  C22 UNL     1      23.554   7.989  46.823  1.00  0.00    -0.064 C 
HETATM   28  C23 UNL     1      24.151   8.111  45.857  1.00  0.00    -0.075 C 
HETATM   29  C24 UNL     1      24.909   8.262  44.680  1.00  0.00     0.262 C 
HETATM   30  O1  UNL     1      25.596   9.501  44.667  1.00  0.00    -0.374 OA
HETATM   31  H13 UNL     1      27.409   6.924  50.365  1.00  0.00     0.160 HD
ENDROOT
TORSDOF 0
ENDMDL
