MODEL 1
REMARK VINA RESULT:      -7.4      0.000      0.000
REMARK  4 active torsions:
REMARK  status: ('A' for Active; 'I' for Inactive)
REMARK    1  A    between atoms: C2_2  and  N1_3 
REMARK    2  A    between atoms: C2_2  and  P1_21 
REMARK    3  A    between atoms: N1_3  and  C3_4 
REMARK    4  A    between atoms: C10_14  and  O1_15 
ROOT
HETATM    1  C3  UNL     1      26.339   2.486  51.766  1.00  0.00     0.160 A 
HETATM    2  N2  UNL     1      27.612   2.365  52.264  1.00  0.00    -0.222 NA
HETATM    3  C4  UNL     1      27.881   1.283  53.063  1.00  0.00     0.238 A 
HETATM    4  N3  UNL     1      26.935   0.388  53.339  1.00  0.00    -0.215 NA
HETATM    5  C5  UNL     1      25.676   0.497  52.851  1.00  0.00     0.202 A 
HETATM    6  C6  UNL     1      25.373   1.559  52.054  1.00  0.00     0.129 A 
HETATM    7  N4  UNL     1      24.162   1.878  51.422  1.00  0.00    -0.379 N 
HETATM    8  C7  UNL     1      23.026   1.018  51.160  1.00  0.00     0.161 C 
HETATM    9  C8  UNL     1      22.633   0.255  52.355  1.00  0.00    -0.004 A 
HETATM   10  C9  UNL     1      21.256   0.294  52.490  1.00  0.00     0.048 A 
HETATM   11  C10 UNL     1      20.597  -0.332  53.538  1.00  0.00     0.069 A 
HETATM   12  C12 UNL     1      21.381  -1.006  54.454  1.00  0.00     0.039 A 
HETATM   13  C13 UNL     1      22.753  -1.057  54.332  1.00  0.00     0.040 A 
HETATM   14  C14 UNL     1      23.422  -0.433  53.288  1.00  0.00     0.086 A 
HETATM   15  O2  UNL     1      24.803  -0.540  53.247  1.00  0.00    -0.289 OA
HETATM   16  H5  UNL     1      24.134   2.898  51.119  1.00  0.00     0.160 HD
ENDROOT
BRANCH   1  17
HETATM   17  N1  UNL     1      26.200   3.641  51.014  1.00  0.00    -0.339 N 
HETATM   18  H3  UNL     1      25.968   4.408  51.697  1.00  0.00     0.167 HD
BRANCH  17  19
HETATM   19  C2  UNL     1      26.197   4.350  49.804  1.00  0.00     0.025 C 
HETATM   20  C1  UNL     1      27.212   4.396  48.969  1.00  0.00     0.043 C 
BRANCH  19  21
HETATM   21  P1  UNL     1      24.669   5.272  49.333  1.00  0.00    -0.081 P 
HETATM   22  C15 UNL     1      23.507   5.452  50.752  1.00  0.00     0.047 C 
HETATM   23  H14 UNL     1      24.006   4.558  48.238  1.00  0.00     0.063 HD
ENDBRANCH  19  21
ENDBRANCH  17  19
ENDBRANCH   1  17
BRANCH  11  24
HETATM   24  O1  UNL     1      19.211  -0.296  53.680  1.00  0.00    -0.356 OA
HETATM   25  C11 UNL     1      18.409  -0.461  52.524  1.00  0.00     0.210 C 
ENDBRANCH  11  24
TORSDOF 4
ENDMDL
MODEL 2
REMARK VINA RESULT:      -7.0      2.451      4.000
REMARK  4 active torsions:
REMARK  status: ('A' for Active; 'I' for Inactive)
REMARK    1  A    between atoms: C2_2  and  N1_3 
REMARK    2  A    between atoms: C2_2  and  P1_21 
REMARK    3  A    between atoms: N1_3  and  C3_4 
REMARK    4  A    between atoms: C10_14  and  O1_15 
ROOT
HETATM    1  C3  UNL     1      25.889   0.881  52.076  1.00  0.00     0.160 A 
HETATM    2  N2  UNL     1      26.342   1.935  51.322  1.00  0.00    -0.222 NA
HETATM    3  C4  UNL     1      25.456   2.945  51.046  1.00  0.00     0.238 A 
HETATM    4  N3  UNL     1      24.204   2.895  51.496  1.00  0.00    -0.215 NA
HETATM    5  C5  UNL     1      23.747   1.859  52.241  1.00  0.00     0.202 A 
HETATM    6  C6  UNL     1      24.600   0.839  52.535  1.00  0.00     0.129 A 
HETATM    7  N4  UNL     1      24.372  -0.318  53.294  1.00  0.00    -0.379 N 
HETATM    8  C7  UNL     1      23.307  -0.582  54.240  1.00  0.00     0.161 C 
HETATM    9  C8  UNL     1      21.989  -0.232  53.688  1.00  0.00    -0.004 A 
HETATM   10  C9  UNL     1      21.090  -1.245  53.974  1.00  0.00     0.048 A 
HETATM   11  C10 UNL     1      19.765  -1.196  53.567  1.00  0.00     0.069 A 
HETATM   12  C12 UNL     1      19.373  -0.079  52.855  1.00  0.00     0.039 A 
HETATM   13  C13 UNL     1      20.255   0.939  52.565  1.00  0.00     0.040 A 
HETATM   14  C14 UNL     1      21.582   0.899  52.967  1.00  0.00     0.086 A 
HETATM   15  O2  UNL     1      22.394   1.970  52.630  1.00  0.00    -0.289 OA
HETATM   16  H5  UNL     1      25.109  -1.062  53.107  1.00  0.00     0.160 HD
ENDROOT
BRANCH   1  17
HETATM   17  N1  UNL     1      26.874  -0.079  52.240  1.00  0.00    -0.339 N 
HETATM   18  H3  UNL     1      27.038  -0.497  51.288  1.00  0.00     0.167 HD
BRANCH  17  19
HETATM   19  C2  UNL     1      27.784  -0.813  53.015  1.00  0.00     0.025 C 
HETATM   20  C1  UNL     1      27.986  -2.108  52.896  1.00  0.00     0.043 C 
BRANCH  19  21
HETATM   21  P1  UNL     1      28.783   0.086  54.279  1.00  0.00    -0.081 P 
HETATM   22  C15 UNL     1      28.928   1.883  53.894  1.00  0.00     0.047 C 
HETATM   23  H14 UNL     1      30.118  -0.514  54.341  1.00  0.00     0.063 HD
ENDBRANCH  19  21
ENDBRANCH  17  19
ENDBRANCH   1  17
BRANCH  11  24
HETATM   24  O1  UNL     1      18.855  -2.213  53.851  1.00  0.00    -0.356 OA
HETATM   25  C11 UNL     1      17.543  -2.110  53.327  1.00  0.00     0.210 C 
ENDBRANCH  11  24
TORSDOF 4
ENDMDL
MODEL 3
REMARK VINA RESULT:      -6.7      3.057      6.101
REMARK  4 active torsions:
REMARK  status: ('A' for Active; 'I' for Inactive)
REMARK    1  A    between atoms: C2_2  and  N1_3 
REMARK    2  A    between atoms: C2_2  and  P1_21 
REMARK    3  A    between atoms: N1_3  and  C3_4 
REMARK    4  A    between atoms: C10_14  and  O1_15 
ROOT
HETATM    1  C3  UNL     1      25.069  -0.301  53.133  1.00  0.00     0.160 A 
HETATM    2  N2  UNL     1      26.045  -1.233  53.384  1.00  0.00    -0.222 NA
HETATM    3  C4  UNL     1      27.331  -0.917  53.027  1.00  0.00     0.238 A 
HETATM    4  N3  UNL     1      27.612   0.254  52.458  1.00  0.00    -0.215 NA
HETATM    5  C5  UNL     1      26.656   1.180  52.206  1.00  0.00     0.202 A 
HETATM    6  C6  UNL     1      25.368   0.900  52.547  1.00  0.00     0.129 A 
HETATM    7  N4  UNL     1      24.219   1.693  52.407  1.00  0.00    -0.379 N 
HETATM    8  C7  UNL     1      24.131   3.122  52.189  1.00  0.00     0.161 C 
HETATM    9  C8  UNL     1      25.023   3.564  51.106  1.00  0.00    -0.004 A 
HETATM   10  C9  UNL     1      24.341   4.441  50.280  1.00  0.00     0.048 A 
HETATM   11  C10 UNL     1      24.930   5.016  49.163  1.00  0.00     0.069 A 
HETATM   12  C12 UNL     1      26.242   4.672  48.903  1.00  0.00     0.039 A 
HETATM   13  C13 UNL     1      26.935   3.802  49.717  1.00  0.00     0.040 A 
HETATM   14  C14 UNL     1      26.356   3.223  50.837  1.00  0.00     0.086 A 
HETATM   15  O2  UNL     1      27.132   2.361  51.596  1.00  0.00    -0.289 OA
HETATM   16  H5  UNL     1      23.331   1.113  52.480  1.00  0.00     0.160 HD
ENDROOT
BRANCH   1  17
HETATM   17  N1  UNL     1      23.819  -0.769  53.504  1.00  0.00    -0.339 N 
HETATM   18  H3  UNL     1      23.384  -1.167  52.631  1.00  0.00     0.167 HD
BRANCH  17  19
HETATM   19  C2  UNL     1      22.799  -0.997  54.439  1.00  0.00     0.025 C 
HETATM   20  C1  UNL     1      22.985  -1.542  55.622  1.00  0.00     0.043 C 
BRANCH  19  21
HETATM   21  P1  UNL     1      21.080  -0.489  54.001  1.00  0.00    -0.081 P 
HETATM   22  C15 UNL     1      20.968   0.154  52.277  1.00  0.00     0.047 C 
HETATM   23  H14 UNL     1      20.638   0.543  54.943  1.00  0.00     0.063 HD
ENDBRANCH  19  21
ENDBRANCH  17  19
ENDBRANCH   1  17
BRANCH  11  24
HETATM   24  O1  UNL     1      24.248   5.898  48.327  1.00  0.00    -0.356 OA
HETATM   25  C11 UNL     1      22.846   5.748  48.186  1.00  0.00     0.210 C 
ENDBRANCH  11  24
TORSDOF 4
ENDMDL
MODEL 4
REMARK VINA RESULT:      -6.7      2.819      4.496
REMARK  4 active torsions:
REMARK  status: ('A' for Active; 'I' for Inactive)
REMARK    1  A    between atoms: C2_2  and  N1_3 
REMARK    2  A    between atoms: C2_2  and  P1_21 
REMARK    3  A    between atoms: N1_3  and  C3_4 
REMARK    4  A    between atoms: C10_14  and  O1_15 
ROOT
HETATM    1  C3  UNL     1      24.470   4.457  49.803  1.00  0.00     0.160 A 
HETATM    2  N2  UNL     1      25.281   5.290  49.074  1.00  0.00    -0.222 NA
HETATM    3  C4  UNL     1      26.612   4.968  48.993  1.00  0.00     0.238 A 
HETATM    4  N3  UNL     1      27.090   3.887  49.604  1.00  0.00    -0.215 NA
HETATM    5  C5  UNL     1      26.298   3.058  50.326  1.00  0.00     0.202 A 
HETATM    6  C6  UNL     1      24.971   3.346  50.428  1.00  0.00     0.129 A 
HETATM    7  N4  UNL     1      23.958   2.641  51.095  1.00  0.00    -0.379 N 
HETATM    8  C7  UNL     1      23.967   1.269  51.557  1.00  0.00     0.161 C 
HETATM    9  C8  UNL     1      25.194   0.955  52.306  1.00  0.00    -0.004 A 
HETATM   10  C9  UNL     1      24.864   0.249  53.450  1.00  0.00     0.048 A 
HETATM   11  C10 UNL     1      25.821  -0.176  54.359  1.00  0.00     0.069 A 
HETATM   12  C12 UNL     1      27.136   0.138  54.074  1.00  0.00     0.039 A 
HETATM   13  C13 UNL     1      27.481   0.837  52.937  1.00  0.00     0.040 A 
HETATM   14  C14 UNL     1      26.531   1.267  52.021  1.00  0.00     0.086 A 
HETATM   15  O2  UNL     1      26.973   1.962  50.907  1.00  0.00    -0.289 OA
HETATM   16  H5  UNL     1      23.097   3.247  51.252  1.00  0.00     0.160 HD
ENDROOT
BRANCH   1  17
HETATM   17  N1  UNL     1      23.166   4.924  49.833  1.00  0.00    -0.339 N 
HETATM   18  H3  UNL     1      22.771   4.752  48.872  1.00  0.00     0.167 HD
BRANCH  17  19
HETATM   19  C2  UNL     1      22.069   5.521  50.471  1.00  0.00     0.025 C 
HETATM   20  C1  UNL     1      22.057   6.755  50.927  1.00  0.00     0.043 C 
BRANCH  19  21
HETATM   21  P1  UNL     1      20.529   4.527  50.679  1.00  0.00    -0.081 P 
HETATM   22  C15 UNL     1      20.544   3.550  52.243  1.00  0.00     0.047 C 
HETATM   23  H14 UNL     1      20.391   3.623  49.534  1.00  0.00     0.063 HD
ENDBRANCH  19  21
ENDBRANCH  17  19
ENDBRANCH   1  17
BRANCH  11  24
HETATM   24  O1  UNL     1      25.496  -0.885  55.514  1.00  0.00    -0.356 OA
HETATM   25  C11 UNL     1      24.153  -1.302  55.694  1.00  0.00     0.210 C 
ENDBRANCH  11  24
TORSDOF 4
ENDMDL
MODEL 5
REMARK VINA RESULT:      -6.7      3.600      7.961
REMARK  4 active torsions:
REMARK  status: ('A' for Active; 'I' for Inactive)
REMARK    1  A    between atoms: C2_2  and  N1_3 
REMARK    2  A    between atoms: C2_2  and  P1_21 
REMARK    3  A    between atoms: N1_3  and  C3_4 
REMARK    4  A    between atoms: C10_14  and  O1_15 
ROOT
HETATM    1  C3  UNL     1      24.244   2.965  52.202  1.00  0.00     0.160 A 
HETATM    2  N2  UNL     1      23.065   3.345  52.792  1.00  0.00    -0.222 NA
HETATM    3  C4  UNL     1      22.421   4.441  52.276  1.00  0.00     0.238 A 
HETATM    4  N3  UNL     1      22.930   5.105  51.240  1.00  0.00    -0.215 NA
HETATM    5  C5  UNL     1      24.093   4.738  50.650  1.00  0.00     0.202 A 
HETATM    6  C6  UNL     1      24.759   3.654  51.137  1.00  0.00     0.129 A 
HETATM    7  N4  UNL     1      25.956   3.075  50.691  1.00  0.00    -0.379 N 
HETATM    8  C7  UNL     1      26.622   3.245  49.416  1.00  0.00     0.161 C 
HETATM    9  C8  UNL     1      26.734   4.664  49.045  1.00  0.00    -0.004 A 
HETATM   10  C9  UNL     1      28.011   4.913  48.572  1.00  0.00     0.048 A 
HETATM   11  C10 UNL     1      28.414   6.174  48.156  1.00  0.00     0.069 A 
HETATM   12  C12 UNL     1      27.475   7.185  48.232  1.00  0.00     0.039 A 
HETATM   13  C13 UNL     1      26.200   6.952  48.698  1.00  0.00     0.040 A 
HETATM   14  C14 UNL     1      25.787   5.695  49.117  1.00  0.00     0.086 A 
HETATM   15  O2  UNL     1      24.484   5.557  49.569  1.00  0.00    -0.289 OA
HETATM   16  H5  UNL     1      26.383   2.439  51.429  1.00  0.00     0.160 HD
ENDROOT
BRANCH   1  17
HETATM   17  N1  UNL     1      24.802   1.875  52.849  1.00  0.00    -0.339 N 
HETATM   18  H3  UNL     1      25.612   2.250  53.408  1.00  0.00     0.167 HD
BRANCH  17  19
HETATM   19  C2  UNL     1      24.871   0.510  53.159  1.00  0.00     0.025 C 
HETATM   20  C1  UNL     1      23.825  -0.248  53.412  1.00  0.00     0.043 C 
BRANCH  19  21
HETATM   21  P1  UNL     1      26.531  -0.296  53.206  1.00  0.00    -0.081 P 
HETATM   22  C15 UNL     1      27.504   0.215  54.686  1.00  0.00     0.047 C 
HETATM   23  H14 UNL     1      27.263   0.059  51.988  1.00  0.00     0.063 HD
ENDBRANCH  19  21
ENDBRANCH  17  19
ENDBRANCH   1  17
BRANCH  11  24
HETATM   24  O1  UNL     1      29.698   6.432  47.680  1.00  0.00    -0.356 OA
HETATM   25  C11 UNL     1      30.784   6.341  48.586  1.00  0.00     0.210 C 
ENDBRANCH  11  24
TORSDOF 4
ENDMDL
MODEL 6
REMARK VINA RESULT:      -6.6      4.205      8.863
REMARK  4 active torsions:
REMARK  status: ('A' for Active; 'I' for Inactive)
REMARK    1  A    between atoms: C2_2  and  N1_3 
REMARK    2  A    between atoms: C2_2  and  P1_21 
REMARK    3  A    between atoms: N1_3  and  C3_4 
REMARK    4  A    between atoms: C10_14  and  O1_15 
ROOT
HETATM    1  C3  UNL     1      24.277   5.187  51.072  1.00  0.00     0.160 A 
HETATM    2  N2  UNL     1      23.119   5.900  51.254  1.00  0.00    -0.222 NA
HETATM    3  C4  UNL     1      22.872   6.939  50.393  1.00  0.00     0.238 A 
HETATM    4  N3  UNL     1      23.731   7.237  49.420  1.00  0.00    -0.215 NA
HETATM    5  C5  UNL     1      24.877   6.539  49.233  1.00  0.00     0.202 A 
HETATM    6  C6  UNL     1      25.154   5.501  50.069  1.00  0.00     0.129 A 
HETATM    7  N4  UNL     1      26.253   4.628  50.066  1.00  0.00    -0.379 N 
HETATM    8  C7  UNL     1      27.197   4.369  48.999  1.00  0.00     0.161 C 
HETATM    9  C8  UNL     1      27.712   5.616  48.413  1.00  0.00    -0.004 A 
HETATM   10  C9  UNL     1      29.083   5.515  48.251  1.00  0.00     0.048 A 
HETATM   11  C10 UNL     1      29.845   6.548  47.726  1.00  0.00     0.069 A 
HETATM   12  C12 UNL     1      29.171   7.699  47.366  1.00  0.00     0.039 A 
HETATM   13  C13 UNL     1      27.807   7.815  47.519  1.00  0.00     0.040 A 
HETATM   14  C14 UNL     1      27.035   6.788  48.043  1.00  0.00     0.086 A 
HETATM   15  O2  UNL     1      25.670   6.995  48.157  1.00  0.00    -0.289 OA
HETATM   16  H5  UNL     1      26.352   4.119  50.995  1.00  0.00     0.160 HD
ENDROOT
BRANCH   1  17
HETATM   17  N1  UNL     1      24.416   4.199  52.034  1.00  0.00    -0.339 N 
HETATM   18  H3  UNL     1      24.993   4.622  52.807  1.00  0.00     0.167 HD
BRANCH  17  19
HETATM   19  C2  UNL     1      24.200   2.908  52.536  1.00  0.00     0.025 C 
HETATM   20  C1  UNL     1      23.047   2.276  52.488  1.00  0.00     0.043 C 
BRANCH  19  21
HETATM   21  P1  UNL     1      25.621   2.019  53.307  1.00  0.00    -0.081 P 
HETATM   22  C15 UNL     1      27.091   1.972  52.196  1.00  0.00     0.047 C 
HETATM   23  H14 UNL     1      25.204   0.652  53.631  1.00  0.00     0.063 HD
ENDBRANCH  19  21
ENDBRANCH  17  19
ENDBRANCH   1  17
BRANCH  11  24
HETATM   24  O1  UNL     1      31.226   6.452  47.562  1.00  0.00    -0.356 OA
HETATM   25  C11 UNL     1      31.973   5.739  48.531  1.00  0.00     0.210 C 
ENDBRANCH  11  24
TORSDOF 4
ENDMDL
MODEL 7
REMARK VINA RESULT:      -6.6      5.023      7.432
REMARK  4 active torsions:
REMARK  status: ('A' for Active; 'I' for Inactive)
REMARK    1  A    between atoms: C2_2  and  N1_3 
REMARK    2  A    between atoms: C2_2  and  P1_21 
REMARK    3  A    between atoms: N1_3  and  C3_4 
REMARK    4  A    between atoms: C10_14  and  O1_15 
ROOT
HETATM    1  C3  UNL     1      30.143   7.701  48.614  1.00  0.00     0.160 A 
HETATM    2  N2  UNL     1      31.389   7.264  48.239  1.00  0.00    -0.222 NA
HETATM    3  C4  UNL     1      31.521   5.941  47.898  1.00  0.00     0.238 A 
HETATM    4  N3  UNL     1      30.473   5.120  47.936  1.00  0.00    -0.215 NA
HETATM    5  C5  UNL     1      29.240   5.543  48.304  1.00  0.00     0.202 A 
HETATM    6  C6  UNL     1      29.072   6.850  48.648  1.00  0.00     0.129 A 
HETATM    7  N4  UNL     1      27.905   7.521  49.042  1.00  0.00    -0.379 N 
HETATM    8  C7  UNL     1      26.526   7.114  48.866  1.00  0.00     0.161 C 
HETATM    9  C8  UNL     1      26.312   5.720  49.283  1.00  0.00    -0.004 A 
HETATM   10  C9  UNL     1      25.155   5.640  50.038  1.00  0.00     0.048 A 
HETATM   11  C10 UNL     1      24.704   4.445  50.579  1.00  0.00     0.069 A 
HETATM   12  C12 UNL     1      25.467   3.321  50.330  1.00  0.00     0.039 A 
HETATM   13  C13 UNL     1      26.620   3.383  49.578  1.00  0.00     0.040 A 
HETATM   14  C14 UNL     1      27.080   4.573  49.032  1.00  0.00     0.086 A 
HETATM   15  O2  UNL     1      28.248   4.538  48.289  1.00  0.00    -0.289 OA
HETATM   16  H5  UNL     1      28.127   8.441  49.527  1.00  0.00     0.160 HD
ENDROOT
BRANCH   1  17
HETATM   17  N1  UNL     1      30.166   9.040  48.969  1.00  0.00    -0.339 N 
HETATM   18  H3  UNL     1      30.291   9.064  50.014  1.00  0.00     0.167 HD
BRANCH  17  19
HETATM   19  C2  UNL     1      30.106  10.410  48.674  1.00  0.00     0.025 C 
HETATM   20  C1  UNL     1      31.158  11.168  48.448  1.00  0.00     0.043 C 
BRANCH  19  21
HETATM   21  P1  UNL     1      28.447  11.214  48.582  1.00  0.00    -0.081 P 
HETATM   22  C15 UNL     1      28.535  13.019  48.943  1.00  0.00     0.047 C 
HETATM   23  H14 UNL     1      27.552  10.561  49.541  1.00  0.00     0.063 HD
ENDBRANCH  19  21
ENDBRANCH  17  19
ENDBRANCH   1  17
BRANCH  11  24
HETATM   24  O1  UNL     1      23.541   4.359  51.342  1.00  0.00    -0.356 OA
HETATM   25  C11 UNL     1      23.440   3.325  52.305  1.00  0.00     0.210 C 
ENDBRANCH  11  24
TORSDOF 4
ENDMDL
MODEL 8
REMARK VINA RESULT:      -6.5      3.853      7.079
REMARK  4 active torsions:
REMARK  status: ('A' for Active; 'I' for Inactive)
REMARK    1  A    between atoms: C2_2  and  N1_3 
REMARK    2  A    between atoms: C2_2  and  P1_21 
REMARK    3  A    between atoms: N1_3  and  C3_4 
REMARK    4  A    between atoms: C10_14  and  O1_15 
ROOT
HETATM    1  C3  UNL     1      19.950   1.154  52.508  1.00  0.00     0.160 A 
HETATM    2  N2  UNL     1      19.218   2.277  52.210  1.00  0.00    -0.222 NA
HETATM    3  C4  UNL     1      19.909   3.427  51.925  1.00  0.00     0.238 A 
HETATM    4  N3  UNL     1      21.240   3.445  51.940  1.00  0.00    -0.215 NA
HETATM    5  C5  UNL     1      21.971   2.342  52.232  1.00  0.00     0.202 A 
HETATM    6  C6  UNL     1      21.319   1.182  52.520  1.00  0.00     0.129 A 
HETATM    7  N4  UNL     1      21.846  -0.080  52.831  1.00  0.00    -0.379 N 
HETATM    8  C7  UNL     1      23.186  -0.580  52.602  1.00  0.00     0.161 C 
HETATM    9  C8  UNL     1      24.209   0.374  53.058  1.00  0.00    -0.004 A 
HETATM   10  C9  UNL     1      25.190  -0.306  53.758  1.00  0.00     0.048 A 
HETATM   11  C10 UNL     1      26.282   0.339  54.318  1.00  0.00     0.069 A 
HETATM   12  C12 UNL     1      26.353   1.708  54.148  1.00  0.00     0.039 A 
HETATM   13  C13 UNL     1      25.386   2.400  53.452  1.00  0.00     0.040 A 
HETATM   14  C14 UNL     1      24.289   1.764  52.887  1.00  0.00     0.086 A 
HETATM   15  O2  UNL     1      23.369   2.542  52.204  1.00  0.00    -0.289 OA
HETATM   16  H5  UNL     1      21.120  -0.706  53.293  1.00  0.00     0.160 HD
ENDROOT
BRANCH   1  17
HETATM   17  N1  UNL     1      19.126   0.084  52.814  1.00  0.00    -0.339 N 
HETATM   18  H3  UNL     1      19.622  -0.462  53.566  1.00  0.00     0.167 HD
BRANCH  17  19
HETATM   19  C2  UNL     1      17.963  -0.682  52.651  1.00  0.00     0.025 C 
HETATM   20  C1  UNL     1      17.637  -1.708  53.408  1.00  0.00     0.043 C 
BRANCH  19  21
HETATM   21  P1  UNL     1      16.795  -0.224  51.298  1.00  0.00    -0.081 P 
HETATM   22  C15 UNL     1      15.484  -1.497  51.058  1.00  0.00     0.047 C 
HETATM   23  H14 UNL     1      17.553  -0.057  50.055  1.00  0.00     0.063 HD
ENDBRANCH  19  21
ENDBRANCH  17  19
ENDBRANCH   1  17
BRANCH  11  24
HETATM   24  O1  UNL     1      27.273  -0.341  55.026  1.00  0.00    -0.356 OA
HETATM   25  C11 UNL     1      28.618   0.078  54.873  1.00  0.00     0.210 C 
ENDBRANCH  11  24
TORSDOF 4
ENDMDL
MODEL 9
REMARK VINA RESULT:      -6.5      2.615      5.416
REMARK  4 active torsions:
REMARK  status: ('A' for Active; 'I' for Inactive)
REMARK    1  A    between atoms: C2_2  and  N1_3 
REMARK    2  A    between atoms: C2_2  and  P1_21 
REMARK    3  A    between atoms: N1_3  and  C3_4 
REMARK    4  A    between atoms: C10_14  and  O1_15 
ROOT
HETATM    1  C3  UNL     1      21.821   2.590  51.369  1.00  0.00     0.160 A 
HETATM    2  N2  UNL     1      20.697   1.909  50.973  1.00  0.00    -0.222 NA
HETATM    3  C4  UNL     1      20.617   0.577  51.290  1.00  0.00     0.238 A 
HETATM    4  N3  UNL     1      21.599  -0.024  51.958  1.00  0.00    -0.215 NA
HETATM    5  C5  UNL     1      22.713   0.639  52.354  1.00  0.00     0.202 A 
HETATM    6  C6  UNL     1      22.826   1.963  52.055  1.00  0.00     0.129 A 
HETATM    7  N4  UNL     1      23.860   2.858  52.369  1.00  0.00    -0.379 N 
HETATM    8  C7  UNL     1      24.902   2.720  53.364  1.00  0.00     0.161 C 
HETATM    9  C8  UNL     1      25.559   1.406  53.287  1.00  0.00    -0.004 A 
HETATM   10  C9  UNL     1      26.930   1.573  53.375  1.00  0.00     0.048 A 
HETATM   11  C10 UNL     1      27.811   0.504  53.321  1.00  0.00     0.069 A 
HETATM   12  C12 UNL     1      27.258  -0.754  53.174  1.00  0.00     0.039 A 
HETATM   13  C13 UNL     1      25.895  -0.937  53.088  1.00  0.00     0.040 A 
HETATM   14  C14 UNL     1      25.005   0.126  53.141  1.00  0.00     0.086 A 
HETATM   15  O2  UNL     1      23.651  -0.156  53.047  1.00  0.00    -0.289 OA
HETATM   16  H5  UNL     1      23.819   3.731  51.763  1.00  0.00     0.160 HD
ENDROOT
BRANCH   1  17
HETATM   17  N1  UNL     1      21.786   3.909  50.946  1.00  0.00    -0.339 N 
HETATM   18  H3  UNL     1      21.080   4.394  51.558  1.00  0.00     0.167 HD
BRANCH  17  19
HETATM   19  C2  UNL     1      22.192   4.964  50.118  1.00  0.00     0.025 C 
HETATM   20  C1  UNL     1      22.821   4.810  48.972  1.00  0.00     0.043 C 
BRANCH  19  21
HETATM   21  P1  UNL     1      21.814   6.691  50.649  1.00  0.00    -0.081 P 
HETATM   22  C15 UNL     1      23.309   7.768  50.609  1.00  0.00     0.047 C 
HETATM   23  H14 UNL     1      21.265   6.657  52.007  1.00  0.00     0.063 HD
ENDBRANCH  19  21
ENDBRANCH  17  19
ENDBRANCH   1  17
BRANCH  11  24
HETATM   24  O1  UNL     1      29.193   0.666  53.408  1.00  0.00    -0.356 OA
HETATM   25  C11 UNL     1      29.998  -0.487  53.588  1.00  0.00     0.210 C 
ENDBRANCH  11  24
TORSDOF 4
ENDMDL
