MODEL 1
REMARK VINA RESULT:      -8.1      0.000      0.000
REMARK  3 active torsions:
REMARK  status: ('A' for Active; 'I' for Inactive)
REMARK    1  A    between atoms: C2_2  and  C3_3 
REMARK       I    between atoms: C3_3  and  N1_5 
REMARK    2  A    between atoms: N1_5  and  C4_6 
REMARK    3  A    between atoms: N2_12  and  C10_13 
ROOT
HETATM    1  C4  UNL     1      26.011   0.396  52.738  1.00  0.00     0.037 A 
HETATM    2  C5  UNL     1      24.935  -0.328  53.184  1.00  0.00     0.032 A 
HETATM    3  C6  UNL     1      23.614   0.053  53.095  1.00  0.00     0.036 A 
HETATM    4  C7  UNL     1      23.352   1.286  52.496  1.00  0.00     0.083 A 
HETATM    5  C8  UNL     1      24.396   2.030  52.038  1.00  0.00     0.066 A 
HETATM    6  C9  UNL     1      25.698   1.602  52.155  1.00  0.00     0.061 A 
HETATM    7  N2  UNL     1      24.120   3.246  51.366  1.00  0.00    -0.340 N 
HETATM    8  C16 UNL     1      22.842   3.898  51.451  1.00  0.00     0.176 C 
HETATM    9  C17 UNL     1      21.779   2.990  51.965  1.00  0.00     0.110 C 
HETATM   10  N3  UNL     1      22.007   1.793  52.447  1.00  0.00    -0.261 NA
ENDROOT
BRANCH   7  11
HETATM   11  C10 UNL     1      25.051   3.904  50.519  1.00  0.00     0.036 A 
HETATM   12  C11 UNL     1      26.046   3.346  49.747  1.00  0.00     0.030 A 
HETATM   13  C12 UNL     1      26.901   4.102  48.982  1.00  0.00     0.004 A 
HETATM   14  C13 UNL     1      26.811   5.475  48.944  1.00  0.00     0.019 A 
HETATM   15  C14 UNL     1      25.845   6.110  49.686  1.00  0.00     0.013 A 
HETATM   16 BR1  UNL     1      25.620   8.000  49.715  1.00  0.00    -0.051 Br
HETATM   17  C15 UNL     1      25.019   5.299  50.431  1.00  0.00     0.048 A 
ENDBRANCH   7  11
BRANCH   1  18
HETATM   18  N1  UNL     1      27.368   0.032  52.816  1.00  0.00    -0.327 N 
HETATM   19  C3  UNL     1      28.315   0.282  53.832  1.00  0.00     0.221 C 
HETATM   20  O1  UNL     1      27.956   0.920  54.845  1.00  0.00    -0.273 OA
HETATM   21  H6  UNL     1      27.815  -0.508  52.040  1.00  0.00     0.169 HD
BRANCH  19  22
HETATM   22  C2  UNL     1      29.735  -0.150  53.817  1.00  0.00     0.098 C 
HETATM   23  C1  UNL     1      29.731  -1.614  53.437  1.00  0.00     0.014 C 
ENDBRANCH  19  22
ENDBRANCH   1  18
TORSDOF 3
ENDMDL
MODEL 2
REMARK VINA RESULT:      -8.1      1.261      1.615
REMARK  3 active torsions:
REMARK  status: ('A' for Active; 'I' for Inactive)
REMARK    1  A    between atoms: C2_2  and  C3_3 
REMARK       I    between atoms: C3_3  and  N1_5 
REMARK    2  A    between atoms: N1_5  and  C4_6 
REMARK    3  A    between atoms: N2_12  and  C10_13 
ROOT
HETATM    1  C4  UNL     1      24.848   0.111  53.363  1.00  0.00     0.037 A 
HETATM    2  C5  UNL     1      23.878  -0.714  53.873  1.00  0.00     0.032 A 
HETATM    3  C6  UNL     1      22.520  -0.481  53.838  1.00  0.00     0.036 A 
HETATM    4  C7  UNL     1      22.099   0.701  53.225  1.00  0.00     0.083 A 
HETATM    5  C8  UNL     1      23.034   1.542  52.704  1.00  0.00     0.066 A 
HETATM    6  C9  UNL     1      24.379   1.261  52.770  1.00  0.00     0.061 A 
HETATM    7  N2  UNL     1      22.598   2.703  52.021  1.00  0.00    -0.340 N 
HETATM    8  C16 UNL     1      21.261   3.214  52.150  1.00  0.00     0.176 C 
HETATM    9  C17 UNL     1      20.328   2.210  52.732  1.00  0.00     0.110 C 
HETATM   10  N3  UNL     1      20.706   1.058  53.228  1.00  0.00    -0.261 NA
ENDROOT
BRANCH   7  11
HETATM   11  C10 UNL     1      23.413   3.436  51.118  1.00  0.00     0.036 A 
HETATM   12  C11 UNL     1      24.216   2.953  50.107  1.00  0.00     0.030 A 
HETATM   13  C12 UNL     1      24.978   3.775  49.312  1.00  0.00     0.004 A 
HETATM   14  C13 UNL     1      24.983   5.141  49.482  1.00  0.00     0.019 A 
HETATM   15  C14 UNL     1      24.209   5.702  50.468  1.00  0.00     0.013 A 
HETATM   16 BR1  UNL     1      24.131   7.575  50.800  1.00  0.00    -0.051 Br
HETATM   17  C15 UNL     1      23.468   4.828  51.232  1.00  0.00     0.048 A 
ENDBRANCH   7  11
BRANCH   1  18
HETATM   18  N1  UNL     1      26.238  -0.101  53.386  1.00  0.00    -0.327 N 
HETATM   19  C3  UNL     1      27.204   0.330  54.321  1.00  0.00     0.221 C 
HETATM   20  O1  UNL     1      26.831   1.007  55.303  1.00  0.00    -0.273 OA
HETATM   21  H6  UNL     1      26.701  -0.653  52.628  1.00  0.00     0.169 HD
BRANCH  19  22
HETATM   22  C2  UNL     1      28.660   0.049  54.253  1.00  0.00     0.098 C 
HETATM   23  C1  UNL     1      28.826  -1.111  53.295  1.00  0.00     0.014 C 
ENDBRANCH  19  22
ENDBRANCH   1  18
TORSDOF 3
ENDMDL
MODEL 3
REMARK VINA RESULT:      -8.1      3.055      5.245
REMARK  3 active torsions:
REMARK  status: ('A' for Active; 'I' for Inactive)
REMARK    1  A    between atoms: C2_2  and  C3_3 
REMARK       I    between atoms: C3_3  and  N1_5 
REMARK    2  A    between atoms: N1_5  and  C4_6 
REMARK    3  A    between atoms: N2_12  and  C10_13 
ROOT
HETATM    1  C4  UNL     1      26.410   1.469  51.949  1.00  0.00     0.037 A 
HETATM    2  C5  UNL     1      26.668   2.557  51.155  1.00  0.00     0.032 A 
HETATM    3  C6  UNL     1      25.738   3.258  50.419  1.00  0.00     0.036 A 
HETATM    4  C7  UNL     1      24.415   2.819  50.492  1.00  0.00     0.083 A 
HETATM    5  C8  UNL     1      24.121   1.744  51.275  1.00  0.00     0.066 A 
HETATM    6  C9  UNL     1      25.091   1.079  51.988  1.00  0.00     0.061 A 
HETATM    7  N2  UNL     1      22.767   1.348  51.403  1.00  0.00    -0.340 N 
HETATM    8  C16 UNL     1      21.747   1.790  50.492  1.00  0.00     0.176 C 
HETATM    9  C17 UNL     1      22.181   2.967  49.689  1.00  0.00     0.110 C 
HETATM   10  N3  UNL     1      23.402   3.442  49.683  1.00  0.00    -0.261 NA
ENDROOT
BRANCH   7  11
HETATM   11  C10 UNL     1      22.286   0.525  52.455  1.00  0.00     0.036 A 
HETATM   12  C11 UNL     1      22.987   0.004  53.522  1.00  0.00     0.030 A 
HETATM   13  C12 UNL     1      22.403  -0.803  54.467  1.00  0.00     0.004 A 
HETATM   14  C13 UNL     1      21.071  -1.141  54.403  1.00  0.00     0.019 A 
HETATM   15  C14 UNL     1      20.301  -0.663  53.371  1.00  0.00     0.013 A 
HETATM   16 BR1  UNL     1      18.449  -1.060  53.173  1.00  0.00    -0.051 Br
HETATM   17  C15 UNL     1      20.942   0.140  52.455  1.00  0.00     0.048 A 
ENDBRANCH   7  11
BRANCH   1  18
HETATM   18  N1  UNL     1      27.338   0.736  52.710  1.00  0.00    -0.327 N 
HETATM   19  C3  UNL     1      28.132   1.142  53.805  1.00  0.00     0.221 C 
HETATM   20  O1  UNL     1      28.042   2.321  54.209  1.00  0.00    -0.273 OA
HETATM   21  H6  UNL     1      27.524  -0.269  52.492  1.00  0.00     0.169 HD
BRANCH  19  22
HETATM   22  C2  UNL     1      29.089   0.282  54.546  1.00  0.00     0.098 C 
HETATM   23  C1  UNL     1      29.816  -0.541  53.505  1.00  0.00     0.014 C 
ENDBRANCH  19  22
ENDBRANCH   1  18
TORSDOF 3
ENDMDL
MODEL 4
REMARK VINA RESULT:      -8.0      3.481      6.146
REMARK  3 active torsions:
REMARK  status: ('A' for Active; 'I' for Inactive)
REMARK    1  A    between atoms: C2_2  and  C3_3 
REMARK       I    between atoms: C3_3  and  N1_5 
REMARK    2  A    between atoms: N1_5  and  C4_6 
REMARK    3  A    between atoms: N2_12  and  C10_13 
ROOT
HETATM    1  C4  UNL     1      26.330   4.008  49.611  1.00  0.00     0.037 A 
HETATM    2  C5  UNL     1      25.041   4.436  49.425  1.00  0.00     0.032 A 
HETATM    3  C6  UNL     1      23.933   3.978  50.105  1.00  0.00     0.036 A 
HETATM    4  C7  UNL     1      24.148   2.991  51.069  1.00  0.00     0.083 A 
HETATM    5  C8  UNL     1      25.417   2.545  51.282  1.00  0.00     0.066 A 
HETATM    6  C9  UNL     1      26.487   3.036  50.572  1.00  0.00     0.061 A 
HETATM    7  N2  UNL     1      25.639   1.597  52.310  1.00  0.00    -0.340 N 
HETATM    8  C16 UNL     1      24.572   0.831  52.894  1.00  0.00     0.176 C 
HETATM    9  C17 UNL     1      23.233   1.411  52.593  1.00  0.00     0.110 C 
HETATM   10  N3  UNL     1      23.032   2.399  51.756  1.00  0.00    -0.261 NA
ENDROOT
BRANCH   7  11
HETATM   11  C10 UNL     1      26.912   1.348  52.888  1.00  0.00     0.036 A 
HETATM   12  C11 UNL     1      27.768   2.247  53.488  1.00  0.00     0.030 A 
HETATM   13  C12 UNL     1      28.992   1.879  53.993  1.00  0.00     0.004 A 
HETATM   14  C13 UNL     1      29.437   0.579  53.926  1.00  0.00     0.019 A 
HETATM   15  C14 UNL     1      28.643  -0.379  53.344  1.00  0.00     0.013 A 
HETATM   16 BR1  UNL     1      29.148  -2.209  53.193  1.00  0.00    -0.051 Br
HETATM   17  C15 UNL     1      27.429   0.051  52.857  1.00  0.00     0.048 A 
ENDBRANCH   7  11
BRANCH   1  18
HETATM   18  N1  UNL     1      27.478   4.458  48.932  1.00  0.00    -0.327 N 
HETATM   19  C3  UNL     1      27.864   5.769  48.578  1.00  0.00     0.221 C 
HETATM   20  O1  UNL     1      27.116   6.720  48.887  1.00  0.00    -0.273 OA
HETATM   21  H6  UNL     1      28.201   3.776  48.608  1.00  0.00     0.169 HD
BRANCH  19  22
HETATM   22  C2  UNL     1      29.107   6.139  47.856  1.00  0.00     0.098 C 
HETATM   23  C1  UNL     1      29.321   7.616  48.107  1.00  0.00     0.014 C 
ENDBRANCH  19  22
ENDBRANCH   1  18
TORSDOF 3
ENDMDL
MODEL 5
REMARK VINA RESULT:      -8.0      2.772      5.334
REMARK  3 active torsions:
REMARK  status: ('A' for Active; 'I' for Inactive)
REMARK    1  A    between atoms: C2_2  and  C3_3 
REMARK       I    between atoms: C3_3  and  N1_5 
REMARK    2  A    between atoms: N1_5  and  C4_6 
REMARK    3  A    between atoms: N2_12  and  C10_13 
ROOT
HETATM    1  C4  UNL     1      22.984  -0.592  53.556  1.00  0.00     0.037 A 
HETATM    2  C5  UNL     1      23.341  -1.204  54.730  1.00  0.00     0.032 A 
HETATM    3  C6  UNL     1      24.579  -1.132  55.333  1.00  0.00     0.036 A 
HETATM    4  C7  UNL     1      25.551  -0.365  54.687  1.00  0.00     0.083 A 
HETATM    5  C8  UNL     1      25.229   0.260  53.521  1.00  0.00     0.066 A 
HETATM    6  C9  UNL     1      23.977   0.152  52.962  1.00  0.00     0.061 A 
HETATM    7  N2  UNL     1      26.196   1.094  52.909  1.00  0.00    -0.340 N 
HETATM    8  C16 UNL     1      27.589   1.039  53.257  1.00  0.00     0.176 C 
HETATM    9  C17 UNL     1      27.821   0.332  54.547  1.00  0.00     0.110 C 
HETATM   10  N3  UNL     1      26.891  -0.315  55.206  1.00  0.00    -0.261 NA
ENDROOT
BRANCH   7  11
HETATM   11  C10 UNL     1      25.880   2.083  51.940  1.00  0.00     0.036 A 
HETATM   12  C11 UNL     1      26.521   2.345  50.748  1.00  0.00     0.030 A 
HETATM   13  C12 UNL     1      26.125   3.354  49.903  1.00  0.00     0.004 A 
HETATM   14  C13 UNL     1      25.056   4.167  50.202  1.00  0.00     0.019 A 
HETATM   15  C14 UNL     1      24.363   3.971  51.372  1.00  0.00     0.013 A 
HETATM   16 BR1  UNL     1      22.869   5.029  51.895  1.00  0.00    -0.051 Br
HETATM   17  C15 UNL     1      24.807   2.946  52.177  1.00  0.00     0.048 A 
ENDBRANCH   7  11
BRANCH   1  18
HETATM   18  N1  UNL     1      21.730  -0.648  52.919  1.00  0.00    -0.327 N 
HETATM   19  C3  UNL     1      20.503  -0.052  53.282  1.00  0.00     0.221 C 
HETATM   20  O1  UNL     1      20.457   0.647  54.317  1.00  0.00    -0.273 OA
HETATM   21  H6  UNL     1      21.609  -1.197  52.037  1.00  0.00     0.169 HD
BRANCH  19  22
HETATM   22  C2  UNL     1      19.227  -0.174  52.535  1.00  0.00     0.098 C 
HETATM   23  C1  UNL     1      18.419  -1.239  53.243  1.00  0.00     0.014 C 
ENDBRANCH  19  22
ENDBRANCH   1  18
TORSDOF 3
ENDMDL
MODEL 6
REMARK VINA RESULT:      -7.6      2.783      5.782
REMARK  3 active torsions:
REMARK  status: ('A' for Active; 'I' for Inactive)
REMARK    1  A    between atoms: C2_2  and  C3_3 
REMARK       I    between atoms: C3_3  and  N1_5 
REMARK    2  A    between atoms: N1_5  and  C4_6 
REMARK    3  A    between atoms: N2_12  and  C10_13 
ROOT
HETATM    1  C4  UNL     1      25.702   2.460  52.146  1.00  0.00     0.037 A 
HETATM    2  C5  UNL     1      26.821   1.887  52.693  1.00  0.00     0.032 A 
HETATM    3  C6  UNL     1      26.841   0.791  53.529  1.00  0.00     0.036 A 
HETATM    4  C7  UNL     1      25.608   0.216  53.843  1.00  0.00     0.083 A 
HETATM    5  C8  UNL     1      24.475   0.757  53.315  1.00  0.00     0.066 A 
HETATM    6  C9  UNL     1      24.514   1.855  52.486  1.00  0.00     0.061 A 
HETATM    7  N2  UNL     1      23.235   0.127  53.578  1.00  0.00    -0.340 N 
HETATM    8  C16 UNL     1      23.068  -0.827  54.640  1.00  0.00     0.176 C 
HETATM    9  C17 UNL     1      24.371  -1.348  55.139  1.00  0.00     0.110 C 
HETATM   10  N3  UNL     1      25.538  -0.873  54.780  1.00  0.00    -0.261 NA
ENDROOT
BRANCH   7  11
HETATM   11  C10 UNL     1      22.065   0.339  52.801  1.00  0.00     0.036 A 
HETATM   12  C11 UNL     1      20.749   0.285  53.208  1.00  0.00     0.030 A 
HETATM   13  C12 UNL     1      19.700   0.490  52.345  1.00  0.00     0.004 A 
HETATM   14  C13 UNL     1      19.906   0.763  51.011  1.00  0.00     0.019 A 
HETATM   15  C14 UNL     1      21.189   0.834  50.526  1.00  0.00     0.013 A 
HETATM   16 BR1  UNL     1      21.601   1.203  48.704  1.00  0.00    -0.051 Br
HETATM   17  C15 UNL     1      22.198   0.620  51.439  1.00  0.00     0.048 A 
ENDBRANCH   7  11
BRANCH   1  18
HETATM   18  N1  UNL     1      25.654   3.576  51.291  1.00  0.00    -0.327 N 
HETATM   19  C3  UNL     1      26.233   3.767  50.018  1.00  0.00     0.221 C 
HETATM   20  O1  UNL     1      26.904   2.838  49.517  1.00  0.00    -0.273 OA
HETATM   21  H6  UNL     1      25.128   4.435  51.572  1.00  0.00     0.169 HD
BRANCH  19  22
HETATM   22  C2  UNL     1      26.121   4.994  49.191  1.00  0.00     0.098 C 
HETATM   23  C1  UNL     1      27.487   5.226  48.584  1.00  0.00     0.014 C 
ENDBRANCH  19  22
ENDBRANCH   1  18
TORSDOF 3
ENDMDL
MODEL 7
REMARK VINA RESULT:      -7.5      3.353      5.916
REMARK  3 active torsions:
REMARK  status: ('A' for Active; 'I' for Inactive)
REMARK    1  A    between atoms: C2_2  and  C3_3 
REMARK       I    between atoms: C3_3  and  N1_5 
REMARK    2  A    between atoms: N1_5  and  C4_6 
REMARK    3  A    between atoms: N2_12  and  C10_13 
ROOT
HETATM    1  C4  UNL     1      24.631   1.657  51.631  1.00  0.00     0.037 A 
HETATM    2  C5  UNL     1      25.381   0.667  52.212  1.00  0.00     0.032 A 
HETATM    3  C6  UNL     1      24.934  -0.243  53.145  1.00  0.00     0.036 A 
HETATM    4  C7  UNL     1      23.594  -0.146  53.528  1.00  0.00     0.083 A 
HETATM    5  C8  UNL     1      22.818   0.822  52.968  1.00  0.00     0.066 A 
HETATM    6  C9  UNL     1      23.318   1.708  52.042  1.00  0.00     0.061 A 
HETATM    7  N2  UNL     1      21.444   0.870  53.306  1.00  0.00    -0.340 N 
HETATM    8  C16 UNL     1      20.910   0.189  54.453  1.00  0.00     0.176 C 
HETATM    9  C17 UNL     1      21.845  -0.845  54.980  1.00  0.00     0.110 C 
HETATM   10  N3  UNL     1      23.077  -1.001  54.562  1.00  0.00    -0.261 NA
ENDROOT
BRANCH   7  11
HETATM   11  C10 UNL     1      20.467   1.548  52.530  1.00  0.00     0.036 A 
HETATM   12  C11 UNL     1      20.294   2.907  52.372  1.00  0.00     0.030 A 
HETATM   13  C12 UNL     1      19.287   3.439  51.603  1.00  0.00     0.004 A 
HETATM   14  C13 UNL     1      18.386   2.638  50.941  1.00  0.00     0.019 A 
HETATM   15  C14 UNL     1      18.490   1.273  51.046  1.00  0.00     0.013 A 
HETATM   16 BR1  UNL     1      17.304   0.062  50.177  1.00  0.00    -0.051 Br
HETATM   17  C15 UNL     1      19.518   0.799  51.829  1.00  0.00     0.048 A 
ENDBRANCH   7  11
BRANCH   1  18
HETATM   18  N1  UNL     1      25.061   2.598  50.678  1.00  0.00    -0.327 N 
HETATM   19  C3  UNL     1      26.334   3.181  50.493  1.00  0.00     0.221 C 
HETATM   20  O1  UNL     1      27.263   2.853  51.261  1.00  0.00    -0.273 OA
HETATM   21  H6  UNL     1      24.395   2.970  49.964  1.00  0.00     0.169 HD
BRANCH  19  22
HETATM   22  C2  UNL     1      26.687   4.173  49.448  1.00  0.00     0.098 C 
HETATM   23  C1  UNL     1      25.430   4.968  49.172  1.00  0.00     0.014 C 
ENDBRANCH  19  22
ENDBRANCH   1  18
TORSDOF 3
ENDMDL
MODEL 8
REMARK VINA RESULT:      -7.5      3.647      6.199
REMARK  3 active torsions:
REMARK  status: ('A' for Active; 'I' for Inactive)
REMARK    1  A    between atoms: C2_2  and  C3_3 
REMARK       I    between atoms: C3_3  and  N1_5 
REMARK    2  A    between atoms: N1_5  and  C4_6 
REMARK    3  A    between atoms: N2_12  and  C10_13 
ROOT
HETATM    1  C4  UNL     1      25.649   1.378  52.108  1.00  0.00     0.037 A 
HETATM    2  C5  UNL     1      26.616   0.781  52.876  1.00  0.00     0.032 A 
HETATM    3  C6  UNL     1      26.394  -0.108  53.906  1.00  0.00     0.036 A 
HETATM    4  C7  UNL     1      25.064  -0.429  54.187  1.00  0.00     0.083 A 
HETATM    5  C8  UNL     1      24.078   0.142  53.441  1.00  0.00     0.066 A 
HETATM    6  C9  UNL     1      24.356   1.027  52.426  1.00  0.00     0.061 A 
HETATM    7  N2  UNL     1      22.737  -0.241  53.683  1.00  0.00    -0.340 N 
HETATM    8  C16 UNL     1      22.335  -0.921  54.884  1.00  0.00     0.176 C 
HETATM    9  C17 UNL     1      23.495  -1.502  55.616  1.00  0.00     0.110 C 
HETATM   10  N3  UNL     1      24.748  -1.278  55.303  1.00  0.00    -0.261 NA
ENDROOT
BRANCH   7  11
HETATM   11  C10 UNL     1      21.681  -0.036  52.755  1.00  0.00     0.036 A 
HETATM   12  C11 UNL     1      21.734   0.584  51.525  1.00  0.00     0.030 A 
HETATM   13  C12 UNL     1      20.627   0.739  50.726  1.00  0.00     0.004 A 
HETATM   14  C13 UNL     1      19.389   0.279  51.114  1.00  0.00     0.019 A 
HETATM   15  C14 UNL     1      19.251  -0.351  52.326  1.00  0.00     0.013 A 
HETATM   16 BR1  UNL     1      17.593  -1.030  52.971  1.00  0.00    -0.051 Br
HETATM   17  C15 UNL     1      20.396  -0.476  53.081  1.00  0.00     0.048 A 
ENDBRANCH   7  11
BRANCH   1  18
HETATM   18  N1  UNL     1      25.846   2.287  51.054  1.00  0.00    -0.327 N 
HETATM   19  C3  UNL     1      25.244   3.542  50.816  1.00  0.00     0.221 C 
HETATM   20  O1  UNL     1      24.398   3.967  51.632  1.00  0.00    -0.273 OA
HETATM   21  H6  UNL     1      26.527   2.072  50.290  1.00  0.00     0.169 HD
BRANCH  19  22
HETATM   22  C2  UNL     1      25.526   4.433  49.662  1.00  0.00     0.098 C 
HETATM   23  C1  UNL     1      26.932   4.109  49.207  1.00  0.00     0.014 C 
ENDBRANCH  19  22
ENDBRANCH   1  18
TORSDOF 3
ENDMDL
MODEL 9
REMARK VINA RESULT:      -7.4      3.168      6.937
REMARK  3 active torsions:
REMARK  status: ('A' for Active; 'I' for Inactive)
REMARK    1  A    between atoms: C2_2  and  C3_3 
REMARK       I    between atoms: C3_3  and  N1_5 
REMARK    2  A    between atoms: N1_5  and  C4_6 
REMARK    3  A    between atoms: N2_12  and  C10_13 
ROOT
HETATM    1  C4  UNL     1      24.260   3.230  51.144  1.00  0.00     0.037 A 
HETATM    2  C5  UNL     1      25.537   3.233  50.643  1.00  0.00     0.032 A 
HETATM    3  C6  UNL     1      26.522   2.317  50.940  1.00  0.00     0.036 A 
HETATM    4  C7  UNL     1      26.185   1.294  51.829  1.00  0.00     0.083 A 
HETATM    5  C8  UNL     1      24.925   1.257  52.342  1.00  0.00     0.066 A 
HETATM    6  C9  UNL     1      23.979   2.200  52.013  1.00  0.00     0.061 A 
HETATM    7  N2  UNL     1      24.567   0.177  53.185  1.00  0.00    -0.340 N 
HETATM    8  C16 UNL     1      25.546  -0.676  53.800  1.00  0.00     0.176 C 
HETATM    9  C17 UNL     1      26.885  -0.550  53.159  1.00  0.00     0.110 C 
HETATM   10  N3  UNL     1      27.185   0.352  52.257  1.00  0.00    -0.261 NA
ENDROOT
BRANCH   7  11
HETATM   11  C10 UNL     1      23.224  -0.191  53.463  1.00  0.00     0.036 A 
HETATM   12  C11 UNL     1      22.739  -0.908  54.537  1.00  0.00     0.030 A 
HETATM   13  C12 UNL     1      21.409  -1.218  54.678  1.00  0.00     0.004 A 
HETATM   14  C13 UNL     1      20.474  -0.828  53.746  1.00  0.00     0.019 A 
HETATM   15  C14 UNL     1      20.875  -0.110  52.646  1.00  0.00     0.013 A 
HETATM   16 BR1  UNL     1      19.678   0.485  51.290  1.00  0.00    -0.051 Br
HETATM   17  C15 UNL     1      22.220   0.170  52.560  1.00  0.00     0.048 A 
ENDBRANCH   7  11
BRANCH   1  18
HETATM   18  N1  UNL     1      23.236   4.151  50.858  1.00  0.00    -0.327 N 
HETATM   19  C3  UNL     1      23.100   5.502  51.246  1.00  0.00     0.221 C 
HETATM   20  O1  UNL     1      23.994   6.018  51.950  1.00  0.00    -0.273 OA
HETATM   21  H6  UNL     1      22.415   3.866  50.277  1.00  0.00     0.169 HD
BRANCH  19  22
HETATM   22  C2  UNL     1      21.971   6.396  50.888  1.00  0.00     0.098 C 
HETATM   23  C1  UNL     1      20.805   5.493  50.546  1.00  0.00     0.014 C 
ENDBRANCH  19  22
ENDBRANCH   1  18
TORSDOF 3
ENDMDL
