MODEL 1
REMARK VINA RESULT:      -8.8      0.000      0.000
REMARK  6 active torsions:
REMARK  status: ('A' for Active; 'I' for Inactive)
REMARK    1  A    between atoms: C2_2  and  C3_3 
REMARK       I    between atoms: C3_3  and  N1_5 
REMARK    2  A    between atoms: C10_15  and  N4_16 
REMARK    3  A    between atoms: N4_16  and  C11_17 
REMARK    4  A    between atoms: C11_17  and  C12_18 
REMARK    5  A    between atoms: C11_17  and  C13_20 
REMARK    6  A    between atoms: C12_18  and  O2_19 
ROOT
HETATM    1  C3  UNL     1      28.347   0.434  54.116  1.00  0.00     0.223 C 
HETATM    2  O1  UNL     1      29.143   1.260  54.631  1.00  0.00    -0.273 OA
HETATM    3  N1  UNL     1      27.065   0.875  53.774  1.00  0.00    -0.324 N 
HETATM    4  C4  UNL     1      26.421   2.151  53.892  1.00  0.00     0.135 C 
HETATM    5  C5  UNL     1      25.802   2.514  52.560  1.00  0.00     0.061 C 
HETATM    6  C6  UNL     1      24.358   2.216  52.515  1.00  0.00    -0.020 A 
HETATM    7  C7  UNL     1      24.363   0.799  52.757  1.00  0.00     0.037 A 
HETATM    8  S1  UNL     1      22.615   0.331  52.723  1.00  0.00    -0.067 SA
HETATM    9  C8  UNL     1      21.995   1.985  52.402  1.00  0.00     0.114 A 
HETATM   10  N2  UNL     1      20.757   2.469  52.242  1.00  0.00    -0.234 NA
HETATM   11  C9  UNL     1      20.510   3.765  52.008  1.00  0.00     0.236 A 
HETATM   12  N3  UNL     1      21.608   4.507  51.953  1.00  0.00    -0.224 NA
HETATM   13  C10 UNL     1      22.873   4.118  52.099  1.00  0.00     0.139 A 
HETATM   14  C19 UNL     1      23.138   2.796  52.338  1.00  0.00     0.053 A 
HETATM   15  P1  UNL     1      25.832  -0.231  53.031  1.00  0.00     0.018 P 
HETATM   16  H21 UNL     1      26.342  -0.801  51.797  1.00  0.00     0.086 HD
ENDROOT
BRANCH  13  17
HETATM   17  N4  UNL     1      23.849   5.141  51.981  1.00  0.00    -0.363 N 
HETATM   18  H11 UNL     1      24.566   5.613  52.539  1.00  0.00     0.162 HD
BRANCH  17  19
HETATM   19  C11 UNL     1      24.016   5.875  50.715  1.00  0.00     0.140 C 
BRANCH  19  20
HETATM   20  C12 UNL     1      23.656   7.322  50.842  1.00  0.00     0.194 C 
BRANCH  20  21
HETATM   21  O2  UNL     1      22.313   7.460  51.172  1.00  0.00    -0.399 OA
HETATM   22  H15 UNL     1      21.765   6.825  50.638  1.00  0.00     0.209 HD
ENDBRANCH  20  21
ENDBRANCH  19  20
BRANCH  19  23
HETATM   23  C13 UNL     1      25.241   5.572  49.992  1.00  0.00    -0.034 A 
HETATM   24  C14 UNL     1      25.800   6.725  49.457  1.00  0.00     0.009 A 
HETATM   25  C15 UNL     1      26.984   6.675  48.711  1.00  0.00     0.001 A 
HETATM   26  C16 UNL     1      27.603   5.463  48.506  1.00  0.00     0.000 A 
HETATM   27  C17 UNL     1      27.071   4.317  49.021  1.00  0.00     0.001 A 
HETATM   28  C18 UNL     1      25.913   4.399  49.745  1.00  0.00     0.009 A 
ENDBRANCH  19  23
ENDBRANCH  17  19
ENDBRANCH  13  17
BRANCH   1  29
HETATM   29  C2  UNL     1      28.694  -0.971  53.858  1.00  0.00     0.099 C 
HETATM   30  C1  UNL     1      30.200  -1.195  53.731  1.00  0.00     0.014 C 
ENDBRANCH   1  29
TORSDOF 6
ENDMDL
MODEL 2
REMARK VINA RESULT:      -8.5      1.223      1.560
REMARK  6 active torsions:
REMARK  status: ('A' for Active; 'I' for Inactive)
REMARK    1  A    between atoms: C2_2  and  C3_3 
REMARK       I    between atoms: C3_3  and  N1_5 
REMARK    2  A    between atoms: C10_15  and  N4_16 
REMARK    3  A    between atoms: N4_16  and  C11_17 
REMARK    4  A    between atoms: C11_17  and  C12_18 
REMARK    5  A    between atoms: C11_17  and  C13_20 
REMARK    6  A    between atoms: C12_18  and  O2_19 
ROOT
HETATM    1  C3  UNL     1      28.369   0.852  54.349  1.00  0.00     0.223 C 
HETATM    2  O1  UNL     1      29.060   1.879  54.569  1.00  0.00    -0.273 OA
HETATM    3  N1  UNL     1      27.016   1.020  54.036  1.00  0.00    -0.324 N 
HETATM    4  C4  UNL     1      26.194   2.187  53.903  1.00  0.00     0.135 C 
HETATM    5  C5  UNL     1      25.448   2.116  52.589  1.00  0.00     0.061 C 
HETATM    6  C6  UNL     1      24.066   1.629  52.758  1.00  0.00    -0.020 A 
HETATM    7  C7  UNL     1      24.300   0.333  53.333  1.00  0.00     0.037 A 
HETATM    8  S1  UNL     1      22.645  -0.355  53.582  1.00  0.00    -0.067 SA
HETATM    9  C8  UNL     1      21.763   1.067  52.932  1.00  0.00     0.114 A 
HETATM   10  N2  UNL     1      20.458   1.327  52.780  1.00  0.00    -0.234 NA
HETATM   11  C9  UNL     1      20.003   2.478  52.265  1.00  0.00     0.236 A 
HETATM   12  N3  UNL     1      20.971   3.319  51.926  1.00  0.00    -0.224 NA
HETATM   13  C10 UNL     1      22.286   3.150  52.039  1.00  0.00     0.139 A 
HETATM   14  C19 UNL     1      22.763   1.979  52.564  1.00  0.00     0.053 A 
HETATM   15  P1  UNL     1      25.922  -0.392  53.705  1.00  0.00     0.018 P 
HETATM   16  H21 UNL     1      26.437  -1.183  52.603  1.00  0.00     0.086 HD
ENDROOT
BRANCH  13  17
HETATM   17  N4  UNL     1      23.087   4.229  51.584  1.00  0.00    -0.363 N 
HETATM   18  H11 UNL     1      23.676   4.983  51.950  1.00  0.00     0.162 HD
BRANCH  17  19
HETATM   19  C11 UNL     1      23.220   4.508  50.143  1.00  0.00     0.140 C 
BRANCH  19  20
HETATM   20  C12 UNL     1      22.207   5.497  49.657  1.00  0.00     0.194 C 
BRANCH  20  21
HETATM   21  O2  UNL     1      21.039   4.846  49.276  1.00  0.00    -0.399 OA
HETATM   22  H15 UNL     1      21.248   4.126  48.623  1.00  0.00     0.209 HD
ENDBRANCH  20  21
ENDBRANCH  19  20
BRANCH  19  23
HETATM   23  C13 UNL     1      24.586   4.698  49.682  1.00  0.00    -0.034 A 
HETATM   24  C14 UNL     1      25.289   3.502  49.703  1.00  0.00     0.009 A 
HETATM   25  C15 UNL     1      26.631   3.444  49.307  1.00  0.00     0.001 A 
HETATM   26  C16 UNL     1      27.262   4.593  48.888  1.00  0.00     0.000 A 
HETATM   27  C17 UNL     1      26.590   5.781  48.860  1.00  0.00     0.001 A 
HETATM   28  C18 UNL     1      25.280   5.804  49.254  1.00  0.00     0.009 A 
ENDBRANCH  19  23
ENDBRANCH  17  19
ENDBRANCH  13  17
BRANCH   1  29
HETATM   29  C2  UNL     1      28.908  -0.514  54.406  1.00  0.00     0.099 C 
HETATM   30  C1  UNL     1      30.098  -0.720  53.470  1.00  0.00     0.014 C 
ENDBRANCH   1  29
TORSDOF 6
ENDMDL
MODEL 3
REMARK VINA RESULT:      -8.3      2.684      6.443
REMARK  6 active torsions:
REMARK  status: ('A' for Active; 'I' for Inactive)
REMARK    1  A    between atoms: C2_2  and  C3_3 
REMARK       I    between atoms: C3_3  and  N1_5 
REMARK    2  A    between atoms: C10_15  and  N4_16 
REMARK    3  A    between atoms: N4_16  and  C11_17 
REMARK    4  A    between atoms: C11_17  and  C12_18 
REMARK    5  A    between atoms: C11_17  and  C13_20 
REMARK    6  A    between atoms: C12_18  and  O2_19 
ROOT
HETATM    1  C3  UNL     1      26.557   4.750  49.310  1.00  0.00     0.223 C 
HETATM    2  O1  UNL     1      27.574   4.213  48.804  1.00  0.00    -0.273 OA
HETATM    3  N1  UNL     1      25.676   3.943  50.038  1.00  0.00    -0.324 N 
HETATM    4  C4  UNL     1      25.685   2.544  50.352  1.00  0.00     0.135 C 
HETATM    5  C5  UNL     1      25.472   2.372  51.840  1.00  0.00     0.061 C 
HETATM    6  C6  UNL     1      24.072   2.048  52.170  1.00  0.00    -0.020 A 
HETATM    7  C7  UNL     1      23.392   3.199  51.642  1.00  0.00     0.037 A 
HETATM    8  S1  UNL     1      21.645   2.893  52.000  1.00  0.00    -0.067 SA
HETATM    9  C8  UNL     1      21.904   1.309  52.803  1.00  0.00     0.114 A 
HETATM   10  N2  UNL     1      21.058   0.430  53.357  1.00  0.00    -0.234 NA
HETATM   11  C9  UNL     1      21.469  -0.720  53.911  1.00  0.00     0.236 A 
HETATM   12  N3  UNL     1      22.783  -0.891  53.853  1.00  0.00    -0.224 NA
HETATM   13  C10 UNL     1      23.696  -0.078  53.325  1.00  0.00     0.139 A 
HETATM   14  C19 UNL     1      23.290   1.099  52.756  1.00  0.00     0.053 A 
HETATM   15  P1  UNL     1      24.173   4.610  50.809  1.00  0.00     0.018 P 
HETATM   16  H21 UNL     1      24.509   5.677  51.734  1.00  0.00     0.086 HD
ENDROOT
BRANCH  13  17
HETATM   17  N4  UNL     1      25.040  -0.523  53.415  1.00  0.00    -0.363 N 
HETATM   18  H11 UNL     1      25.690  -1.165  52.952  1.00  0.00     0.162 HD
BRANCH  17  19
HETATM   19  C11 UNL     1      25.933  -0.003  54.464  1.00  0.00     0.140 C 
BRANCH  19  20
HETATM   20  C12 UNL     1      25.529  -0.455  55.833  1.00  0.00     0.194 C 
BRANCH  20  21
HETATM   21  O2  UNL     1      25.004  -1.740  55.783  1.00  0.00    -0.399 OA
HETATM   22  H15 UNL     1      24.492  -1.866  54.940  1.00  0.00     0.209 HD
ENDBRANCH  20  21
ENDBRANCH  19  20
BRANCH  19  23
HETATM   23  C13 UNL     1      27.351  -0.074  54.150  1.00  0.00    -0.034 A 
HETATM   24  C14 UNL     1      27.662  -1.277  53.532  1.00  0.00     0.009 A 
HETATM   25  C15 UNL     1      28.975  -1.571  53.143  1.00  0.00     0.001 A 
HETATM   26  C16 UNL     1      29.972  -0.652  53.376  1.00  0.00     0.000 A 
HETATM   27  C17 UNL     1      29.689   0.537  53.984  1.00  0.00     0.001 A 
HETATM   28  C18 UNL     1      28.396   0.795  54.352  1.00  0.00     0.009 A 
ENDBRANCH  19  23
ENDBRANCH  17  19
ENDBRANCH  13  17
BRANCH   1  29
HETATM   29  C2  UNL     1      26.244   6.179  49.175  1.00  0.00     0.099 C 
HETATM   30  C1  UNL     1      27.153   6.892  48.175  1.00  0.00     0.014 C 
ENDBRANCH   1  29
TORSDOF 6
ENDMDL
MODEL 4
REMARK VINA RESULT:      -8.2      2.674      5.035
REMARK  6 active torsions:
REMARK  status: ('A' for Active; 'I' for Inactive)
REMARK    1  A    between atoms: C2_2  and  C3_3 
REMARK       I    between atoms: C3_3  and  N1_5 
REMARK    2  A    between atoms: C10_15  and  N4_16 
REMARK    3  A    between atoms: N4_16  and  C11_17 
REMARK    4  A    between atoms: C11_17  and  C12_18 
REMARK    5  A    between atoms: C11_17  and  C13_20 
REMARK    6  A    between atoms: C12_18  and  O2_19 
ROOT
HETATM    1  C3  UNL     1      27.182   0.247  54.505  1.00  0.00     0.223 C 
HETATM    2  O1  UNL     1      26.614  -0.502  55.340  1.00  0.00    -0.273 OA
HETATM    3  N1  UNL     1      26.386   0.937  53.586  1.00  0.00    -0.324 N 
HETATM    4  C4  UNL     1      24.967   0.978  53.378  1.00  0.00     0.135 C 
HETATM    5  C5  UNL     1      24.521   2.422  53.317  1.00  0.00     0.061 C 
HETATM    6  C6  UNL     1      24.354   2.897  51.931  1.00  0.00    -0.020 A 
HETATM    7  C7  UNL     1      25.681   2.704  51.413  1.00  0.00     0.037 A 
HETATM    8  S1  UNL     1      25.579   3.263  49.695  1.00  0.00    -0.067 SA
HETATM    9  C8  UNL     1      23.840   3.705  49.755  1.00  0.00     0.114 A 
HETATM   10  N2  UNL     1      23.005   4.208  48.837  1.00  0.00    -0.234 NA
HETATM   11  C9  UNL     1      21.716   4.467  49.095  1.00  0.00     0.236 A 
HETATM   12  N3  UNL     1      21.361   4.177  50.340  1.00  0.00    -0.224 NA
HETATM   13  C10 UNL     1      22.116   3.678  51.315  1.00  0.00     0.139 A 
HETATM   14  C19 UNL     1      23.435   3.408  51.065  1.00  0.00     0.053 A 
HETATM   15  P1  UNL     1      27.098   2.041  52.332  1.00  0.00     0.018 P 
HETATM   16  H21 UNL     1      27.882   3.085  52.964  1.00  0.00     0.086 HD
ENDROOT
BRANCH  13  17
HETATM   17  N4  UNL     1      21.461   3.475  52.557  1.00  0.00    -0.363 N 
HETATM   18  H11 UNL     1      21.432   3.862  53.505  1.00  0.00     0.162 HD
BRANCH  17  19
HETATM   19  C11 UNL     1      20.475   2.392  52.717  1.00  0.00     0.140 C 
BRANCH  19  20
HETATM   20  C12 UNL     1      19.375   2.468  51.705  1.00  0.00     0.194 C 
BRANCH  20  21
HETATM   21  O2  UNL     1      18.609   3.610  51.907  1.00  0.00    -0.399 OA
HETATM   22  H15 UNL     1      17.677   3.455  51.595  1.00  0.00     0.209 HD
ENDBRANCH  20  21
ENDBRANCH  19  20
BRANCH  19  23
HETATM   23  C13 UNL     1      21.047   1.077  52.957  1.00  0.00    -0.034 A 
HETATM   24  C14 UNL     1      20.942   0.726  54.295  1.00  0.00     0.009 A 
HETATM   25  C15 UNL     1      21.433  -0.500  54.762  1.00  0.00     0.001 A 
HETATM   26  C16 UNL     1      22.028  -1.371  53.878  1.00  0.00     0.000 A 
HETATM   27  C17 UNL     1      22.142  -1.046  52.557  1.00  0.00     0.001 A 
HETATM   28  C18 UNL     1      21.653   0.159  52.133  1.00  0.00     0.009 A 
ENDBRANCH  19  23
ENDBRANCH  17  19
ENDBRANCH  13  17
BRANCH   1  29
HETATM   29  C2  UNL     1      28.639   0.431  54.444  1.00  0.00     0.099 C 
HETATM   30  C1  UNL     1      29.362  -0.766  53.830  1.00  0.00     0.014 C 
ENDBRANCH   1  29
TORSDOF 6
ENDMDL
MODEL 5
REMARK VINA RESULT:      -8.1      2.053      3.105
REMARK  6 active torsions:
REMARK  status: ('A' for Active; 'I' for Inactive)
REMARK    1  A    between atoms: C2_2  and  C3_3 
REMARK       I    between atoms: C3_3  and  N1_5 
REMARK    2  A    between atoms: C10_15  and  N4_16 
REMARK    3  A    between atoms: N4_16  and  C11_17 
REMARK    4  A    between atoms: C11_17  and  C12_18 
REMARK    5  A    between atoms: C11_17  and  C13_20 
REMARK    6  A    between atoms: C12_18  and  O2_19 
ROOT
HETATM    1  C3  UNL     1      27.772   1.386  53.962  1.00  0.00     0.223 C 
HETATM    2  O1  UNL     1      28.154   2.509  53.546  1.00  0.00    -0.273 OA
HETATM    3  N1  UNL     1      26.418   1.060  53.837  1.00  0.00    -0.324 N 
HETATM    4  C4  UNL     1      25.297   1.778  53.301  1.00  0.00     0.135 C 
HETATM    5  C5  UNL     1      24.562   0.886  52.326  1.00  0.00     0.061 C 
HETATM    6  C6  UNL     1      23.378   0.251  52.934  1.00  0.00    -0.020 A 
HETATM    7  C7  UNL     1      23.983  -0.484  54.011  1.00  0.00     0.037 A 
HETATM    8  S1  UNL     1      22.594  -1.307  54.830  1.00  0.00    -0.067 SA
HETATM    9  C8  UNL     1      21.331  -0.652  53.736  1.00  0.00     0.114 A 
HETATM   10  N2  UNL     1      20.001  -0.809  53.698  1.00  0.00    -0.234 NA
HETATM   11  C9  UNL     1      19.228  -0.214  52.779  1.00  0.00     0.236 A 
HETATM   12  N3  UNL     1      19.910   0.535  51.924  1.00  0.00    -0.224 NA
HETATM   13  C10 UNL     1      21.223   0.750  51.883  1.00  0.00     0.139 A 
HETATM   14  C19 UNL     1      22.024   0.148  52.816  1.00  0.00     0.053 A 
HETATM   15  P1  UNL     1      25.753  -0.531  54.408  1.00  0.00     0.018 P 
HETATM   16  H21 UNL     1      26.435  -1.630  53.750  1.00  0.00     0.086 HD
ENDROOT
BRANCH  13  17
HETATM   17  N4  UNL     1      21.675   1.600  50.842  1.00  0.00    -0.363 N 
HETATM   18  H11 UNL     1      22.071   1.549  49.898  1.00  0.00     0.162 HD
BRANCH  17  19
HETATM   19  C11 UNL     1      21.646   3.064  51.003  1.00  0.00     0.140 C 
BRANCH  19  20
HETATM   20  C12 UNL     1      20.985   3.485  52.279  1.00  0.00     0.194 C 
BRANCH  20  21
HETATM   21  O2  UNL     1      19.627   3.701  52.072  1.00  0.00    -0.399 OA
HETATM   22  H15 UNL     1      19.366   3.386  51.165  1.00  0.00     0.209 HD
ENDBRANCH  20  21
ENDBRANCH  19  20
BRANCH  19  23
HETATM   23  C13 UNL     1      22.887   3.741  50.662  1.00  0.00    -0.034 A 
HETATM   24  C14 UNL     1      23.570   3.054  49.668  1.00  0.00     0.009 A 
HETATM   25  C15 UNL     1      24.799   3.519  49.183  1.00  0.00     0.001 A 
HETATM   26  C16 UNL     1      25.337   4.675  49.701  1.00  0.00     0.000 A 
HETATM   27  C17 UNL     1      24.683   5.366  50.679  1.00  0.00     0.001 A 
HETATM   28  C18 UNL     1      23.484   4.886  51.132  1.00  0.00     0.009 A 
ENDBRANCH  19  23
ENDBRANCH  17  19
ENDBRANCH  13  17
BRANCH   1  29
HETATM   29  C2  UNL     1      28.673   0.400  54.574  1.00  0.00     0.099 C 
HETATM   30  C1  UNL     1      29.685  -0.173  53.583  1.00  0.00     0.014 C 
ENDBRANCH   1  29
TORSDOF 6
ENDMDL
MODEL 6
REMARK VINA RESULT:      -7.8      3.081      7.628
REMARK  6 active torsions:
REMARK  status: ('A' for Active; 'I' for Inactive)
REMARK    1  A    between atoms: C2_2  and  C3_3 
REMARK       I    between atoms: C3_3  and  N1_5 
REMARK    2  A    between atoms: C10_15  and  N4_16 
REMARK    3  A    between atoms: N4_16  and  C11_17 
REMARK    4  A    between atoms: C11_17  and  C12_18 
REMARK    5  A    between atoms: C11_17  and  C13_20 
REMARK    6  A    between atoms: C12_18  and  O2_19 
ROOT
HETATM    1  C3  UNL     1      22.428   6.693  50.471  1.00  0.00     0.223 C 
HETATM    2  O1  UNL     1      21.493   7.164  51.167  1.00  0.00    -0.273 OA
HETATM    3  N1  UNL     1      23.047   5.516  50.903  1.00  0.00    -0.324 N 
HETATM    4  C4  UNL     1      22.831   4.675  52.044  1.00  0.00     0.135 C 
HETATM    5  C5  UNL     1      22.703   3.241  51.581  1.00  0.00     0.061 C 
HETATM    6  C6  UNL     1      23.961   2.488  51.742  1.00  0.00    -0.020 A 
HETATM    7  C7  UNL     1      24.850   3.259  50.918  1.00  0.00     0.037 A 
HETATM    8  S1  UNL     1      26.441   2.407  51.053  1.00  0.00    -0.067 SA
HETATM    9  C8  UNL     1      25.858   1.118  52.157  1.00  0.00     0.114 A 
HETATM   10  N2  UNL     1      26.472   0.073  52.728  1.00  0.00    -0.234 NA
HETATM   11  C9  UNL     1      25.839  -0.784  53.540  1.00  0.00     0.236 A 
HETATM   12  N3  UNL     1      24.557  -0.492  53.716  1.00  0.00    -0.224 NA
HETATM   13  C10 UNL     1      23.864   0.518  53.194  1.00  0.00     0.139 A 
HETATM   14  C19 UNL     1      24.500   1.401  52.363  1.00  0.00     0.053 A 
HETATM   15  P1  UNL     1      24.411   4.750  49.980  1.00  0.00     0.018 P 
HETATM   16  H21 UNL     1      23.996   4.444  48.624  1.00  0.00     0.086 HD
ENDROOT
BRANCH  13  17
HETATM   17  N4  UNL     1      22.494   0.576  53.557  1.00  0.00    -0.363 N 
HETATM   18  H11 UNL     1      21.841   1.169  54.077  1.00  0.00     0.162 HD
BRANCH  17  19
HETATM   19  C11 UNL     1      21.563  -0.487  53.140  1.00  0.00     0.140 C 
BRANCH  19  20
HETATM   20  C12 UNL     1      21.082  -1.309  54.295  1.00  0.00     0.194 C 
BRANCH  20  21
HETATM   21  O2  UNL     1      22.039  -1.335  55.302  1.00  0.00    -0.399 OA
HETATM   22  H15 UNL     1      22.169  -2.267  55.624  1.00  0.00     0.209 HD
ENDBRANCH  20  21
ENDBRANCH  19  20
BRANCH  19  23
HETATM   23  C13 UNL     1      20.557  -0.073  52.175  1.00  0.00    -0.034 A 
HETATM   24  C14 UNL     1      19.281  -0.385  52.623  1.00  0.00     0.009 A 
HETATM   25  C15 UNL     1      18.151  -0.085  51.851  1.00  0.00     0.001 A 
HETATM   26  C16 UNL     1      18.310   0.530  50.630  1.00  0.00     0.000 A 
HETATM   27  C17 UNL     1      19.555   0.844  50.170  1.00  0.00     0.001 A 
HETATM   28  C18 UNL     1      20.639   0.538  50.947  1.00  0.00     0.009 A 
ENDBRANCH  19  23
ENDBRANCH  17  19
ENDBRANCH  13  17
BRANCH   1  29
HETATM   29  C2  UNL     1      22.906   7.317  49.229  1.00  0.00     0.099 C 
HETATM   30  C1  UNL     1      23.733   8.577  49.479  1.00  0.00     0.014 C 
ENDBRANCH   1  29
TORSDOF 6
ENDMDL
MODEL 7
REMARK VINA RESULT:      -7.8      2.534      6.611
REMARK  6 active torsions:
REMARK  status: ('A' for Active; 'I' for Inactive)
REMARK    1  A    between atoms: C2_2  and  C3_3 
REMARK       I    between atoms: C3_3  and  N1_5 
REMARK    2  A    between atoms: C10_15  and  N4_16 
REMARK    3  A    between atoms: N4_16  and  C11_17 
REMARK    4  A    between atoms: C11_17  and  C12_18 
REMARK    5  A    between atoms: C11_17  and  C13_20 
REMARK    6  A    between atoms: C12_18  and  O2_19 
ROOT
HETATM    1  C3  UNL     1      25.707   6.315  48.951  1.00  0.00     0.223 C 
HETATM    2  O1  UNL     1      26.961   6.393  48.891  1.00  0.00    -0.273 OA
HETATM    3  N1  UNL     1      25.143   5.193  49.566  1.00  0.00    -0.324 N 
HETATM    4  C4  UNL     1      25.725   4.036  50.183  1.00  0.00     0.135 C 
HETATM    5  C5  UNL     1      25.102   3.841  51.547  1.00  0.00     0.061 C 
HETATM    6  C6  UNL     1      24.033   2.825  51.533  1.00  0.00    -0.020 A 
HETATM    7  C7  UNL     1      23.119   3.400  50.584  1.00  0.00     0.037 A 
HETATM    8  S1  UNL     1      21.757   2.214  50.494  1.00  0.00    -0.067 SA
HETATM    9  C8  UNL     1      22.450   1.058  51.680  1.00  0.00     0.114 A 
HETATM   10  N2  UNL     1      22.013  -0.114  52.159  1.00  0.00    -0.234 NA
HETATM   11  C9  UNL     1      22.702  -0.832  53.056  1.00  0.00     0.236 A 
HETATM   12  N3  UNL     1      23.848  -0.267  53.413  1.00  0.00    -0.224 NA
HETATM   13  C10 UNL     1      24.362   0.886  52.993  1.00  0.00     0.139 A 
HETATM   14  C19 UNL     1      23.668   1.630  52.077  1.00  0.00     0.053 A 
HETATM   15  P1  UNL     1      23.346   4.972  49.705  1.00  0.00     0.018 P 
HETATM   16  H21 UNL     1      22.752   6.090  50.414  1.00  0.00     0.086 HD
ENDROOT
BRANCH  13  17
HETATM   17  N4  UNL     1      25.613   1.245  53.559  1.00  0.00    -0.363 N 
HETATM   18  H11 UNL     1      26.004   1.643  54.418  1.00  0.00     0.162 HD
BRANCH  17  19
HETATM   19  C11 UNL     1      26.861   1.059  52.798  1.00  0.00     0.140 C 
BRANCH  19  20
HETATM   20  C12 UNL     1      27.807   2.208  52.965  1.00  0.00     0.194 C 
BRANCH  20  21
HETATM   21  O2  UNL     1      27.558   2.869  54.162  1.00  0.00    -0.399 OA
HETATM   22  H15 UNL     1      28.123   2.487  54.886  1.00  0.00     0.209 HD
ENDBRANCH  20  21
ENDBRANCH  19  20
BRANCH  19  23
HETATM   23  C13 UNL     1      27.436  -0.273  52.885  1.00  0.00    -0.034 A 
HETATM   24  C14 UNL     1      28.744  -0.220  53.346  1.00  0.00     0.009 A 
HETATM   25  C15 UNL     1      29.503  -1.386  53.504  1.00  0.00     0.001 A 
HETATM   26  C16 UNL     1      28.942  -2.605  53.197  1.00  0.00     0.000 A 
HETATM   27  C17 UNL     1      27.658  -2.681  52.741  1.00  0.00     0.001 A 
HETATM   28  C18 UNL     1      26.943  -1.523  52.597  1.00  0.00     0.009 A 
ENDBRANCH  19  23
ENDBRANCH  17  19
ENDBRANCH  13  17
BRANCH   1  29
HETATM   29  C2  UNL     1      24.806   7.340  48.407  1.00  0.00     0.099 C 
HETATM   30  C1  UNL     1      25.151   7.731  46.972  1.00  0.00     0.014 C 
ENDBRANCH   1  29
TORSDOF 6
ENDMDL
MODEL 8
REMARK VINA RESULT:      -7.7      3.060      6.012
REMARK  6 active torsions:
REMARK  status: ('A' for Active; 'I' for Inactive)
REMARK    1  A    between atoms: C2_2  and  C3_3 
REMARK       I    between atoms: C3_3  and  N1_5 
REMARK    2  A    between atoms: C10_15  and  N4_16 
REMARK    3  A    between atoms: N4_16  and  C11_17 
REMARK    4  A    between atoms: C11_17  and  C12_18 
REMARK    5  A    between atoms: C11_17  and  C13_20 
REMARK    6  A    between atoms: C12_18  and  O2_19 
ROOT
HETATM    1  C3  UNL     1      27.017   5.800  48.819  1.00  0.00     0.223 C 
HETATM    2  O1  UNL     1      27.765   4.979  48.230  1.00  0.00    -0.273 OA
HETATM    3  N1  UNL     1      25.843   5.320  49.408  1.00  0.00    -0.324 N 
HETATM    4  C4  UNL     1      25.271   4.007  49.491  1.00  0.00     0.135 C 
HETATM    5  C5  UNL     1      24.914   3.716  50.931  1.00  0.00     0.061 C 
HETATM    6  C6  UNL     1      23.483   3.941  51.207  1.00  0.00    -0.020 A 
HETATM    7  C7  UNL     1      23.354   5.334  50.875  1.00  0.00     0.037 A 
HETATM    8  S1  UNL     1      21.612   5.711  51.182  1.00  0.00    -0.067 SA
HETATM    9  C8  UNL     1      21.164   4.057  51.716  1.00  0.00     0.114 A 
HETATM   10  N2  UNL     1      20.004   3.523  52.122  1.00  0.00    -0.234 NA
HETATM   11  C9  UNL     1      19.885   2.238  52.480  1.00  0.00     0.236 A 
HETATM   12  N3  UNL     1      21.022   1.560  52.393  1.00  0.00    -0.224 NA
HETATM   13  C10 UNL     1      22.215   2.002  52.002  1.00  0.00     0.139 A 
HETATM   14  C19 UNL     1      22.350   3.314  51.633  1.00  0.00     0.053 A 
HETATM   15  P1  UNL     1      24.686   6.414  50.281  1.00  0.00     0.018 P 
HETATM   16  H21 UNL     1      25.361   7.103  51.365  1.00  0.00     0.086 HD
ENDROOT
BRANCH  13  17
HETATM   17  N4  UNL     1      23.260   1.044  52.016  1.00  0.00    -0.363 N 
HETATM   18  H11 UNL     1      23.782   0.437  51.376  1.00  0.00     0.162 HD
BRANCH  17  19
HETATM   19  C11 UNL     1      23.919   0.670  53.280  1.00  0.00     0.140 C 
BRANCH  19  20
HETATM   20  C12 UNL     1      23.462  -0.661  53.790  1.00  0.00     0.194 C 
BRANCH  20  21
HETATM   21  O2  UNL     1      22.480  -1.187  52.959  1.00  0.00    -0.399 OA
HETATM   22  H15 UNL     1      22.502  -0.731  52.075  1.00  0.00     0.209 HD
ENDBRANCH  20  21
ENDBRANCH  19  20
BRANCH  19  23
HETATM   23  C13 UNL     1      25.350   0.924  53.320  1.00  0.00    -0.034 A 
HETATM   24  C14 UNL     1      26.059  -0.147  52.794  1.00  0.00     0.009 A 
HETATM   25  C15 UNL     1      27.458  -0.130  52.736  1.00  0.00     0.001 A 
HETATM   26  C16 UNL     1      28.141   0.969  53.207  1.00  0.00     0.000 A 
HETATM   27  C17 UNL     1      27.464   2.033  53.729  1.00  0.00     0.001 A 
HETATM   28  C18 UNL     1      26.097   1.985  53.772  1.00  0.00     0.009 A 
ENDBRANCH  19  23
ENDBRANCH  17  19
ENDBRANCH  13  17
BRANCH   1  29
HETATM   29  C2  UNL     1      27.312   7.236  48.919  1.00  0.00     0.099 C 
HETATM   30  C1  UNL     1      28.677   7.602  48.341  1.00  0.00     0.014 C 
ENDBRANCH   1  29
TORSDOF 6
ENDMDL
MODEL 9
REMARK VINA RESULT:      -7.6      3.527      7.168
REMARK  6 active torsions:
REMARK  status: ('A' for Active; 'I' for Inactive)
REMARK    1  A    between atoms: C2_2  and  C3_3 
REMARK       I    between atoms: C3_3  and  N1_5 
REMARK    2  A    between atoms: C10_15  and  N4_16 
REMARK    3  A    between atoms: N4_16  and  C11_17 
REMARK    4  A    between atoms: C11_17  and  C12_18 
REMARK    5  A    between atoms: C11_17  and  C13_20 
REMARK    6  A    between atoms: C12_18  and  O2_19 
ROOT
HETATM    1  C3  UNL     1      18.557  -0.863  52.743  1.00  0.00     0.223 C 
HETATM    2  O1  UNL     1      18.726  -1.516  53.804  1.00  0.00    -0.273 OA
HETATM    3  N1  UNL     1      19.596  -0.035  52.304  1.00  0.00    -0.324 N 
HETATM    4  C4  UNL     1      20.896   0.248  52.839  1.00  0.00     0.135 C 
HETATM    5  C5  UNL     1      21.925   0.078  51.744  1.00  0.00     0.061 C 
HETATM    6  C6  UNL     1      22.313   1.365  51.138  1.00  0.00    -0.020 A 
HETATM    7  C7  UNL     1      21.047   1.828  50.641  1.00  0.00     0.037 A 
HETATM    8  S1  UNL     1      21.421   3.423  49.872  1.00  0.00    -0.067 SA
HETATM    9  C8  UNL     1      23.178   3.389  50.240  1.00  0.00     0.114 A 
HETATM   10  N2  UNL     1      24.169   4.252  49.984  1.00  0.00    -0.234 NA
HETATM   11  C9  UNL     1      25.437   4.031  50.357  1.00  0.00     0.236 A 
HETATM   12  N3  UNL     1      25.602   2.881  50.998  1.00  0.00    -0.224 NA
HETATM   13  C10 UNL     1      24.683   1.966  51.296  1.00  0.00     0.139 A 
HETATM   14  C19 UNL     1      23.384   2.180  50.920  1.00  0.00     0.053 A 
HETATM   15  P1  UNL     1      19.461   0.958  50.790  1.00  0.00     0.018 P 
HETATM   16  H21 UNL     1      19.194   0.104  49.647  1.00  0.00     0.086 HD
ENDROOT
BRANCH  13  17
HETATM   17  N4  UNL     1      25.156   0.821  51.988  1.00  0.00    -0.363 N 
HETATM   18  H11 UNL     1      24.922  -0.165  52.133  1.00  0.00     0.162 HD
BRANCH  17  19
HETATM   19  C11 UNL     1      26.364   0.900  52.829  1.00  0.00     0.140 C 
BRANCH  19  20
HETATM   20  C12 UNL     1      26.110   1.597  54.129  1.00  0.00     0.194 C 
BRANCH  20  21
HETATM   21  O2  UNL     1      26.493   2.930  54.046  1.00  0.00    -0.399 OA
HETATM   22  H15 UNL     1      26.493   3.226  53.097  1.00  0.00     0.209 HD
ENDBRANCH  20  21
ENDBRANCH  19  20
BRANCH  19  23
HETATM   23  C13 UNL     1      27.144  -0.325  52.891  1.00  0.00    -0.034 A 
HETATM   24  C14 UNL     1      28.443  -0.066  53.306  1.00  0.00     0.009 A 
HETATM   25  C15 UNL     1      29.381  -1.098  53.433  1.00  0.00     0.001 A 
HETATM   26  C16 UNL     1      29.008  -2.391  53.143  1.00  0.00     0.000 A 
HETATM   27  C17 UNL     1      27.737  -2.669  52.733  1.00  0.00     0.001 A 
HETATM   28  C18 UNL     1      26.843  -1.638  52.618  1.00  0.00     0.009 A 
ENDBRANCH  19  23
ENDBRANCH  17  19
ENDBRANCH  13  17
BRANCH   1  29
HETATM   29  C2  UNL     1      17.327  -0.923  51.942  1.00  0.00     0.099 C 
HETATM   30  C1  UNL     1      16.148  -0.221  52.614  1.00  0.00     0.014 C 
ENDBRANCH   1  29
TORSDOF 6
ENDMDL
