MODEL 1
REMARK VINA RESULT:      -8.2      0.000      0.000
REMARK  4 active torsions:
REMARK  status: ('A' for Active; 'I' for Inactive)
REMARK       I    between atoms: C1_2  and  N1_3 
REMARK    1  A    between atoms: C1_2  and  C8_11 
REMARK    2  A    between atoms: N1_3  and  C2_4 
REMARK    3  A    between atoms: C2_4  and  C3_5 
REMARK    4  A    between atoms: C10_15  and  C11_16 
ROOT
HETATM    1  C8  UNL     1      24.496   2.854  52.304  1.00  0.00     0.160 A 
HETATM    2  N3  UNL     1      24.475   3.935  51.467  1.00  0.00    -0.228 NA
HETATM    3  C9  UNL     1      23.268   3.897  50.904  1.00  0.00     0.259 A 
HETATM    4  O2  UNL     1      22.606   2.888  51.351  1.00  0.00    -0.301 OA
HETATM    5  C10 UNL     1      23.312   2.209  52.214  1.00  0.00     0.121 A 
ENDROOT
BRANCH   1   6
HETATM    6  C1  UNL     1      25.574   2.463  53.189  1.00  0.00     0.273 C 
HETATM    7  O1  UNL     1      26.067   2.417  54.332  1.00  0.00    -0.266 OA
HETATM    8  N1  UNL     1      26.678   1.786  52.548  1.00  0.00    -0.351 N 
HETATM    9  H1  UNL     1      26.684   1.591  51.482  1.00  0.00     0.163 HD
BRANCH   8  10
HETATM   10  C2  UNL     1      27.859   1.303  53.237  1.00  0.00     0.161 C 
BRANCH  10  11
HETATM   11  C3  UNL     1      28.103  -0.132  53.141  1.00  0.00    -0.038 A 
HETATM   12  C4  UNL     1      29.183  -0.917  53.466  1.00  0.00     0.028 A 
HETATM   13  C5  UNL     1      29.240  -2.284  53.321  1.00  0.00     0.116 A 
HETATM   14  N2  UNL     1      28.144  -2.926  52.815  1.00  0.00    -0.273 NA
HETATM   15  C6  UNL     1      27.039  -2.202  52.470  1.00  0.00     0.116 A 
HETATM   16  C7  UNL     1      26.999  -0.824  52.624  1.00  0.00     0.028 A 
ENDBRANCH  10  11
ENDBRANCH   8  10
ENDBRANCH   1   6
BRANCH   5  17
HETATM   17  C11 UNL     1      22.746   1.023  52.826  1.00  0.00     0.000 C 
HETATM   18  C12 UNL     1      21.422   1.041  53.087  1.00  0.00     0.014 C 
HETATM   19  C13 UNL     1      20.516   0.044  53.692  1.00  0.00    -0.003 C 
HETATM   20  C14 UNL     1      21.021  -0.825  54.586  1.00  0.00    -0.023 C 
HETATM   21  C15 UNL     1      22.384  -1.030  55.152  1.00  0.00     0.054 C 
HETATM   22  C16 UNL     1      23.413  -1.109  54.075  1.00  0.00    -0.022 C 
HETATM   23  C17 UNL     1      23.505  -0.190  53.110  1.00  0.00     0.010 C 
ENDBRANCH   5  17
TORSDOF 4
ENDMDL
MODEL 2
REMARK VINA RESULT:      -8.2      2.157      5.193
REMARK  4 active torsions:
REMARK  status: ('A' for Active; 'I' for Inactive)
REMARK       I    between atoms: C1_2  and  N1_3 
REMARK    1  A    between atoms: C1_2  and  C8_11 
REMARK    2  A    between atoms: N1_3  and  C2_4 
REMARK    3  A    between atoms: C2_4  and  C3_5 
REMARK    4  A    between atoms: C10_15  and  C11_16 
ROOT
HETATM    1  C8  UNL     1      25.204   3.073  51.045  1.00  0.00     0.160 A 
HETATM    2  N3  UNL     1      25.305   3.885  49.949  1.00  0.00    -0.228 NA
HETATM    3  C9  UNL     1      26.558   3.721  49.527  1.00  0.00     0.259 A 
HETATM    4  O2  UNL     1      27.174   2.888  50.290  1.00  0.00    -0.301 OA
HETATM    5  C10 UNL     1      26.391   2.458  51.242  1.00  0.00     0.121 A 
ENDROOT
BRANCH   1   6
HETATM    6  C1  UNL     1      24.025   2.851  51.854  1.00  0.00     0.273 C 
HETATM    7  O1  UNL     1      23.257   3.218  52.765  1.00  0.00    -0.266 OA
HETATM    8  N1  UNL     1      23.293   1.642  51.552  1.00  0.00    -0.351 N 
HETATM    9  H1  UNL     1      23.616   0.961  50.774  1.00  0.00     0.163 HD
BRANCH   8  10
HETATM   10  C2  UNL     1      22.082   1.221  52.232  1.00  0.00     0.161 C 
BRANCH  10  11
HETATM   11  C3  UNL     1      22.254   0.179  53.238  1.00  0.00    -0.038 A 
HETATM   12  C4  UNL     1      23.344  -0.252  53.956  1.00  0.00     0.028 A 
HETATM   13  C5  UNL     1      23.326  -1.258  54.894  1.00  0.00     0.116 A 
HETATM   14  N2  UNL     1      22.139  -1.888  55.142  1.00  0.00    -0.273 NA
HETATM   15  C6  UNL     1      21.018  -1.508  54.461  1.00  0.00     0.116 A 
HETATM   16  C7  UNL     1      21.055  -0.490  53.518  1.00  0.00     0.028 A 
ENDBRANCH  10  11
ENDBRANCH   8  10
ENDBRANCH   1   6
BRANCH   5  17
HETATM   17  C11 UNL     1      26.904   1.515  52.219  1.00  0.00     0.000 C 
HETATM   18  C12 UNL     1      27.819   1.979  53.095  1.00  0.00     0.014 C 
HETATM   19  C13 UNL     1      28.550   1.330  54.202  1.00  0.00    -0.003 C 
HETATM   20  C14 UNL     1      28.803   0.011  54.121  1.00  0.00    -0.023 C 
HETATM   21  C15 UNL     1      28.495  -1.025  53.095  1.00  0.00     0.054 C 
HETATM   22  C16 UNL     1      27.055  -0.992  52.705  1.00  0.00    -0.022 C 
HETATM   23  C17 UNL     1      26.442   0.137  52.342  1.00  0.00     0.010 C 
ENDBRANCH   5  17
TORSDOF 4
ENDMDL
MODEL 3
REMARK VINA RESULT:      -8.0      2.514      5.549
REMARK  4 active torsions:
REMARK  status: ('A' for Active; 'I' for Inactive)
REMARK       I    between atoms: C1_2  and  N1_3 
REMARK    1  A    between atoms: C1_2  and  C8_11 
REMARK    2  A    between atoms: N1_3  and  C2_4 
REMARK    3  A    between atoms: C2_4  and  C3_5 
REMARK    4  A    between atoms: C10_15  and  C11_16 
ROOT
HETATM    1  C8  UNL     1      27.717   0.588  54.096  1.00  0.00     0.160 A 
HETATM    2  N3  UNL     1      28.930   0.567  54.727  1.00  0.00    -0.228 NA
HETATM    3  C9  UNL     1      29.420   1.793  54.548  1.00  0.00     0.259 A 
HETATM    4  O2  UNL     1      28.590   2.503  53.869  1.00  0.00    -0.301 OA
HETATM    5  C10 UNL     1      27.525   1.813  53.561  1.00  0.00     0.121 A 
ENDROOT
BRANCH   1   6
HETATM    6  C1  UNL     1      26.755  -0.492  54.030  1.00  0.00     0.273 C 
HETATM    7  O1  UNL     1      26.394  -1.588  53.560  1.00  0.00    -0.266 OA
HETATM    8  N1  UNL     1      25.600  -0.336  54.886  1.00  0.00    -0.351 N 
HETATM    9  H1  UNL     1      25.478   0.531  55.524  1.00  0.00     0.163 HD
BRANCH   8  10
HETATM   10  C2  UNL     1      24.514  -1.293  54.985  1.00  0.00     0.161 C 
BRANCH  10  11
HETATM   11  C3  UNL     1      23.289  -0.931  54.282  1.00  0.00    -0.038 A 
HETATM   12  C4  UNL     1      23.047  -0.168  53.165  1.00  0.00     0.028 A 
HETATM   13  C5  UNL     1      21.805   0.062  52.618  1.00  0.00     0.116 A 
HETATM   14  N2  UNL     1      20.719  -0.506  53.221  1.00  0.00    -0.273 NA
HETATM   15  C6  UNL     1      20.891  -1.275  54.336  1.00  0.00     0.116 A 
HETATM   16  C7  UNL     1      22.151  -1.497  54.873  1.00  0.00     0.028 A 
ENDBRANCH  10  11
ENDBRANCH   8  10
ENDBRANCH   1   6
BRANCH   5  17
HETATM   17  C11 UNL     1      26.470   2.436  52.783  1.00  0.00     0.000 C 
HETATM   18  C12 UNL     1      25.345   2.781  53.443  1.00  0.00     0.014 C 
HETATM   19  C13 UNL     1      24.090   3.417  52.998  1.00  0.00    -0.003 C 
HETATM   20  C14 UNL     1      23.686   3.225  51.728  1.00  0.00    -0.023 C 
HETATM   21  C15 UNL     1      24.255   2.462  50.582  1.00  0.00     0.054 C 
HETATM   22  C16 UNL     1      25.695   2.792  50.371  1.00  0.00    -0.022 C 
HETATM   23  C17 UNL     1      26.586   2.759  51.366  1.00  0.00     0.010 C 
ENDBRANCH   5  17
TORSDOF 4
ENDMDL
MODEL 4
REMARK VINA RESULT:      -7.9      1.769      2.548
REMARK  4 active torsions:
REMARK  status: ('A' for Active; 'I' for Inactive)
REMARK       I    between atoms: C1_2  and  N1_3 
REMARK    1  A    between atoms: C1_2  and  C8_11 
REMARK    2  A    between atoms: N1_3  and  C2_4 
REMARK    3  A    between atoms: C2_4  and  C3_5 
REMARK    4  A    between atoms: C10_15  and  C11_16 
ROOT
HETATM    1  C8  UNL     1      23.101   2.040  50.432  1.00  0.00     0.160 A 
HETATM    2  N3  UNL     1      22.675   2.166  49.138  1.00  0.00    -0.228 NA
HETATM    3  C9  UNL     1      21.614   1.364  49.056  1.00  0.00     0.259 A 
HETATM    4  O2  UNL     1      21.405   0.796  50.191  1.00  0.00    -0.301 OA
HETATM    5  C10 UNL     1      22.290   1.172  51.075  1.00  0.00     0.121 A 
ENDROOT
BRANCH   1   6
HETATM    6  C1  UNL     1      24.205   2.740  51.053  1.00  0.00     0.273 C 
HETATM    7  O1  UNL     1      24.649   3.740  51.650  1.00  0.00    -0.266 OA
HETATM    8  N1  UNL     1      25.466   2.034  51.037  1.00  0.00    -0.351 N 
HETATM    9  H1  UNL     1      25.562   1.052  50.588  1.00  0.00     0.163 HD
BRANCH   8  10
HETATM   10  C2  UNL     1      26.701   2.541  51.604  1.00  0.00     0.161 C 
BRANCH  10  11
HETATM   11  C3  UNL     1      27.357   1.667  52.570  1.00  0.00    -0.038 A 
HETATM   12  C4  UNL     1      28.253   1.907  53.585  1.00  0.00     0.028 A 
HETATM   13  C5  UNL     1      28.768   0.948  54.427  1.00  0.00     0.116 A 
HETATM   14  N2  UNL     1      28.368  -0.346  54.254  1.00  0.00    -0.273 NA
HETATM   15  C6  UNL     1      27.480  -0.651  53.263  1.00  0.00     0.116 A 
HETATM   16  C7  UNL     1      26.970   0.328  52.422  1.00  0.00     0.028 A 
ENDBRANCH  10  11
ENDBRANCH   8  10
ENDBRANCH   1   6
BRANCH   5  17
HETATM   17  C11 UNL     1      22.232   0.631  52.420  1.00  0.00     0.000 C 
HETATM   18  C12 UNL     1      23.327  -0.019  52.865  1.00  0.00     0.014 C 
HETATM   19  C13 UNL     1      23.631  -0.689  54.145  1.00  0.00    -0.003 C 
HETATM   20  C14 UNL     1      22.616  -1.222  54.849  1.00  0.00    -0.023 C 
HETATM   21  C15 UNL     1      21.145  -1.302  54.618  1.00  0.00     0.054 C 
HETATM   22  C16 UNL     1      20.577   0.035  54.277  1.00  0.00    -0.022 C 
HETATM   23  C17 UNL     1      21.099   0.807  53.321  1.00  0.00     0.010 C 
ENDBRANCH   5  17
TORSDOF 4
ENDMDL
MODEL 5
REMARK VINA RESULT:      -7.7      3.549      5.897
REMARK  4 active torsions:
REMARK  status: ('A' for Active; 'I' for Inactive)
REMARK       I    between atoms: C1_2  and  N1_3 
REMARK    1  A    between atoms: C1_2  and  C8_11 
REMARK    2  A    between atoms: N1_3  and  C2_4 
REMARK    3  A    between atoms: C2_4  and  C3_5 
REMARK    4  A    between atoms: C10_15  and  C11_16 
ROOT
HETATM    1  C8  UNL     1      26.487   2.305  51.969  1.00  0.00     0.160 A 
HETATM    2  N3  UNL     1      27.802   2.374  52.341  1.00  0.00    -0.228 NA
HETATM    3  C9  UNL     1      27.875   1.629  53.443  1.00  0.00     0.259 A 
HETATM    4  O2  UNL     1      26.717   1.147  53.726  1.00  0.00    -0.301 OA
HETATM    5  C10 UNL     1      25.824   1.531  52.855  1.00  0.00     0.121 A 
ENDROOT
BRANCH   1   6
HETATM    6  C1  UNL     1      25.884   2.911  50.801  1.00  0.00     0.273 C 
HETATM    7  O1  UNL     1      25.054   2.870  49.872  1.00  0.00    -0.266 OA
HETATM    8  N1  UNL     1      26.425   4.199  50.430  1.00  0.00    -0.351 N 
HETATM    9  H1  UNL     1      27.224   4.664  50.995  1.00  0.00     0.163 HD
BRANCH   8  10
HETATM   10  C2  UNL     1      25.971   4.988  49.300  1.00  0.00     0.161 C 
BRANCH  10  11
HETATM   11  C3  UNL     1      26.995   5.786  48.636  1.00  0.00    -0.038 A 
HETATM   12  C4  UNL     1      26.982   7.042  48.078  1.00  0.00     0.028 A 
HETATM   13  C5  UNL     1      28.064   7.660  47.495  1.00  0.00     0.116 A 
HETATM   14  N2  UNL     1      29.252   6.985  47.460  1.00  0.00    -0.273 NA
HETATM   15  C6  UNL     1      29.331   5.731  47.995  1.00  0.00     0.116 A 
HETATM   16  C7  UNL     1      28.229   5.124  48.580  1.00  0.00     0.028 A 
ENDBRANCH  10  11
ENDBRANCH   8  10
ENDBRANCH   1   6
BRANCH   5  17
HETATM   17  C11 UNL     1      24.446   1.101  53.006  1.00  0.00     0.000 C 
HETATM   18  C12 UNL     1      24.242  -0.133  53.510  1.00  0.00     0.014 C 
HETATM   19  C13 UNL     1      23.011  -0.895  53.798  1.00  0.00    -0.003 C 
HETATM   20  C14 UNL     1      21.914  -0.652  53.057  1.00  0.00    -0.023 C 
HETATM   21  C15 UNL     1      21.633   0.278  51.927  1.00  0.00     0.054 C 
HETATM   22  C16 UNL     1      22.069   1.669  52.248  1.00  0.00    -0.022 C 
HETATM   23  C17 UNL     1      23.293   1.943  52.708  1.00  0.00     0.010 C 
ENDBRANCH   5  17
TORSDOF 4
ENDMDL
MODEL 6
REMARK VINA RESULT:      -7.5      2.471      5.757
REMARK  4 active torsions:
REMARK  status: ('A' for Active; 'I' for Inactive)
REMARK       I    between atoms: C1_2  and  N1_3 
REMARK    1  A    between atoms: C1_2  and  C8_11 
REMARK    2  A    between atoms: N1_3  and  C2_4 
REMARK    3  A    between atoms: C2_4  and  C3_5 
REMARK    4  A    between atoms: C10_15  and  C11_16 
ROOT
HETATM    1  C8  UNL     1      27.182   2.368  52.250  1.00  0.00     0.160 A 
HETATM    2  N3  UNL     1      28.428   2.469  52.803  1.00  0.00    -0.228 NA
HETATM    3  C9  UNL     1      28.305   1.910  54.006  1.00  0.00     0.259 A 
HETATM    4  O2  UNL     1      27.098   1.503  54.181  1.00  0.00    -0.301 OA
HETATM    5  C10 UNL     1      26.360   1.760  53.134  1.00  0.00     0.121 A 
ENDROOT
BRANCH   1   6
HETATM    6  C1  UNL     1      26.784   2.790  50.924  1.00  0.00     0.273 C 
HETATM    7  O1  UNL     1      26.824   2.640  49.687  1.00  0.00    -0.266 OA
HETATM    8  N1  UNL     1      25.914   3.944  50.882  1.00  0.00    -0.351 N 
HETATM    9  H1  UNL     1      25.591   4.445  51.787  1.00  0.00     0.163 HD
BRANCH   8  10
HETATM   10  C2  UNL     1      25.391   4.537  49.666  1.00  0.00     0.161 C 
BRANCH  10  11
HETATM   11  C3  UNL     1      23.942   4.476  49.508  1.00  0.00    -0.038 A 
HETATM   12  C4  UNL     1      22.934   5.361  49.810  1.00  0.00     0.028 A 
HETATM   13  C5  UNL     1      21.596   5.145  49.576  1.00  0.00     0.116 A 
HETATM   14  N2  UNL     1      21.224   3.963  48.999  1.00  0.00    -0.273 NA
HETATM   15  C6  UNL     1      22.177   3.041  48.675  1.00  0.00     0.116 A 
HETATM   16  C7  UNL     1      23.523   3.276  48.919  1.00  0.00     0.028 A 
ENDBRANCH  10  11
ENDBRANCH   8  10
ENDBRANCH   1   6
BRANCH   5  17
HETATM   17  C11 UNL     1      24.958   1.388  53.138  1.00  0.00     0.000 C 
HETATM   18  C12 UNL     1      24.669   0.092  53.377  1.00  0.00     0.014 C 
HETATM   19  C13 UNL     1      23.390  -0.641  53.455  1.00  0.00    -0.003 C 
HETATM   20  C14 UNL     1      22.347  -0.194  52.732  1.00  0.00    -0.023 C 
HETATM   21  C15 UNL     1      22.171   0.955  51.799  1.00  0.00     0.054 C 
HETATM   22  C16 UNL     1      22.654   2.228  52.408  1.00  0.00    -0.022 C 
HETATM   23  C17 UNL     1      23.864   2.336  52.965  1.00  0.00     0.010 C 
ENDBRANCH   5  17
TORSDOF 4
ENDMDL
MODEL 7
REMARK VINA RESULT:      -7.5      2.760      5.235
REMARK  4 active torsions:
REMARK  status: ('A' for Active; 'I' for Inactive)
REMARK       I    between atoms: C1_2  and  N1_3 
REMARK    1  A    between atoms: C1_2  and  C8_11 
REMARK    2  A    between atoms: N1_3  and  C2_4 
REMARK    3  A    between atoms: C2_4  and  C3_5 
REMARK    4  A    between atoms: C10_15  and  C11_16 
ROOT
HETATM    1  C8  UNL     1      23.753   2.726  50.653  1.00  0.00     0.160 A 
HETATM    2  N3  UNL     1      22.690   2.027  50.151  1.00  0.00    -0.228 NA
HETATM    3  C9  UNL     1      22.574   2.454  48.894  1.00  0.00     0.259 A 
HETATM    4  O2  UNL     1      23.478   3.335  48.644  1.00  0.00    -0.301 OA
HETATM    5  C10 UNL     1      24.231   3.544  49.689  1.00  0.00     0.121 A 
ENDROOT
BRANCH   1   6
HETATM    6  C1  UNL     1      24.325   2.603  51.977  1.00  0.00     0.273 C 
HETATM    7  O1  UNL     1      24.473   3.044  53.133  1.00  0.00    -0.266 OA
HETATM    8  N1  UNL     1      25.151   1.433  52.181  1.00  0.00    -0.351 N 
HETATM    9  H1  UNL     1      25.319   0.711  51.391  1.00  0.00     0.163 HD
BRANCH   8  10
HETATM   10  C2  UNL     1      25.819   1.106  53.426  1.00  0.00     0.161 C 
BRANCH  10  11
HETATM   11  C3  UNL     1      26.811   0.039  53.347  1.00  0.00    -0.038 A 
HETATM   12  C4  UNL     1      28.126  -0.042  53.742  1.00  0.00     0.028 A 
HETATM   13  C5  UNL     1      28.926  -1.152  53.602  1.00  0.00     0.116 A 
HETATM   14  N2  UNL     1      28.387  -2.269  53.029  1.00  0.00    -0.273 NA
HETATM   15  C6  UNL     1      27.086  -2.254  52.614  1.00  0.00     0.116 A 
HETATM   16  C7  UNL     1      26.293  -1.125  52.763  1.00  0.00     0.028 A 
ENDBRANCH  10  11
ENDBRANCH   8  10
ENDBRANCH   1   6
BRANCH   5  17
HETATM   17  C11 UNL     1      25.307   4.515  49.614  1.00  0.00     0.000 C 
HETATM   18  C12 UNL     1      24.997   5.795  49.905  1.00  0.00     0.014 C 
HETATM   19  C13 UNL     1      25.807   7.030  49.932  1.00  0.00    -0.003 C 
HETATM   20  C14 UNL     1      26.869   7.121  49.111  1.00  0.00    -0.023 C 
HETATM   21  C15 UNL     1      27.462   6.196  48.105  1.00  0.00     0.054 C 
HETATM   22  C16 UNL     1      27.665   4.832  48.674  1.00  0.00    -0.022 C 
HETATM   23  C17 UNL     1      26.692   4.174  49.309  1.00  0.00     0.010 C 
ENDBRANCH   5  17
TORSDOF 4
ENDMDL
MODEL 8
REMARK VINA RESULT:      -7.4      2.698      5.262
REMARK  4 active torsions:
REMARK  status: ('A' for Active; 'I' for Inactive)
REMARK       I    between atoms: C1_2  and  N1_3 
REMARK    1  A    between atoms: C1_2  and  C8_11 
REMARK    2  A    between atoms: N1_3  and  C2_4 
REMARK    3  A    between atoms: C2_4  and  C3_5 
REMARK    4  A    between atoms: C10_15  and  C11_16 
ROOT
HETATM    1  C8  UNL     1      25.584   1.350  52.538  1.00  0.00     0.160 A 
HETATM    2  N3  UNL     1      26.918   1.047  52.541  1.00  0.00    -0.228 NA
HETATM    3  C9  UNL     1      26.967  -0.238  52.892  1.00  0.00     0.259 A 
HETATM    4  O2  UNL     1      25.777  -0.685  53.089  1.00  0.00    -0.301 OA
HETATM    5  C10 UNL     1      24.886   0.247  52.888  1.00  0.00     0.121 A 
ENDROOT
BRANCH   1   6
HETATM    6  C1  UNL     1      24.984   2.617  52.180  1.00  0.00     0.273 C 
HETATM    7  O1  UNL     1      24.256   3.586  52.471  1.00  0.00    -0.266 OA
HETATM    8  N1  UNL     1      25.317   3.103  50.859  1.00  0.00    -0.351 N 
HETATM    9  H1  UNL     1      25.970   2.547  50.197  1.00  0.00     0.163 HD
BRANCH   8  10
HETATM   10  C2  UNL     1      24.833   4.348  50.294  1.00  0.00     0.161 C 
BRANCH  10  11
HETATM   11  C3  UNL     1      25.825   5.143  49.579  1.00  0.00    -0.038 A 
HETATM   12  C4  UNL     1      25.890   6.476  49.250  1.00  0.00     0.028 A 
HETATM   13  C5  UNL     1      26.927   7.074  48.572  1.00  0.00     0.116 A 
HETATM   14  N2  UNL     1      27.983   6.295  48.190  1.00  0.00    -0.273 NA
HETATM   15  C6  UNL     1      27.980   4.962  48.486  1.00  0.00     0.116 A 
HETATM   16  C7  UNL     1      26.925   4.376  49.171  1.00  0.00     0.028 A 
ENDBRANCH  10  11
ENDBRANCH   8  10
ENDBRANCH   1   6
BRANCH   5  17
HETATM   17  C11 UNL     1      23.479  -0.056  53.070  1.00  0.00     0.000 C 
HETATM   18  C12 UNL     1      22.635   0.349  52.100  1.00  0.00     0.014 C 
HETATM   19  C13 UNL     1      21.172   0.225  51.942  1.00  0.00    -0.003 C 
HETATM   20  C14 UNL     1      20.408   0.171  53.049  1.00  0.00    -0.023 C 
HETATM   21  C15 UNL     1      20.719   0.211  54.505  1.00  0.00     0.054 C 
HETATM   22  C16 UNL     1      21.792  -0.764  54.859  1.00  0.00    -0.022 C 
HETATM   23  C17 UNL     1      22.950  -0.818  54.195  1.00  0.00     0.010 C 
ENDBRANCH   5  17
TORSDOF 4
ENDMDL
MODEL 9
REMARK VINA RESULT:      -7.4      4.075      6.987
REMARK  4 active torsions:
REMARK  status: ('A' for Active; 'I' for Inactive)
REMARK       I    between atoms: C1_2  and  N1_3 
REMARK    1  A    between atoms: C1_2  and  C8_11 
REMARK    2  A    between atoms: N1_3  and  C2_4 
REMARK    3  A    between atoms: C2_4  and  C3_5 
REMARK    4  A    between atoms: C10_15  and  C11_16 
ROOT
HETATM    1  C8  UNL     1      25.425   3.194  51.247  1.00  0.00     0.160 A 
HETATM    2  N3  UNL     1      24.204   3.781  51.439  1.00  0.00    -0.228 NA
HETATM    3  C9  UNL     1      23.833   3.387  52.656  1.00  0.00     0.259 A 
HETATM    4  O2  UNL     1      24.737   2.627  53.167  1.00  0.00    -0.301 OA
HETATM    5  C10 UNL     1      25.739   2.472  52.345  1.00  0.00     0.121 A 
ENDROOT
BRANCH   1   6
HETATM    6  C1  UNL     1      26.284   3.338  50.091  1.00  0.00     0.273 C 
HETATM    7  O1  UNL     1      26.955   2.823  49.175  1.00  0.00    -0.266 OA
HETATM    8  N1  UNL     1      26.585   4.702  49.716  1.00  0.00    -0.351 N 
HETATM    9  H1  UNL     1      26.188   5.544  50.270  1.00  0.00     0.163 HD
BRANCH   8  10
HETATM   10  C2  UNL     1      27.420   5.081  48.592  1.00  0.00     0.161 C 
BRANCH  10  11
HETATM   11  C3  UNL     1      27.726   6.504  48.487  1.00  0.00    -0.038 A 
HETATM   12  C4  UNL     1      27.105   7.629  48.976  1.00  0.00     0.028 A 
HETATM   13  C5  UNL     1      27.547   8.919  48.791  1.00  0.00     0.116 A 
HETATM   14  N2  UNL     1      28.690   9.112  48.067  1.00  0.00    -0.273 NA
HETATM   15  C6  UNL     1      29.354   8.036  47.553  1.00  0.00     0.116 A 
HETATM   16  C7  UNL     1      28.894   6.741  47.750  1.00  0.00     0.028 A 
ENDBRANCH  10  11
ENDBRANCH   8  10
ENDBRANCH   1   6
BRANCH   5  17
HETATM   17  C11 UNL     1      26.860   1.637  52.733  1.00  0.00     0.000 C 
HETATM   18  C12 UNL     1      26.733   0.309  52.531  1.00  0.00     0.014 C 
HETATM   19  C13 UNL     1      27.639  -0.826  52.797  1.00  0.00    -0.003 C 
HETATM   20  C14 UNL     1      28.517  -0.725  53.811  1.00  0.00    -0.023 C 
HETATM   21  C15 UNL     1      28.808   0.347  54.805  1.00  0.00     0.054 C 
HETATM   22  C16 UNL     1      28.997   1.669  54.138  1.00  0.00    -0.022 C 
HETATM   23  C17 UNL     1      28.117   2.155  53.259  1.00  0.00     0.010 C 
ENDBRANCH   5  17
TORSDOF 4
ENDMDL
