MODEL 1
REMARK VINA RESULT:      -7.2      0.000      0.000
REMARK  8 active torsions:
REMARK  status: ('A' for Active; 'I' for Inactive)
REMARK    1  A    between atoms: C2_2  and  C3_3 
REMARK    2  A    between atoms: C3_3  and  C4_4 
REMARK    3  A    between atoms: C5_5  and  C6_6 
REMARK       I    between atoms: C6_6  and  N1_8 
REMARK    4  A    between atoms: N1_8  and  C7_9 
REMARK    5  A    between atoms: C9_11  and  S1_12 
REMARK    6  A    between atoms: S1_12  and  C10_13 
REMARK    7  A    between atoms: C10_13  and  C11_14 
REMARK    8  A    between atoms: C12_15  and  C13_17 
ROOT
HETATM    1  C7  UNL     1      26.200   2.137  51.646  1.00  0.00     0.234 C 
HETATM    2  C8  UNL     1      24.909   1.548  52.127  1.00  0.00     0.060 C 
HETATM    3  C9  UNL     1      24.478   0.496  52.820  1.00  0.00     0.095 C 
HETATM    4  N2  UNL     1      25.624  -0.252  53.173  1.00  0.00    -0.235 NA
HETATM    5  C14 UNL     1      26.383  -0.049  54.196  1.00  0.00     0.234 C 
HETATM    6  N3  UNL     1      27.551  -0.479  54.928  1.00  0.00    -0.240 NA
HETATM    7  C15 UNL     1      28.548   0.307  54.946  1.00  0.00     0.088 C 
HETATM    8  C16 UNL     1      28.996   0.802  53.801  1.00  0.00     0.053 C 
HETATM    9  C17 UNL     1      27.951   1.088  52.830  1.00  0.00     0.115 C 
HETATM   10  N4  UNL     1      27.171   2.137  52.739  1.00  0.00    -0.272 NA
ENDROOT
BRANCH   1  11
HETATM   11  N1  UNL     1      25.963   3.478  51.153  1.00  0.00    -0.324 N 
HETATM   12  C6  UNL     1      26.460   3.791  49.862  1.00  0.00     0.298 C 
HETATM   13  O1  UNL     1      27.092   2.944  49.147  1.00  0.00    -0.258 OA
HETATM   14  H8  UNL     1      25.455   4.218  51.684  1.00  0.00     0.165 HD
BRANCH  12  15
HETATM   15  C5  UNL     1      26.289   5.098  49.255  1.00  0.00    -0.006 C 
HETATM   16  C4  UNL     1      26.161   6.180  48.735  1.00  0.00    -0.096 C 
BRANCH  16  17
HETATM   17  C3  UNL     1      26.021   7.490  48.097  1.00  0.00     0.094 C 
BRANCH  17  18
HETATM   18  C2  UNL     1      27.187   8.335  48.557  1.00  0.00     0.007 C 
HETATM   19  C1  UNL     1      26.848   8.754  49.990  1.00  0.00     0.006 C 
ENDBRANCH  17  18
ENDBRANCH  16  17
ENDBRANCH  12  15
ENDBRANCH   1  11
BRANCH   3  20
HETATM   20  S1  UNL     1      22.891  -0.086  53.323  1.00  0.00    -0.107 SA
BRANCH  20  21
HETATM   21  C10 UNL     1      21.525   0.878  52.631  1.00  0.00     0.111 C 
BRANCH  21  22
HETATM   22  C11 UNL     1      21.406   0.659  51.164  1.00  0.00     0.022 C 
HETATM   23  C12 UNL     1      21.736   1.490  50.199  1.00  0.00     0.104 C 
HETATM   24  F1  UNL     1      22.250   2.701  50.512  1.00  0.00    -0.210 F 
BRANCH  23  25
HETATM   25  C13 UNL     1      21.507   1.007  48.813  1.00  0.00     0.184 C 
HETATM   26 CL1  UNL     1      22.469   1.995  47.697  1.00  0.00    -0.123 Cl
ENDBRANCH  23  25
ENDBRANCH  21  22
ENDBRANCH  20  21
ENDBRANCH   3  20
TORSDOF 8
ENDMDL
MODEL 2
REMARK VINA RESULT:      -7.1      2.157      2.383
REMARK  8 active torsions:
REMARK  status: ('A' for Active; 'I' for Inactive)
REMARK    1  A    between atoms: C2_2  and  C3_3 
REMARK    2  A    between atoms: C3_3  and  C4_4 
REMARK    3  A    between atoms: C5_5  and  C6_6 
REMARK       I    between atoms: C6_6  and  N1_8 
REMARK    4  A    between atoms: N1_8  and  C7_9 
REMARK    5  A    between atoms: C9_11  and  S1_12 
REMARK    6  A    between atoms: S1_12  and  C10_13 
REMARK    7  A    between atoms: C10_13  and  C11_14 
REMARK    8  A    between atoms: C12_15  and  C13_17 
ROOT
HETATM    1  C7  UNL     1      26.062   2.164  51.676  1.00  0.00     0.234 C 
HETATM    2  C8  UNL     1      24.782   1.570  52.180  1.00  0.00     0.060 C 
HETATM    3  C9  UNL     1      24.368   0.512  52.874  1.00  0.00     0.095 C 
HETATM    4  N2  UNL     1      25.522  -0.237  53.196  1.00  0.00    -0.235 NA
HETATM    5  C14 UNL     1      26.304  -0.041  54.204  1.00  0.00     0.234 C 
HETATM    6  N3  UNL     1      27.487  -0.475  54.907  1.00  0.00    -0.240 NA
HETATM    7  C15 UNL     1      28.483   0.313  54.909  1.00  0.00     0.088 C 
HETATM    8  C16 UNL     1      28.906   0.818  53.758  1.00  0.00     0.053 C 
HETATM    9  C17 UNL     1      27.840   1.109  52.813  1.00  0.00     0.115 C 
HETATM   10  N4  UNL     1      27.057   2.157  52.747  1.00  0.00    -0.272 NA
ENDROOT
BRANCH   1  11
HETATM   11  N1  UNL     1      25.812   3.508  51.198  1.00  0.00    -0.324 N 
HETATM   12  C6  UNL     1      26.333   3.851  49.923  1.00  0.00     0.298 C 
HETATM   13  O1  UNL     1      26.997   3.027  49.211  1.00  0.00    -0.258 OA
HETATM   14  H8  UNL     1      25.279   4.231  51.728  1.00  0.00     0.165 HD
BRANCH  12  15
HETATM   15  C5  UNL     1      26.154   5.165  49.333  1.00  0.00    -0.006 C 
HETATM   16  C4  UNL     1      26.002   6.248  48.824  1.00  0.00    -0.096 C 
BRANCH  16  17
HETATM   17  C3  UNL     1      25.824   7.556  48.190  1.00  0.00     0.094 C 
BRANCH  17  18
HETATM   18  C2  UNL     1      27.029   8.394  48.552  1.00  0.00     0.007 C 
HETATM   19  C1  UNL     1      26.841   8.762  50.027  1.00  0.00     0.006 C 
ENDBRANCH  17  18
ENDBRANCH  16  17
ENDBRANCH  12  15
ENDBRANCH   1  11
BRANCH   3  20
HETATM   20  S1  UNL     1      22.793  -0.076  53.407  1.00  0.00    -0.107 SA
BRANCH  20  21
HETATM   21  C10 UNL     1      21.434   0.451  52.335  1.00  0.00     0.111 C 
BRANCH  21  22
HETATM   22  C11 UNL     1      20.130  -0.065  52.831  1.00  0.00     0.022 C 
HETATM   23  C12 UNL     1      19.025  -0.252  52.140  1.00  0.00     0.104 C 
HETATM   24  F1  UNL     1      19.011   0.041  50.820  1.00  0.00    -0.210 F 
BRANCH  23  25
HETATM   25  C13 UNL     1      17.862  -0.783  52.897  1.00  0.00     0.184 C 
HETATM   26 CL1  UNL     1      18.343  -2.290  53.700  1.00  0.00    -0.123 Cl
ENDBRANCH  23  25
ENDBRANCH  21  22
ENDBRANCH  20  21
ENDBRANCH   3  20
TORSDOF 8
ENDMDL
MODEL 3
REMARK VINA RESULT:      -7.0      1.542      1.747
REMARK  8 active torsions:
REMARK  status: ('A' for Active; 'I' for Inactive)
REMARK    1  A    between atoms: C2_2  and  C3_3 
REMARK    2  A    between atoms: C3_3  and  C4_4 
REMARK    3  A    between atoms: C5_5  and  C6_6 
REMARK       I    between atoms: C6_6  and  N1_8 
REMARK    4  A    between atoms: N1_8  and  C7_9 
REMARK    5  A    between atoms: C9_11  and  S1_12 
REMARK    6  A    between atoms: S1_12  and  C10_13 
REMARK    7  A    between atoms: C10_13  and  C11_14 
REMARK    8  A    between atoms: C12_15  and  C13_17 
ROOT
HETATM    1  C7  UNL     1      26.017   2.015  51.744  1.00  0.00     0.234 C 
HETATM    2  C8  UNL     1      24.811   1.332  52.314  1.00  0.00     0.060 C 
HETATM    3  C9  UNL     1      24.512   0.259  53.043  1.00  0.00     0.095 C 
HETATM    4  N2  UNL     1      25.735  -0.390  53.328  1.00  0.00    -0.235 NA
HETATM    5  C14 UNL     1      26.539  -0.112  54.297  1.00  0.00     0.234 C 
HETATM    6  N3  UNL     1      27.782  -0.437  54.956  1.00  0.00    -0.240 NA
HETATM    7  C15 UNL     1      28.712   0.427  54.902  1.00  0.00     0.088 C 
HETATM    8  C16 UNL     1      29.044   0.939  53.724  1.00  0.00     0.053 C 
HETATM    9  C17 UNL     1      27.920   1.126  52.821  1.00  0.00     0.115 C 
HETATM   10  N4  UNL     1      27.053   2.108  52.771  1.00  0.00    -0.272 NA
ENDROOT
BRANCH   1  11
HETATM   11  N1  UNL     1      25.642   3.325  51.255  1.00  0.00    -0.324 N 
HETATM   12  C6  UNL     1      26.201   3.739  50.018  1.00  0.00     0.298 C 
HETATM   13  O1  UNL     1      27.002   3.007  49.348  1.00  0.00    -0.258 OA
HETATM   14  H8  UNL     1      24.993   3.974  51.751  1.00  0.00     0.165 HD
BRANCH  12  15
HETATM   15  C5  UNL     1      25.905   5.029  49.421  1.00  0.00    -0.006 C 
HETATM   16  C4  UNL     1      25.663   6.110  48.942  1.00  0.00    -0.096 C 
BRANCH  16  17
HETATM   17  C3  UNL     1      25.365   7.427  48.378  1.00  0.00     0.094 C 
BRANCH  17  18
HETATM   18  C2  UNL     1      23.972   7.801  48.832  1.00  0.00     0.007 C 
HETATM   19  C1  UNL     1      24.109   8.160  50.315  1.00  0.00     0.006 C 
ENDBRANCH  17  18
ENDBRANCH  16  17
ENDBRANCH  12  15
ENDBRANCH   1  11
BRANCH   3  20
HETATM   20  S1  UNL     1      23.012  -0.440  53.654  1.00  0.00    -0.107 SA
BRANCH  20  21
HETATM   21  C10 UNL     1      21.577  -0.066  52.618  1.00  0.00     0.111 C 
BRANCH  21  22
HETATM   22  C11 UNL     1      21.205   1.371  52.718  1.00  0.00     0.022 C 
HETATM   23  C12 UNL     1      21.333   2.299  51.794  1.00  0.00     0.104 C 
HETATM   24  F1  UNL     1      21.857   1.970  50.591  1.00  0.00    -0.210 F 
BRANCH  23  25
HETATM   25  C13 UNL     1      20.877   3.662  52.168  1.00  0.00     0.184 C 
HETATM   26 CL1  UNL     1      22.296   4.712  52.344  1.00  0.00    -0.123 Cl
ENDBRANCH  23  25
ENDBRANCH  21  22
ENDBRANCH  20  21
ENDBRANCH   3  20
TORSDOF 8
ENDMDL
MODEL 4
REMARK VINA RESULT:      -7.0      4.050      8.028
REMARK  8 active torsions:
REMARK  status: ('A' for Active; 'I' for Inactive)
REMARK    1  A    between atoms: C2_2  and  C3_3 
REMARK    2  A    between atoms: C3_3  and  C4_4 
REMARK    3  A    between atoms: C5_5  and  C6_6 
REMARK       I    between atoms: C6_6  and  N1_8 
REMARK    4  A    between atoms: N1_8  and  C7_9 
REMARK    5  A    between atoms: C9_11  and  S1_12 
REMARK    6  A    between atoms: S1_12  and  C10_13 
REMARK    7  A    between atoms: C10_13  and  C11_14 
REMARK    8  A    between atoms: C12_15  and  C13_17 
ROOT
HETATM    1  C7  UNL     1      22.592   0.757  53.257  1.00  0.00     0.234 C 
HETATM    2  C8  UNL     1      22.753   2.049  52.516  1.00  0.00     0.060 C 
HETATM    3  C9  UNL     1      23.705   2.933  52.228  1.00  0.00     0.095 C 
HETATM    4  N2  UNL     1      24.891   2.460  52.832  1.00  0.00    -0.235 NA
HETATM    5  C14 UNL     1      25.714   1.601  52.332  1.00  0.00     0.234 C 
HETATM    6  N3  UNL     1      26.938   0.860  52.521  1.00  0.00    -0.240 NA
HETATM    7  C15 UNL     1      26.841  -0.399  52.655  1.00  0.00     0.088 C 
HETATM    8  C16 UNL     1      25.978  -0.887  53.536  1.00  0.00     0.053 C 
HETATM    9  C17 UNL     1      24.750  -0.117  53.649  1.00  0.00     0.115 C 
HETATM   10  N4  UNL     1      23.680  -0.151  52.893  1.00  0.00    -0.272 NA
ENDROOT
BRANCH   1  11
HETATM   11  N1  UNL     1      21.301   0.181  52.947  1.00  0.00    -0.324 N 
HETATM   12  C6  UNL     1      20.748  -0.719  53.895  1.00  0.00     0.298 C 
HETATM   13  O1  UNL     1      21.344  -1.023  54.980  1.00  0.00    -0.258 OA
HETATM   14  H8  UNL     1      20.759   0.385  52.080  1.00  0.00     0.165 HD
BRANCH  12  15
HETATM   15  C5  UNL     1      19.461  -1.364  53.701  1.00  0.00    -0.006 C 
HETATM   16  C4  UNL     1      18.398  -1.915  53.553  1.00  0.00    -0.096 C 
BRANCH  16  17
HETATM   17  C3  UNL     1      17.117  -2.600  53.376  1.00  0.00     0.094 C 
BRANCH  17  18
HETATM   18  C2  UNL     1      17.390  -4.085  53.461  1.00  0.00     0.007 C 
HETATM   19  C1  UNL     1      16.063  -4.720  53.888  1.00  0.00     0.006 C 
ENDBRANCH  17  18
ENDBRANCH  16  17
ENDBRANCH  12  15
ENDBRANCH   1  11
BRANCH   3  20
HETATM   20  S1  UNL     1      23.752   4.447  51.323  1.00  0.00    -0.107 SA
BRANCH  20  21
HETATM   21  C10 UNL     1      24.178   4.222  49.579  1.00  0.00     0.111 C 
BRANCH  21  22
HETATM   22  C11 UNL     1      25.264   5.154  49.170  1.00  0.00     0.022 C 
HETATM   23  C12 UNL     1      26.533   4.869  48.968  1.00  0.00     0.104 C 
HETATM   24  F1  UNL     1      26.963   3.598  49.137  1.00  0.00    -0.210 F 
BRANCH  23  25
HETATM   25  C13 UNL     1      27.402   6.003  48.563  1.00  0.00     0.184 C 
HETATM   26 CL1  UNL     1      29.033   5.386  48.239  1.00  0.00    -0.123 Cl
ENDBRANCH  23  25
ENDBRANCH  21  22
ENDBRANCH  20  21
ENDBRANCH   3  20
TORSDOF 8
ENDMDL
MODEL 5
REMARK VINA RESULT:      -6.9      3.693      5.885
REMARK  8 active torsions:
REMARK  status: ('A' for Active; 'I' for Inactive)
REMARK    1  A    between atoms: C2_2  and  C3_3 
REMARK    2  A    between atoms: C3_3  and  C4_4 
REMARK    3  A    between atoms: C5_5  and  C6_6 
REMARK       I    between atoms: C6_6  and  N1_8 
REMARK    4  A    between atoms: N1_8  and  C7_9 
REMARK    5  A    between atoms: C9_11  and  S1_12 
REMARK    6  A    between atoms: S1_12  and  C10_13 
REMARK    7  A    between atoms: C10_13  and  C11_14 
REMARK    8  A    between atoms: C12_15  and  C13_17 
ROOT
HETATM    1  C7  UNL     1      25.190   3.466  50.158  1.00  0.00     0.234 C 
HETATM    2  C8  UNL     1      25.201   2.460  51.268  1.00  0.00     0.060 C 
HETATM    3  C9  UNL     1      24.344   1.704  51.951  1.00  0.00     0.095 C 
HETATM    4  N2  UNL     1      23.059   1.984  51.434  1.00  0.00    -0.235 NA
HETATM    5  C14 UNL     1      22.517   1.438  50.398  1.00  0.00     0.234 C 
HETATM    6  N3  UNL     1      21.356   1.378  49.542  1.00  0.00    -0.240 NA
HETATM    7  C15 UNL     1      21.490   1.795  48.350  1.00  0.00     0.088 C 
HETATM    8  C16 UNL     1      22.035   2.986  48.144  1.00  0.00     0.053 C 
HETATM    9  C17 UNL     1      23.095   3.323  49.081  1.00  0.00     0.115 C 
HETATM   10  N4  UNL     1      24.358   2.972  49.062  1.00  0.00    -0.272 NA
ENDROOT
BRANCH   1  11
HETATM   11  N1  UNL     1      26.548   3.711  49.717  1.00  0.00    -0.324 N 
HETATM   12  C6  UNL     1      26.793   4.919  49.015  1.00  0.00     0.298 C 
HETATM   13  O1  UNL     1      25.873   5.768  48.769  1.00  0.00    -0.258 OA
HETATM   14  H8  UNL     1      27.347   3.061  49.884  1.00  0.00     0.165 HD
BRANCH  12  15
HETATM   15  C5  UNL     1      28.108   5.282  48.520  1.00  0.00    -0.006 C 
HETATM   16  C4  UNL     1      29.207   5.590  48.127  1.00  0.00    -0.096 C 
BRANCH  16  17
HETATM   17  C3  UNL     1      30.541   5.976  47.664  1.00  0.00     0.094 C 
BRANCH  17  18
HETATM   18  C2  UNL     1      31.354   4.707  47.539  1.00  0.00     0.007 C 
HETATM   19  C1  UNL     1      32.473   5.035  46.547  1.00  0.00     0.006 C 
ENDBRANCH  17  18
ENDBRANCH  16  17
ENDBRANCH  12  15
ENDBRANCH   1  11
BRANCH   3  20
HETATM   20  S1  UNL     1      24.501   0.537  53.264  1.00  0.00    -0.107 SA
BRANCH  20  21
HETATM   21  C10 UNL     1      25.732  -0.747  52.934  1.00  0.00     0.111 C 
BRANCH  21  22
HETATM   22  C11 UNL     1      27.113  -0.216  53.090  1.00  0.00     0.022 C 
HETATM   23  C12 UNL     1      27.723   0.119  54.207  1.00  0.00     0.104 C 
HETATM   24  F1  UNL     1      27.071  -0.013  55.385  1.00  0.00    -0.210 F 
BRANCH  23  25
HETATM   25  C13 UNL     1      29.112   0.626  54.068  1.00  0.00     0.184 C 
HETATM   26 CL1  UNL     1      30.153  -0.703  53.522  1.00  0.00    -0.123 Cl
ENDBRANCH  23  25
ENDBRANCH  21  22
ENDBRANCH  20  21
ENDBRANCH   3  20
TORSDOF 8
ENDMDL
MODEL 6
REMARK VINA RESULT:      -6.8      3.760      7.572
REMARK  8 active torsions:
REMARK  status: ('A' for Active; 'I' for Inactive)
REMARK    1  A    between atoms: C2_2  and  C3_3 
REMARK    2  A    between atoms: C3_3  and  C4_4 
REMARK    3  A    between atoms: C5_5  and  C6_6 
REMARK       I    between atoms: C6_6  and  N1_8 
REMARK    4  A    between atoms: N1_8  and  C7_9 
REMARK    5  A    between atoms: C9_11  and  S1_12 
REMARK    6  A    between atoms: S1_12  and  C10_13 
REMARK    7  A    between atoms: C10_13  and  C11_14 
REMARK    8  A    between atoms: C12_15  and  C13_17 
ROOT
HETATM    1  C7  UNL     1      22.648   0.664  53.223  1.00  0.00     0.234 C 
HETATM    2  C8  UNL     1      22.754   2.045  52.650  1.00  0.00     0.060 C 
HETATM    3  C9  UNL     1      23.679   2.976  52.432  1.00  0.00     0.095 C 
HETATM    4  N2  UNL     1      24.901   2.452  52.910  1.00  0.00    -0.235 NA
HETATM    5  C14 UNL     1      25.707   1.681  52.262  1.00  0.00     0.234 C 
HETATM    6  N3  UNL     1      26.949   0.945  52.293  1.00  0.00    -0.240 NA
HETATM    7  C15 UNL     1      26.874  -0.323  52.265  1.00  0.00     0.088 C 
HETATM    8  C16 UNL     1      26.064  -0.937  53.117  1.00  0.00     0.053 C 
HETATM    9  C17 UNL     1      24.833  -0.212  53.390  1.00  0.00     0.115 C 
HETATM   10  N4  UNL     1      23.726  -0.167  52.690  1.00  0.00    -0.272 NA
ENDROOT
BRANCH   1  11
HETATM   11  N1  UNL     1      21.349   0.109  52.904  1.00  0.00    -0.324 N 
HETATM   12  C6  UNL     1      20.773  -0.777  53.851  1.00  0.00     0.298 C 
HETATM   13  O1  UNL     1      21.355  -1.086  54.943  1.00  0.00    -0.258 OA
HETATM   14  H8  UNL     1      20.818   0.319  52.031  1.00  0.00     0.165 HD
BRANCH  12  15
HETATM   15  C5  UNL     1      19.478  -1.400  53.650  1.00  0.00    -0.006 C 
HETATM   16  C4  UNL     1      18.410  -1.935  53.474  1.00  0.00    -0.096 C 
BRANCH  16  17
HETATM   17  C3  UNL     1      17.122  -2.591  53.246  1.00  0.00     0.094 C 
BRANCH  17  18
HETATM   18  C2  UNL     1      17.286  -4.042  53.638  1.00  0.00     0.007 C 
HETATM   19  C1  UNL     1      15.864  -4.605  53.722  1.00  0.00     0.006 C 
ENDBRANCH  17  18
ENDBRANCH  16  17
ENDBRANCH  12  15
ENDBRANCH   1  11
BRANCH   3  20
HETATM   20  S1  UNL     1      23.661   4.595  51.731  1.00  0.00    -0.107 SA
BRANCH  20  21
HETATM   21  C10 UNL     1      24.233   4.636  50.016  1.00  0.00     0.111 C 
BRANCH  21  22
HETATM   22  C11 UNL     1      23.756   3.444  49.264  1.00  0.00     0.022 C 
HETATM   23  C12 UNL     1      22.535   3.201  48.835  1.00  0.00     0.104 C 
HETATM   24  F1  UNL     1      21.556   4.103  49.073  1.00  0.00    -0.210 F 
BRANCH  23  25
HETATM   25  C13 UNL     1      22.340   1.921  48.107  1.00  0.00     0.184 C 
HETATM   26 CL1  UNL     1      21.266   0.879  49.059  1.00  0.00    -0.123 Cl
ENDBRANCH  23  25
ENDBRANCH  21  22
ENDBRANCH  20  21
ENDBRANCH   3  20
TORSDOF 8
ENDMDL
MODEL 7
REMARK VINA RESULT:      -6.7      3.441      5.701
REMARK  8 active torsions:
REMARK  status: ('A' for Active; 'I' for Inactive)
REMARK    1  A    between atoms: C2_2  and  C3_3 
REMARK    2  A    between atoms: C3_3  and  C4_4 
REMARK    3  A    between atoms: C5_5  and  C6_6 
REMARK       I    between atoms: C6_6  and  N1_8 
REMARK    4  A    between atoms: N1_8  and  C7_9 
REMARK    5  A    between atoms: C9_11  and  S1_12 
REMARK    6  A    between atoms: S1_12  and  C10_13 
REMARK    7  A    between atoms: C10_13  and  C11_14 
REMARK    8  A    between atoms: C12_15  and  C13_17 
ROOT
HETATM    1  C7  UNL     1      23.688   2.641  51.606  1.00  0.00     0.234 C 
HETATM    2  C8  UNL     1      24.391   1.535  52.334  1.00  0.00     0.060 C 
HETATM    3  C9  UNL     1      24.105   0.535  53.164  1.00  0.00     0.095 C 
HETATM    4  N2  UNL     1      22.711   0.588  53.395  1.00  0.00    -0.235 NA
HETATM    5  C14 UNL     1      21.794   0.066  52.653  1.00  0.00     0.234 C 
HETATM    6  N3  UNL     1      20.378  -0.142  52.464  1.00  0.00    -0.240 NA
HETATM    7  C15 UNL     1      19.833   0.434  51.472  1.00  0.00     0.088 C 
HETATM    8  C16 UNL     1      20.039   1.731  51.291  1.00  0.00     0.053 C 
HETATM    9  C17 UNL     1      21.375   2.175  51.656  1.00  0.00     0.115 C 
HETATM   10  N4  UNL     1      22.486   2.113  50.963  1.00  0.00    -0.272 NA
ENDROOT
BRANCH   1  11
HETATM   11  N1  UNL     1      24.589   3.227  50.636  1.00  0.00    -0.324 N 
HETATM   12  C6  UNL     1      24.709   4.641  50.634  1.00  0.00     0.298 C 
HETATM   13  O1  UNL     1      24.061   5.384  51.443  1.00  0.00    -0.258 OA
HETATM   14  H8  UNL     1      25.148   2.679  49.946  1.00  0.00     0.165 HD
BRANCH  12  15
HETATM   15  C5  UNL     1      25.577   5.350  49.712  1.00  0.00    -0.006 C 
HETATM   16  C4  UNL     1      26.315   5.932  48.954  1.00  0.00    -0.096 C 
BRANCH  16  17
HETATM   17  C3  UNL     1      27.223   6.638  48.049  1.00  0.00     0.094 C 
BRANCH  17  18
HETATM   18  C2  UNL     1      28.585   6.000  48.197  1.00  0.00     0.007 C 
HETATM   19  C1  UNL     1      29.561   6.957  47.508  1.00  0.00     0.006 C 
ENDBRANCH  17  18
ENDBRANCH  16  17
ENDBRANCH  12  15
ENDBRANCH   1  11
BRANCH   3  20
HETATM   20  S1  UNL     1      25.055  -0.720  53.960  1.00  0.00    -0.107 SA
BRANCH  20  21
HETATM   21  C10 UNL     1      26.385  -1.374  52.923  1.00  0.00     0.111 C 
BRANCH  21  22
HETATM   22  C11 UNL     1      27.679  -0.707  53.230  1.00  0.00     0.022 C 
HETATM   23  C12 UNL     1      28.867  -1.267  53.330  1.00  0.00     0.104 C 
HETATM   24  F1  UNL     1      28.989  -2.601  53.143  1.00  0.00    -0.210 F 
BRANCH  23  25
HETATM   25  C13 UNL     1      29.995  -0.356  53.650  1.00  0.00     0.184 C 
HETATM   26 CL1  UNL     1      29.340   1.237  54.077  1.00  0.00    -0.123 Cl
ENDBRANCH  23  25
ENDBRANCH  21  22
ENDBRANCH  20  21
ENDBRANCH   3  20
TORSDOF 8
ENDMDL
MODEL 8
REMARK VINA RESULT:      -6.4      5.650      8.896
REMARK  8 active torsions:
REMARK  status: ('A' for Active; 'I' for Inactive)
REMARK    1  A    between atoms: C2_2  and  C3_3 
REMARK    2  A    between atoms: C3_3  and  C4_4 
REMARK    3  A    between atoms: C5_5  and  C6_6 
REMARK       I    between atoms: C6_6  and  N1_8 
REMARK    4  A    between atoms: N1_8  and  C7_9 
REMARK    5  A    between atoms: C9_11  and  S1_12 
REMARK    6  A    between atoms: S1_12  and  C10_13 
REMARK    7  A    between atoms: C10_13  and  C11_14 
REMARK    8  A    between atoms: C12_15  and  C13_17 
ROOT
HETATM    1  C7  UNL     1      29.865   8.296  48.679  1.00  0.00     0.234 C 
HETATM    2  C8  UNL     1      28.388   8.069  48.787  1.00  0.00     0.060 C 
HETATM    3  C9  UNL     1      27.304   8.695  49.239  1.00  0.00     0.095 C 
HETATM    4  N2  UNL     1      27.742   9.932  49.765  1.00  0.00    -0.235 NA
HETATM    5  C14 UNL     1      27.937  11.019  49.099  1.00  0.00     0.234 C 
HETATM    6  N3  UNL     1      28.339  12.404  49.155  1.00  0.00    -0.240 NA
HETATM    7  C15 UNL     1      29.428  12.717  48.581  1.00  0.00     0.088 C 
HETATM    8  C16 UNL     1      30.518  12.009  48.843  1.00  0.00     0.053 C 
HETATM    9  C17 UNL     1      30.268  10.592  49.050  1.00  0.00     0.115 C 
HETATM   10  N4  UNL     1      30.114   9.640  48.161  1.00  0.00    -0.272 NA
ENDROOT
BRANCH   1  11
HETATM   11  N1  UNL     1      30.445   7.286  47.818  1.00  0.00    -0.324 N 
HETATM   12  C6  UNL     1      31.138   6.218  48.447  1.00  0.00     0.298 C 
HETATM   13  O1  UNL     1      31.258   6.132  49.714  1.00  0.00    -0.258 OA
HETATM   14  H8  UNL     1      30.385   7.295  46.777  1.00  0.00     0.165 HD
BRANCH  12  15
HETATM   15  C5  UNL     1      31.764   5.144  47.697  1.00  0.00    -0.006 C 
HETATM   16  C4  UNL     1      32.271   4.238  47.083  1.00  0.00    -0.096 C 
BRANCH  16  17
HETATM   17  C3  UNL     1      32.881   3.127  46.350  1.00  0.00     0.094 C 
BRANCH  17  18
HETATM   18  C2  UNL     1      34.369   3.389  46.300  1.00  0.00     0.007 C 
HETATM   19  C1  UNL     1      34.840   3.341  47.756  1.00  0.00     0.006 C 
ENDBRANCH  17  18
ENDBRANCH  16  17
ENDBRANCH  12  15
ENDBRANCH   1  11
BRANCH   3  20
HETATM   20  S1  UNL     1      25.586   8.300  49.303  1.00  0.00    -0.107 SA
BRANCH  20  21
HETATM   21  C10 UNL     1      25.160   6.814  48.365  1.00  0.00     0.111 C 
BRANCH  21  22
HETATM   22  C11 UNL     1      25.413   5.585  49.165  1.00  0.00     0.022 C 
HETATM   23  C12 UNL     1      26.455   4.783  49.098  1.00  0.00     0.104 C 
HETATM   24  F1  UNL     1      27.446   5.054  48.218  1.00  0.00    -0.210 F 
BRANCH  23  25
HETATM   25  C13 UNL     1      26.446   3.620  50.022  1.00  0.00     0.184 C 
HETATM   26 CL1  UNL     1      24.781   3.027  50.179  1.00  0.00    -0.123 Cl
ENDBRANCH  23  25
ENDBRANCH  21  22
ENDBRANCH  20  21
ENDBRANCH   3  20
TORSDOF 8
ENDMDL
MODEL 9
REMARK VINA RESULT:      -6.2      3.302      5.068
REMARK  8 active torsions:
REMARK  status: ('A' for Active; 'I' for Inactive)
REMARK    1  A    between atoms: C2_2  and  C3_3 
REMARK    2  A    between atoms: C3_3  and  C4_4 
REMARK    3  A    between atoms: C5_5  and  C6_6 
REMARK       I    between atoms: C6_6  and  N1_8 
REMARK    4  A    between atoms: N1_8  and  C7_9 
REMARK    5  A    between atoms: C9_11  and  S1_12 
REMARK    6  A    between atoms: S1_12  and  C10_13 
REMARK    7  A    between atoms: C10_13  and  C11_14 
REMARK    8  A    between atoms: C12_15  and  C13_17 
ROOT
HETATM    1  C7  UNL     1      25.104   3.845  49.778  1.00  0.00     0.234 C 
HETATM    2  C8  UNL     1      25.298   3.108  51.068  1.00  0.00     0.060 C 
HETATM    3  C9  UNL     1      24.582   2.407  51.944  1.00  0.00     0.095 C 
HETATM    4  N2  UNL     1      23.253   2.397  51.464  1.00  0.00    -0.235 NA
HETATM    5  C14 UNL     1      22.760   1.577  50.598  1.00  0.00     0.234 C 
HETATM    6  N3  UNL     1      21.592   1.182  49.849  1.00  0.00    -0.240 NA
HETATM    7  C15 UNL     1      21.623   1.351  48.590  1.00  0.00     0.088 C 
HETATM    8  C16 UNL     1      21.983   2.534  48.110  1.00  0.00     0.053 C 
HETATM    9  C17 UNL     1      23.016   3.199  48.889  1.00  0.00     0.115 C 
HETATM   10  N4  UNL     1      24.314   3.024  48.862  1.00  0.00    -0.272 NA
ENDROOT
BRANCH   1  11
HETATM   11  N1  UNL     1      26.396   4.171  49.211  1.00  0.00    -0.324 N 
HETATM   12  C6  UNL     1      26.654   5.537  48.926  1.00  0.00     0.298 C 
HETATM   13  O1  UNL     1      25.799   6.456  49.150  1.00  0.00    -0.258 OA
HETATM   14  H8  UNL     1      27.140   3.470  49.002  1.00  0.00     0.165 HD
BRANCH  12  15
HETATM   15  C5  UNL     1      27.909   5.993  48.356  1.00  0.00    -0.006 C 
HETATM   16  C4  UNL     1      28.949   6.359  47.866  1.00  0.00    -0.096 C 
BRANCH  16  17
HETATM   17  C3  UNL     1      30.213   6.786  47.264  1.00  0.00     0.094 C 
BRANCH  17  18
HETATM   18  C2  UNL     1      31.325   6.275  48.153  1.00  0.00     0.007 C 
HETATM   19  C1  UNL     1      31.422   7.280  49.304  1.00  0.00     0.006 C 
ENDBRANCH  17  18
ENDBRANCH  16  17
ENDBRANCH  12  15
ENDBRANCH   1  11
BRANCH   3  20
HETATM   20  S1  UNL     1      24.950   1.576  53.456  1.00  0.00    -0.107 SA
BRANCH  20  21
HETATM   21  C10 UNL     1      24.698  -0.213  53.366  1.00  0.00     0.111 C 
BRANCH  21  22
HETATM   22  C11 UNL     1      23.260  -0.559  53.530  1.00  0.00     0.022 C 
HETATM   23  C12 UNL     1      22.672  -1.064  54.594  1.00  0.00     0.104 C 
HETATM   24  F1  UNL     1      23.407  -1.319  55.700  1.00  0.00    -0.210 F 
BRANCH  23  25
HETATM   25  C13 UNL     1      21.212  -1.313  54.479  1.00  0.00     0.184 C 
HETATM   26 CL1  UNL     1      20.576  -0.365  53.121  1.00  0.00    -0.123 Cl
ENDBRANCH  23  25
ENDBRANCH  21  22
ENDBRANCH  20  21
ENDBRANCH   3  20
TORSDOF 8
ENDMDL
