MODEL 1
REMARK VINA RESULT:      -9.2      0.000      0.000
REMARK  5 active torsions:
REMARK  status: ('A' for Active; 'I' for Inactive)
REMARK    1  A    between atoms: C1_2  and  O2_3 
REMARK    2  A    between atoms: C1_2  and  C2_4 
REMARK    3  A    between atoms: C10_13  and  N2_14 
REMARK    4  A    between atoms: N2_14  and  P1_15 
REMARK    5  A    between atoms: P1_15  and  C11_16 
ROOT
HETATM    1  C2  UNL     1      28.092  -0.447  53.329  1.00  0.00     0.038 A 
HETATM    2  C3  UNL     1      27.301  -1.474  52.863  1.00  0.00     0.021 A 
HETATM    3  C4  UNL     1      25.972  -1.222  52.712  1.00  0.00     0.039 A 
HETATM    4  C5  UNL     1      25.463   0.021  53.021  1.00  0.00     0.086 A 
HETATM    5  C6  UNL     1      26.223   1.087  53.494  1.00  0.00    -0.006 A 
HETATM    6  C7  UNL     1      27.586   0.796  53.639  1.00  0.00     0.029 A 
HETATM    7  C8  UNL     1      25.980   2.481  53.900  1.00  0.00     0.161 C 
HETATM    8  N1  UNL     1      24.921   3.143  53.196  1.00  0.00    -0.379 N 
HETATM    9  C9  UNL     1      23.869   2.595  52.420  1.00  0.00     0.129 A 
HETATM   10  C10 UNL     1      23.177   3.587  51.760  1.00  0.00     0.160 A 
HETATM   11  N3  UNL     1      22.115   3.358  50.936  1.00  0.00    -0.222 NA
HETATM   12  C17 UNL     1      21.753   2.052  50.789  1.00  0.00     0.238 A 
HETATM   13  N4  UNL     1      22.398   1.049  51.412  1.00  0.00    -0.215 NA
HETATM   14  C18 UNL     1      23.447   1.311  52.221  1.00  0.00     0.202 A 
HETATM   15  O3  UNL     1      24.078   0.219  52.842  1.00  0.00    -0.289 OA
HETATM   16  H7  UNL     1      24.928   4.175  53.267  1.00  0.00     0.160 HD
ENDROOT
BRANCH  10  17
HETATM   17  N2  UNL     1      23.486   4.982  51.862  1.00  0.00    -0.339 N 
HETATM   18  H8  UNL     1      23.580   5.648  52.659  1.00  0.00     0.166 HD
BRANCH  17  19
HETATM   19  P1  UNL     1      23.764   5.693  50.227  1.00  0.00     0.069 P 
BRANCH  19  20
HETATM   20  C11 UNL     1      25.311   5.532  49.586  1.00  0.00    -0.022 A 
HETATM   21  C12 UNL     1      26.003   6.697  49.046  1.00  0.00     0.037 A 
HETATM   22  C13 UNL     1      27.220   6.460  48.566  1.00  0.00     0.072 A 
HETATM   23 CL1  UNL     1      28.191   7.746  47.881  1.00  0.00    -0.081 Cl
HETATM   24  C14 UNL     1      27.816   5.127  48.582  1.00  0.00     0.134 A 
HETATM   25  F1  UNL     1      29.078   4.921  48.075  1.00  0.00    -0.205 F 
HETATM   26  C15 UNL     1      27.168   4.091  49.077  1.00  0.00     0.022 A 
HETATM   27  C16 UNL     1      25.799   4.132  49.663  1.00  0.00     0.072 A 
ENDBRANCH  19  20
ENDBRANCH  17  19
ENDBRANCH  10  17
BRANCH   1  28
HETATM   28  C1  UNL     1      29.523  -0.720  53.487  1.00  0.00     0.176 C 
HETATM   29  O1  UNL     1      29.901  -1.917  53.674  1.00  0.00    -0.646 OA
BRANCH  28  30
HETATM   30  O2  UNL     1      30.542   0.191  53.458  1.00  0.00    -0.773 OA
HETATM   31  H1  UNL     1      30.441   1.162  53.787  1.00  0.00     0.167 HD
ENDBRANCH  28  30
ENDBRANCH   1  28
TORSDOF 5
ENDMDL
MODEL 2
REMARK VINA RESULT:      -8.7      2.157      3.139
REMARK  5 active torsions:
REMARK  status: ('A' for Active; 'I' for Inactive)
REMARK    1  A    between atoms: C1_2  and  O2_3 
REMARK    2  A    between atoms: C1_2  and  C2_4 
REMARK    3  A    between atoms: C10_13  and  N2_14 
REMARK    4  A    between atoms: N2_14  and  P1_15 
REMARK    5  A    between atoms: P1_15  and  C11_16 
ROOT
HETATM    1  C2  UNL     1      25.038   0.774  53.117  1.00  0.00     0.038 A 
HETATM    2  C3  UNL     1      23.901   0.101  52.725  1.00  0.00     0.021 A 
HETATM    3  C4  UNL     1      22.778   0.840  52.513  1.00  0.00     0.039 A 
HETATM    4  C5  UNL     1      22.804   2.207  52.692  1.00  0.00     0.086 A 
HETATM    5  C6  UNL     1      23.927   2.928  53.085  1.00  0.00    -0.006 A 
HETATM    6  C7  UNL     1      25.066   2.139  53.296  1.00  0.00     0.029 A 
HETATM    7  C8  UNL     1      24.259   4.337  53.352  1.00  0.00     0.161 C 
HETATM    8  N1  UNL     1      23.539   5.291  52.560  1.00  0.00    -0.379 N 
HETATM    9  C9  UNL     1      22.349   5.128  51.808  1.00  0.00     0.129 A 
HETATM   10  C10 UNL     1      22.098   6.244  51.039  1.00  0.00     0.160 A 
HETATM   11  N3  UNL     1      21.023   6.373  50.210  1.00  0.00    -0.222 NA
HETATM   12  C17 UNL     1      20.174   5.308  50.174  1.00  0.00     0.238 A 
HETATM   13  N4  UNL     1      20.377   4.198  50.906  1.00  0.00    -0.215 NA
HETATM   14  C18 UNL     1      21.452   4.103  51.717  1.00  0.00     0.202 A 
HETATM   15  O3  UNL     1      21.608   2.916  52.455  1.00  0.00    -0.289 OA
HETATM   16  H7  UNL     1      23.954   6.238  52.536  1.00  0.00     0.160 HD
ENDROOT
BRANCH  10  17
HETATM   17  N2  UNL     1      22.933   7.408  51.021  1.00  0.00    -0.339 N 
HETATM   18  H8  UNL     1      23.184   8.133  51.727  1.00  0.00     0.166 HD
BRANCH  17  19
HETATM   19  P1  UNL     1      23.692   7.620  49.397  1.00  0.00     0.069 P 
BRANCH  19  20
HETATM   20  C11 UNL     1      25.093   6.740  49.097  1.00  0.00    -0.022 A 
HETATM   21  C12 UNL     1      25.161   5.328  49.457  1.00  0.00     0.037 A 
HETATM   22  C13 UNL     1      26.312   4.726  49.176  1.00  0.00     0.072 A 
HETATM   23 CL1  UNL     1      26.563   3.032  49.541  1.00  0.00    -0.081 Cl
HETATM   24  C14 UNL     1      27.426   5.434  48.550  1.00  0.00     0.134 A 
HETATM   25  F1  UNL     1      28.603   4.776  48.275  1.00  0.00    -0.205 F 
HETATM   26  C15 UNL     1      27.338   6.711  48.235  1.00  0.00     0.022 A 
HETATM   27  C16 UNL     1      26.145   7.573  48.460  1.00  0.00     0.072 A 
ENDBRANCH  19  20
ENDBRANCH  17  19
ENDBRANCH  10  17
BRANCH   1  28
HETATM   28  C1  UNL     1      26.247  -0.025  53.341  1.00  0.00     0.176 C 
HETATM   29  O1  UNL     1      27.247   0.154  52.583  1.00  0.00    -0.646 OA
BRANCH  28  30
HETATM   30  O2  UNL     1      26.435  -0.977  54.305  1.00  0.00    -0.773 OA
HETATM   31  H1  UNL     1      26.043  -0.904  55.254  1.00  0.00     0.167 HD
ENDBRANCH  28  30
ENDBRANCH   1  28
TORSDOF 5
ENDMDL
MODEL 3
REMARK VINA RESULT:      -8.7      1.987      2.563
REMARK  5 active torsions:
REMARK  status: ('A' for Active; 'I' for Inactive)
REMARK    1  A    between atoms: C1_2  and  O2_3 
REMARK    2  A    between atoms: C1_2  and  C2_4 
REMARK    3  A    between atoms: C10_13  and  N2_14 
REMARK    4  A    between atoms: N2_14  and  P1_15 
REMARK    5  A    between atoms: P1_15  and  C11_16 
ROOT
HETATM    1  C2  UNL     1      26.397  -0.724  52.740  1.00  0.00     0.038 A 
HETATM    2  C3  UNL     1      25.320  -0.710  53.600  1.00  0.00     0.021 A 
HETATM    3  C4  UNL     1      24.634   0.459  53.724  1.00  0.00     0.039 A 
HETATM    4  C5  UNL     1      25.022   1.570  53.007  1.00  0.00     0.086 A 
HETATM    5  C6  UNL     1      26.100   1.602  52.128  1.00  0.00    -0.006 A 
HETATM    6  C7  UNL     1      26.787   0.385  52.023  1.00  0.00     0.029 A 
HETATM    7  C8  UNL     1      26.742   2.597  51.252  1.00  0.00     0.161 C 
HETATM    8  N1  UNL     1      25.855   3.573  50.690  1.00  0.00    -0.379 N 
HETATM    9  C9  UNL     1      24.544   3.938  51.086  1.00  0.00     0.129 A 
HETATM   10  C10 UNL     1      23.971   4.786  50.163  1.00  0.00     0.160 A 
HETATM   11  N3  UNL     1      22.713   5.299  50.277  1.00  0.00    -0.222 NA
HETATM   12  C17 UNL     1      22.020   4.923  51.389  1.00  0.00     0.238 A 
HETATM   13  N4  UNL     1      22.537   4.099  52.318  1.00  0.00    -0.215 NA
HETATM   14  C18 UNL     1      23.787   3.607  52.173  1.00  0.00     0.202 A 
HETATM   15  O3  UNL     1      24.269   2.750  53.178  1.00  0.00    -0.289 OA
HETATM   16  H7  UNL     1      26.231   4.086  49.875  1.00  0.00     0.160 HD
ENDROOT
BRANCH  10  17
HETATM   17  N2  UNL     1      24.628   5.235  48.973  1.00  0.00    -0.339 N 
HETATM   18  H8  UNL     1      24.731   4.848  48.009  1.00  0.00     0.166 HD
BRANCH  17  19
HETATM   19  P1  UNL     1      25.439   6.822  49.255  1.00  0.00     0.069 P 
BRANCH  19  20
HETATM   20  C11 UNL     1      27.071   6.918  48.859  1.00  0.00    -0.022 A 
HETATM   21  C12 UNL     1      27.763   8.200  48.916  1.00  0.00     0.037 A 
HETATM   22  C13 UNL     1      29.050   8.164  48.585  1.00  0.00     0.072 A 
HETATM   23 CL1  UNL     1      30.032   9.615  48.600  1.00  0.00    -0.081 Cl
HETATM   24  C14 UNL     1      29.718   6.925  48.195  1.00  0.00     0.134 A 
HETATM   25  F1  UNL     1      31.052   6.929  47.858  1.00  0.00    -0.205 F 
HETATM   26  C15 UNL     1      29.068   5.779  48.151  1.00  0.00     0.022 A 
HETATM   27  C16 UNL     1      27.627   5.593  48.481  1.00  0.00     0.072 A 
ENDBRANCH  19  20
ENDBRANCH  17  19
ENDBRANCH  10  17
BRANCH   1  28
HETATM   28  C1  UNL     1      27.132  -1.985  52.607  1.00  0.00     0.176 C 
HETATM   29  O1  UNL     1      26.702  -2.862  51.798  1.00  0.00    -0.646 OA
BRANCH  28  30
HETATM   30  O2  UNL     1      28.270  -2.347  53.273  1.00  0.00    -0.773 OA
HETATM   31  H1  UNL     1      29.117  -1.761  53.304  1.00  0.00     0.167 HD
ENDBRANCH  28  30
ENDBRANCH   1  28
TORSDOF 5
ENDMDL
MODEL 4
REMARK VINA RESULT:      -8.7      1.649      2.222
REMARK  5 active torsions:
REMARK  status: ('A' for Active; 'I' for Inactive)
REMARK    1  A    between atoms: C1_2  and  O2_3 
REMARK    2  A    between atoms: C1_2  and  C2_4 
REMARK    3  A    between atoms: C10_13  and  N2_14 
REMARK    4  A    between atoms: N2_14  and  P1_15 
REMARK    5  A    between atoms: P1_15  and  C11_16 
ROOT
HETATM    1  C2  UNL     1      27.575   1.073  53.803  1.00  0.00     0.038 A 
HETATM    2  C3  UNL     1      27.172  -0.244  53.776  1.00  0.00     0.021 A 
HETATM    3  C4  UNL     1      25.841  -0.488  53.627  1.00  0.00     0.039 A 
HETATM    4  C5  UNL     1      24.953   0.559  53.510  1.00  0.00     0.086 A 
HETATM    5  C6  UNL     1      25.314   1.903  53.530  1.00  0.00    -0.006 A 
HETATM    6  C7  UNL     1      26.689   2.122  53.686  1.00  0.00     0.029 A 
HETATM    7  C8  UNL     1      24.625   3.200  53.434  1.00  0.00     0.161 C 
HETATM    8  N1  UNL     1      23.453   3.206  52.608  1.00  0.00    -0.379 N 
HETATM    9  C9  UNL     1      22.672   2.121  52.139  1.00  0.00     0.129 A 
HETATM   10  C10 UNL     1      21.743   2.549  51.215  1.00  0.00     0.160 A 
HETATM   11  N3  UNL     1      20.853   1.726  50.590  1.00  0.00    -0.222 NA
HETATM   12  C17 UNL     1      20.926   0.409  50.934  1.00  0.00     0.238 A 
HETATM   13  N4  UNL     1      21.816  -0.056  51.830  1.00  0.00    -0.215 NA
HETATM   14  C18 UNL     1      22.683   0.787  52.430  1.00  0.00     0.202 A 
HETATM   15  O3  UNL     1      23.588   0.239  53.356  1.00  0.00    -0.289 OA
HETATM   16  H7  UNL     1      23.134   4.144  52.311  1.00  0.00     0.160 HD
ENDROOT
BRANCH  10  17
HETATM   17  N2  UNL     1      21.594   3.912  50.802  1.00  0.00    -0.339 N 
HETATM   18  H8  UNL     1      21.025   4.717  51.143  1.00  0.00     0.166 HD
BRANCH  17  19
HETATM   19  P1  UNL     1      22.641   4.262  49.374  1.00  0.00     0.069 P 
BRANCH  19  20
HETATM   20  C11 UNL     1      23.905   5.347  49.612  1.00  0.00    -0.022 A 
HETATM   21  C12 UNL     1      25.178   5.145  48.931  1.00  0.00     0.037 A 
HETATM   22  C13 UNL     1      26.108   6.061  49.187  1.00  0.00     0.072 A 
HETATM   23 CL1  UNL     1      27.696   5.972  48.451  1.00  0.00    -0.081 Cl
HETATM   24  C14 UNL     1      25.865   7.185  50.087  1.00  0.00     0.134 A 
HETATM   25  F1  UNL     1      26.853   8.111  50.328  1.00  0.00    -0.205 F 
HETATM   26  C15 UNL     1      24.704   7.343  50.690  1.00  0.00     0.022 A 
HETATM   27  C16 UNL     1      23.528   6.439  50.545  1.00  0.00     0.072 A 
ENDBRANCH  19  20
ENDBRANCH  17  19
ENDBRANCH  10  17
BRANCH   1  28
HETATM   28  C1  UNL     1      29.008   1.333  53.961  1.00  0.00     0.176 C 
HETATM   29  O1  UNL     1      29.379   2.291  54.706  1.00  0.00    -0.646 OA
BRANCH  28  30
HETATM   30  O2  UNL     1      30.037   0.644  53.380  1.00  0.00    -0.773 OA
HETATM   31  H1  UNL     1      30.465  -0.193  53.802  1.00  0.00     0.167 HD
ENDBRANCH  28  30
ENDBRANCH   1  28
TORSDOF 5
ENDMDL
MODEL 5
REMARK VINA RESULT:      -8.2      4.535      7.423
REMARK  5 active torsions:
REMARK  status: ('A' for Active; 'I' for Inactive)
REMARK    1  A    between atoms: C1_2  and  O2_3 
REMARK    2  A    between atoms: C1_2  and  C2_4 
REMARK    3  A    between atoms: C10_13  and  N2_14 
REMARK    4  A    between atoms: N2_14  and  P1_15 
REMARK    5  A    between atoms: P1_15  and  C11_16 
ROOT
HETATM    1  C2  UNL     1      30.041   6.060  47.798  1.00  0.00     0.038 A 
HETATM    2  C3  UNL     1      29.654   7.265  47.256  1.00  0.00     0.021 A 
HETATM    3  C4  UNL     1      28.336   7.593  47.333  1.00  0.00     0.039 A 
HETATM    4  C5  UNL     1      27.442   6.733  47.935  1.00  0.00     0.086 A 
HETATM    5  C6  UNL     1      27.787   5.507  48.496  1.00  0.00    -0.006 A 
HETATM    6  C7  UNL     1      29.151   5.198  48.400  1.00  0.00     0.029 A 
HETATM    7  C8  UNL     1      27.090   4.406  49.183  1.00  0.00     0.161 C 
HETATM    8  N1  UNL     1      25.960   4.802  49.971  1.00  0.00    -0.379 N 
HETATM    9  C9  UNL     1      25.214   6.006  49.943  1.00  0.00     0.129 A 
HETATM   10  C10 UNL     1      24.326   6.059  50.996  1.00  0.00     0.160 A 
HETATM   11  N3  UNL     1      23.478   7.101  51.227  1.00  0.00    -0.222 NA
HETATM   12  C17 UNL     1      23.548   8.129  50.334  1.00  0.00     0.238 A 
HETATM   13  N4  UNL     1      24.398   8.123  49.291  1.00  0.00    -0.215 NA
HETATM   14  C18 UNL     1      25.225   7.075  49.092  1.00  0.00     0.202 A 
HETATM   15  O3  UNL     1      26.090   7.130  47.984  1.00  0.00    -0.289 OA
HETATM   16  H7  UNL     1      25.645   4.101  50.664  1.00  0.00     0.160 HD
ENDROOT
BRANCH  10  17
HETATM   17  N2  UNL     1      24.183   5.023  51.974  1.00  0.00    -0.339 N 
HETATM   18  H8  UNL     1      24.728   4.740  52.817  1.00  0.00     0.166 HD
BRANCH  17  19
HETATM   19  P1  UNL     1      22.725   4.017  51.626  1.00  0.00     0.069 P 
BRANCH  19  20
HETATM   20  C11 UNL     1      22.720   2.455  52.249  1.00  0.00    -0.022 A 
HETATM   21  C12 UNL     1      23.972   1.720  52.391  1.00  0.00     0.037 A 
HETATM   22  C13 UNL     1      23.855   0.495  52.895  1.00  0.00     0.072 A 
HETATM   23 CL1  UNL     1      25.259  -0.525  53.133  1.00  0.00    -0.081 Cl
HETATM   24  C14 UNL     1      22.563  -0.068  53.277  1.00  0.00     0.134 A 
HETATM   25  F1  UNL     1      22.484  -1.341  53.794  1.00  0.00    -0.205 F 
HETATM   26  C15 UNL     1      21.447   0.618  53.138  1.00  0.00     0.022 A 
HETATM   27  C16 UNL     1      21.349   2.002  52.597  1.00  0.00     0.072 A 
ENDBRANCH  19  20
ENDBRANCH  17  19
ENDBRANCH  10  17
BRANCH   1  28
HETATM   28  C1  UNL     1      31.463   5.712  47.716  1.00  0.00     0.176 C 
HETATM   29  O1  UNL     1      31.876   4.677  48.321  1.00  0.00    -0.646 OA
BRANCH  28  30
HETATM   30  O2  UNL     1      32.437   6.393  47.040  1.00  0.00    -0.773 OA
HETATM   31  H1  UNL     1      33.427   6.391  47.324  1.00  0.00     0.167 HD
ENDBRANCH  28  30
ENDBRANCH   1  28
TORSDOF 5
ENDMDL
MODEL 6
REMARK VINA RESULT:      -8.2      4.482      7.428
REMARK  5 active torsions:
REMARK  status: ('A' for Active; 'I' for Inactive)
REMARK    1  A    between atoms: C1_2  and  O2_3 
REMARK    2  A    between atoms: C1_2  and  C2_4 
REMARK    3  A    between atoms: C10_13  and  N2_14 
REMARK    4  A    between atoms: N2_14  and  P1_15 
REMARK    5  A    between atoms: P1_15  and  C11_16 
ROOT
HETATM    1  C2  UNL     1      27.171   7.623  47.694  1.00  0.00     0.038 A 
HETATM    2  C3  UNL     1      25.918   8.021  47.280  1.00  0.00     0.021 A 
HETATM    3  C4  UNL     1      24.861   7.249  47.652  1.00  0.00     0.039 A 
HETATM    4  C5  UNL     1      25.063   6.118  48.413  1.00  0.00     0.086 A 
HETATM    5  C6  UNL     1      26.308   5.678  48.854  1.00  0.00    -0.006 A 
HETATM    6  C7  UNL     1      27.375   6.493  48.454  1.00  0.00     0.029 A 
HETATM    7  C8  UNL     1      26.829   4.553  49.648  1.00  0.00     0.161 C 
HETATM    8  N1  UNL     1      25.950   4.075  50.674  1.00  0.00    -0.379 N 
HETATM    9  C9  UNL     1      24.558   4.280  50.840  1.00  0.00     0.129 A 
HETATM   10  C10 UNL     1      24.134   3.805  52.063  1.00  0.00     0.160 A 
HETATM   11  N3  UNL     1      22.844   3.868  52.500  1.00  0.00    -0.222 NA
HETATM   12  C17 UNL     1      21.956   4.443  51.640  1.00  0.00     0.238 A 
HETATM   13  N4  UNL     1      22.322   4.920  50.437  1.00  0.00    -0.215 NA
HETATM   14  C18 UNL     1      23.609   4.843  50.035  1.00  0.00     0.202 A 
HETATM   15  O3  UNL     1      23.927   5.361  48.767  1.00  0.00    -0.289 OA
HETATM   16  H7  UNL     1      26.403   3.495  51.401  1.00  0.00     0.160 HD
ENDROOT
BRANCH  10  17
HETATM   17  N2  UNL     1      24.996   3.183  53.022  1.00  0.00    -0.339 N 
HETATM   18  H8  UNL     1      25.529   3.527  53.850  1.00  0.00     0.166 HD
BRANCH  17  19
HETATM   19  P1  UNL     1      25.161   1.419  52.679  1.00  0.00     0.069 P 
BRANCH  19  20
HETATM   20  C11 UNL     1      26.667   0.729  52.973  1.00  0.00    -0.022 A 
HETATM   21  C12 UNL     1      26.851  -0.711  52.836  1.00  0.00     0.037 A 
HETATM   22  C13 UNL     1      28.079  -1.151  53.089  1.00  0.00     0.072 A 
HETATM   23 CL1  UNL     1      28.475  -2.853  52.971  1.00  0.00    -0.081 Cl
HETATM   24  C14 UNL     1      29.163  -0.252  53.477  1.00  0.00     0.134 A 
HETATM   25  F1  UNL     1      30.421  -0.746  53.733  1.00  0.00    -0.205 F 
HETATM   26  C15 UNL     1      28.969   1.046  53.595  1.00  0.00     0.022 A 
HETATM   27  C16 UNL     1      27.676   1.749  53.358  1.00  0.00     0.072 A 
ENDBRANCH  19  20
ENDBRANCH  17  19
ENDBRANCH  10  17
BRANCH   1  28
HETATM   28  C1  UNL     1      28.307   8.459  47.294  1.00  0.00     0.176 C 
HETATM   29  O1  UNL     1      28.126   9.360  46.421  1.00  0.00    -0.646 OA
BRANCH  28  30
HETATM   30  O2  UNL     1      29.588   8.383  47.766  1.00  0.00    -0.773 OA
HETATM   31  H1  UNL     1      29.818   8.124  48.736  1.00  0.00     0.167 HD
ENDBRANCH  28  30
ENDBRANCH   1  28
TORSDOF 5
ENDMDL
MODEL 7
REMARK VINA RESULT:      -8.2      4.392      7.463
REMARK  5 active torsions:
REMARK  status: ('A' for Active; 'I' for Inactive)
REMARK    1  A    between atoms: C1_2  and  O2_3 
REMARK    2  A    between atoms: C1_2  and  C2_4 
REMARK    3  A    between atoms: C10_13  and  N2_14 
REMARK    4  A    between atoms: N2_14  and  P1_15 
REMARK    5  A    between atoms: P1_15  and  C11_16 
ROOT
HETATM    1  C2  UNL     1      24.299   3.822  49.608  1.00  0.00     0.038 A 
HETATM    2  C3  UNL     1      25.530   3.704  49.001  1.00  0.00     0.021 A 
HETATM    3  C4  UNL     1      26.578   3.322  49.780  1.00  0.00     0.039 A 
HETATM    4  C5  UNL     1      26.388   3.069  51.122  1.00  0.00     0.086 A 
HETATM    5  C6  UNL     1      25.165   3.174  51.777  1.00  0.00    -0.006 A 
HETATM    6  C7  UNL     1      24.107   3.570  50.948  1.00  0.00     0.029 A 
HETATM    7  C8  UNL     1      24.661   2.981  53.146  1.00  0.00     0.161 C 
HETATM    8  N1  UNL     1      25.331   1.964  53.902  1.00  0.00    -0.379 N 
HETATM    9  C9  UNL     1      26.588   1.349  53.676  1.00  0.00     0.129 A 
HETATM   10  C10 UNL     1      26.774   0.285  54.532  1.00  0.00     0.160 A 
HETATM   11  N3  UNL     1      27.890  -0.499  54.543  1.00  0.00    -0.222 NA
HETATM   12  C17 UNL     1      28.852  -0.169  53.635  1.00  0.00     0.238 A 
HETATM   13  N4  UNL     1      28.715   0.860  52.779  1.00  0.00    -0.215 NA
HETATM   14  C18 UNL     1      27.596   1.615  52.795  1.00  0.00     0.202 A 
HETATM   15  O3  UNL     1      27.514   2.676  51.875  1.00  0.00    -0.289 OA
HETATM   16  H7  UNL     1      24.819   1.632  54.737  1.00  0.00     0.160 HD
ENDROOT
BRANCH  10  17
HETATM   17  N2  UNL     1      25.821  -0.126  55.518  1.00  0.00    -0.339 N 
HETATM   18  H8  UNL     1      25.643   0.139  56.512  1.00  0.00     0.166 HD
BRANCH  17  19
HETATM   19  P1  UNL     1      24.707  -1.376  54.845  1.00  0.00     0.069 P 
BRANCH  19  20
HETATM   20  C11 UNL     1      23.264  -0.823  54.180  1.00  0.00    -0.022 A 
HETATM   21  C12 UNL     1      23.241  -0.293  52.822  1.00  0.00     0.037 A 
HETATM   22  C13 UNL     1      22.050   0.115  52.393  1.00  0.00     0.072 A 
HETATM   23 CL1  UNL     1      21.843   0.778  50.785  1.00  0.00    -0.081 Cl
HETATM   24  C14 UNL     1      20.855   0.036  53.228  1.00  0.00     0.134 A 
HETATM   25  F1  UNL     1      19.640   0.470  52.750  1.00  0.00    -0.205 F 
HETATM   26  C15 UNL     1      20.904  -0.447  54.454  1.00  0.00     0.022 A 
HETATM   27  C16 UNL     1      22.129  -0.959  55.129  1.00  0.00     0.072 A 
ENDBRANCH  19  20
ENDBRANCH  17  19
ENDBRANCH  10  17
BRANCH   1  28
HETATM   28  C1  UNL     1      23.172   4.231  48.765  1.00  0.00     0.176 C 
HETATM   29  O1  UNL     1      23.017   5.462  48.505  1.00  0.00    -0.646 OA
BRANCH  28  30
HETATM   30  O2  UNL     1      22.228   3.416  48.203  1.00  0.00    -0.773 OA
HETATM   31  H1  UNL     1      22.367   2.927  47.307  1.00  0.00     0.167 HD
ENDBRANCH  28  30
ENDBRANCH   1  28
TORSDOF 5
ENDMDL
MODEL 8
REMARK VINA RESULT:      -8.0      5.121      7.721
REMARK  5 active torsions:
REMARK  status: ('A' for Active; 'I' for Inactive)
REMARK    1  A    between atoms: C1_2  and  O2_3 
REMARK    2  A    between atoms: C1_2  and  C2_4 
REMARK    3  A    between atoms: C10_13  and  N2_14 
REMARK    4  A    between atoms: N2_14  and  P1_15 
REMARK    5  A    between atoms: P1_15  and  C11_16 
ROOT
HETATM    1  C2  UNL     1      26.152   7.732  49.957  1.00  0.00     0.038 A 
HETATM    2  C3  UNL     1      26.631   7.081  48.842  1.00  0.00     0.021 A 
HETATM    3  C4  UNL     1      26.178   5.818  48.611  1.00  0.00     0.039 A 
HETATM    4  C5  UNL     1      25.276   5.237  49.476  1.00  0.00     0.086 A 
HETATM    5  C6  UNL     1      24.765   5.856  50.613  1.00  0.00    -0.006 A 
HETATM    6  C7  UNL     1      25.251   7.153  50.823  1.00  0.00     0.029 A 
HETATM    7  C8  UNL     1      23.827   5.510  51.693  1.00  0.00     0.161 C 
HETATM    8  N1  UNL     1      22.760   4.630  51.313  1.00  0.00    -0.379 N 
HETATM    9  C9  UNL     1      22.642   3.790  50.178  1.00  0.00     0.129 A 
HETATM   10  C10 UNL     1      21.375   3.255  50.093  1.00  0.00     0.160 A 
HETATM   11  N3  UNL     1      20.968   2.411  49.103  1.00  0.00    -0.222 NA
HETATM   12  C17 UNL     1      21.907   2.108  48.162  1.00  0.00     0.238 A 
HETATM   13  N4  UNL     1      23.156   2.606  48.202  1.00  0.00    -0.215 NA
HETATM   14  C18 UNL     1      23.526   3.440  49.198  1.00  0.00     0.202 A 
HETATM   15  O3  UNL     1      24.845   3.927  49.182  1.00  0.00    -0.289 OA
HETATM   16  H7  UNL     1      21.959   4.608  51.966  1.00  0.00     0.160 HD
ENDROOT
BRANCH  10  17
HETATM   17  N2  UNL     1      20.332   3.514  51.039  1.00  0.00    -0.339 N 
HETATM   18  H8  UNL     1      20.012   4.365  51.553  1.00  0.00     0.166 HD
BRANCH  17  19
HETATM   19  P1  UNL     1      19.396   2.010  51.384  1.00  0.00     0.069 P 
BRANCH  19  20
HETATM   20  C11 UNL     1      20.154   0.851  52.338  1.00  0.00    -0.022 A 
HETATM   21  C12 UNL     1      21.594   0.913  52.557  1.00  0.00     0.037 A 
HETATM   22  C13 UNL     1      22.092  -0.050  53.328  1.00  0.00     0.072 A 
HETATM   23 CL1  UNL     1      23.803  -0.125  53.694  1.00  0.00    -0.081 Cl
HETATM   24  C14 UNL     1      21.250  -1.092  53.910  1.00  0.00     0.134 A 
HETATM   25  F1  UNL     1      21.803  -2.072  54.701  1.00  0.00    -0.205 F 
HETATM   26  C15 UNL     1      19.950  -1.124  53.695  1.00  0.00     0.022 A 
HETATM   27  C16 UNL     1      19.190  -0.147  52.867  1.00  0.00     0.072 A 
ENDBRANCH  19  20
ENDBRANCH  17  19
ENDBRANCH  10  17
BRANCH   1  28
HETATM   28  C1  UNL     1      26.639   9.093  50.200  1.00  0.00     0.176 C 
HETATM   29  O1  UNL     1      26.193  10.040  49.484  1.00  0.00    -0.646 OA
BRANCH  28  30
HETATM   30  O2  UNL     1      27.551   9.483  51.142  1.00  0.00    -0.773 OA
HETATM   31  H1  UNL     1      27.307   9.654  52.128  1.00  0.00     0.167 HD
ENDBRANCH  28  30
ENDBRANCH   1  28
TORSDOF 5
ENDMDL
MODEL 9
REMARK VINA RESULT:      -8.0      3.807      5.219
REMARK  5 active torsions:
REMARK  status: ('A' for Active; 'I' for Inactive)
REMARK    1  A    between atoms: C1_2  and  O2_3 
REMARK    2  A    between atoms: C1_2  and  C2_4 
REMARK    3  A    between atoms: C10_13  and  N2_14 
REMARK    4  A    between atoms: N2_14  and  P1_15 
REMARK    5  A    between atoms: P1_15  and  C11_16 
ROOT
HETATM    1  C2  UNL     1      22.998  -0.368  53.944  1.00  0.00     0.038 A 
HETATM    2  C3  UNL     1      24.275  -0.530  53.453  1.00  0.00     0.021 A 
HETATM    3  C4  UNL     1      24.681   0.323  52.473  1.00  0.00     0.039 A 
HETATM    4  C5  UNL     1      23.828   1.300  52.007  1.00  0.00     0.086 A 
HETATM    5  C6  UNL     1      22.532   1.501  52.474  1.00  0.00    -0.006 A 
HETATM    6  C7  UNL     1      22.144   0.607  53.481  1.00  0.00     0.029 A 
HETATM    7  C8  UNL     1      21.419   2.422  52.188  1.00  0.00     0.161 C 
HETATM    8  N1  UNL     1      21.811   3.740  51.782  1.00  0.00    -0.379 N 
HETATM    9  C9  UNL     1      23.060   4.204  51.300  1.00  0.00     0.129 A 
HETATM   10  C10 UNL     1      23.068   5.579  51.204  1.00  0.00     0.160 A 
HETATM   11  N3  UNL     1      24.137   6.307  50.773  1.00  0.00    -0.222 NA
HETATM   12  C17 UNL     1      25.241   5.587  50.425  1.00  0.00     0.238 A 
HETATM   13  N4  UNL     1      25.280   4.244  50.502  1.00  0.00    -0.215 NA
HETATM   14  C18 UNL     1      24.203   3.554  50.934  1.00  0.00     0.202 A 
HETATM   15  O3  UNL     1      24.309   2.153  50.992  1.00  0.00    -0.289 OA
HETATM   16  H7  UNL     1      21.068   4.456  51.852  1.00  0.00     0.160 HD
ENDROOT
BRANCH  10  17
HETATM   17  N2  UNL     1      21.953   6.412  51.542  1.00  0.00    -0.339 N 
HETATM   18  H8  UNL     1      21.473   6.656  52.435  1.00  0.00     0.166 HD
BRANCH  17  19
HETATM   19  P1  UNL     1      21.264   7.182  50.063  1.00  0.00     0.069 P 
BRANCH  19  20
HETATM   20  C11 UNL     1      21.369   6.303  48.633  1.00  0.00    -0.022 A 
HETATM   21  C12 UNL     1      20.487   5.163  48.409  1.00  0.00     0.037 A 
HETATM   22  C13 UNL     1      20.652   4.539  47.247  1.00  0.00     0.072 A 
HETATM   23 CL1  UNL     1      19.675   3.150  46.816  1.00  0.00    -0.081 Cl
HETATM   24  C14 UNL     1      21.647   4.969  46.268  1.00  0.00     0.134 A 
HETATM   25  F1  UNL     1      21.789   4.296  45.077  1.00  0.00    -0.205 F 
HETATM   26  C15 UNL     1      22.432   6.003  46.496  1.00  0.00     0.022 A 
HETATM   27  C16 UNL     1      22.416   6.842  47.727  1.00  0.00     0.072 A 
ENDBRANCH  19  20
ENDBRANCH  17  19
ENDBRANCH  10  17
BRANCH   1  28
HETATM   28  C1  UNL     1      22.565  -1.286  55.002  1.00  0.00     0.176 C 
HETATM   29  O1  UNL     1      21.366  -1.700  55.000  1.00  0.00    -0.646 OA
BRANCH  28  30
HETATM   30  O2  UNL     1      23.324  -1.771  56.031  1.00  0.00    -0.773 OA
HETATM   31  H1  UNL     1      23.242  -1.432  57.000  1.00  0.00     0.167 HD
ENDBRANCH  28  30
ENDBRANCH   1  28
TORSDOF 5
ENDMDL
