MODEL 1
REMARK VINA RESULT:      -8.5      0.000      0.000
REMARK  5 active torsions:
REMARK  status: ('A' for Active; 'I' for Inactive)
REMARK    1  A    between atoms: O1_2  and  C2_3 
REMARK    2  A    between atoms: C4_5  and  C5_6 
REMARK    3  A    between atoms: N1_10  and  C8_11 
REMARK    4  A    between atoms: C19_27  and  O4_28 
REMARK    5  A    between atoms: C21_30  and  O5_31 
ROOT
HETATM    1  C5  UNL     1      18.962   2.649  51.083  1.00  0.00     0.170 A 
HETATM    2  C6  UNL     1      19.771   1.704  50.306  1.00  0.00     0.067 A 
HETATM    3  C7  UNL     1      20.953   1.183  50.695  1.00  0.00     0.196 A 
HETATM    4  F1  UNL     1      21.818   0.300  50.092  1.00  0.00    -0.186 F 
HETATM    5  N1  UNL     1      21.497   1.570  51.978  1.00  0.00    -0.267 N 
HETATM    6  C16 UNL     1      20.732   2.487  52.748  1.00  0.00     0.213 A 
HETATM    7  N4  UNL     1      19.633   2.935  52.327  1.00  0.00    -0.270 NA
ENDROOT
BRANCH   1   8
HETATM    8  C4  UNL     1      17.594   2.167  51.420  1.00  0.00    -0.018 A 
HETATM    9  C3  UNL     1      17.405   0.813  51.732  1.00  0.00     0.050 A 
HETATM   10  C2  UNL     1      16.232   0.183  52.052  1.00  0.00     0.104 A 
HETATM   11  C21 UNL     1      15.100   0.965  52.073  1.00  0.00     0.135 A 
HETATM   12  C19 UNL     1      15.214   2.306  51.777  1.00  0.00     0.110 A 
HETATM   13  C17 UNL     1      16.417   2.883  51.463  1.00  0.00    -0.017 A 
HETATM   14  C18 UNL     1      16.478   4.324  51.172  1.00  0.00     0.052 C 
BRANCH  10  15
HETATM   15  O1  UNL     1      16.179  -1.169  52.341  1.00  0.00    -0.353 OA
HETATM   16  C1  UNL     1      17.240  -1.832  53.000  1.00  0.00     0.210 C 
ENDBRANCH  10  15
BRANCH  11  17
HETATM   17  O5  UNL     1      13.890   0.373  52.391  1.00  0.00    -0.351 OA
HETATM   18  C22 UNL     1      13.451   0.325  53.721  1.00  0.00     0.210 C 
ENDBRANCH  11  17
BRANCH  12  19
HETATM   19  O4  UNL     1      14.073   3.129  51.790  1.00  0.00    -0.352 OA
HETATM   20  C20 UNL     1      13.763   3.797  52.997  1.00  0.00     0.210 C 
ENDBRANCH  12  19
ENDBRANCH   1   8
BRANCH   5  21
HETATM   21  C8  UNL     1      22.713   1.145  52.573  1.00  0.00     0.139 A 
HETATM   22  C9  UNL     1      22.824  -0.126  53.111  1.00  0.00     0.054 A 
HETATM   23  C10 UNL     1      23.998  -0.586  53.704  1.00  0.00     0.044 A 
HETATM   24  C11 UNL     1      25.055   0.280  53.738  1.00  0.00     0.116 A 
HETATM   25  C12 UNL     1      24.967   1.552  53.209  1.00  0.00     0.166 A 
HETATM   26  O3  UNL     1      26.213  -0.179  54.325  1.00  0.00    -0.333 OA
HETATM   27  N2  UNL     1      23.823   1.930  52.657  1.00  0.00    -0.210 NA
HETATM   28  N3  UNL     1      26.096   2.423  53.264  1.00  0.00    -0.307 N 
HETATM   29  C13 UNL     1      27.290   1.907  53.887  1.00  0.00     0.252 C 
HETATM   30  H9  UNL     1      26.052   3.369  52.878  1.00  0.00     0.170 HD
HETATM   31  O2  UNL     1      28.282   2.688  54.066  1.00  0.00    -0.270 OA
HETATM   32  C14 UNL     1      27.444   0.502  54.341  1.00  0.00     0.217 C 
HETATM   33  C15 UNL     1      28.371  -0.213  53.376  1.00  0.00     0.050 C 
ENDBRANCH   5  21
TORSDOF 5
ENDMDL
MODEL 2
REMARK VINA RESULT:      -8.4      2.032      3.371
REMARK  5 active torsions:
REMARK  status: ('A' for Active; 'I' for Inactive)
REMARK    1  A    between atoms: O1_2  and  C2_3 
REMARK    2  A    between atoms: C4_5  and  C5_6 
REMARK    3  A    between atoms: N1_10  and  C8_11 
REMARK    4  A    between atoms: C19_27  and  O4_28 
REMARK    5  A    between atoms: C21_30  and  O5_31 
ROOT
HETATM    1  C5  UNL     1      19.238  -0.143  52.054  1.00  0.00     0.170 A 
HETATM    2  C6  UNL     1      19.784  -0.211  53.414  1.00  0.00     0.067 A 
HETATM    3  C7  UNL     1      21.073  -0.002  53.750  1.00  0.00     0.196 A 
HETATM    4  F1  UNL     1      21.730  -0.029  54.958  1.00  0.00    -0.186 F 
HETATM    5  N1  UNL     1      22.023   0.316  52.706  1.00  0.00    -0.267 N 
HETATM    6  C16 UNL     1      21.518   0.386  51.380  1.00  0.00     0.213 A 
HETATM    7  N4  UNL     1      20.300   0.181  51.134  1.00  0.00    -0.270 NA
ENDROOT
BRANCH   1   8
HETATM    8  C4  UNL     1      18.165   0.873  51.865  1.00  0.00    -0.018 A 
HETATM    9  C3  UNL     1      18.523   2.199  51.582  1.00  0.00     0.050 A 
HETATM   10  C2  UNL     1      17.689   3.268  51.391  1.00  0.00     0.104 A 
HETATM   11  C21 UNL     1      16.339   3.019  51.484  1.00  0.00     0.135 A 
HETATM   12  C19 UNL     1      15.917   1.737  51.758  1.00  0.00     0.110 A 
HETATM   13  C17 UNL     1      16.800   0.704  51.941  1.00  0.00    -0.017 A 
HETATM   14  C18 UNL     1      16.288  -0.648  52.215  1.00  0.00     0.052 C 
BRANCH  10  15
HETATM   15  O1  UNL     1      18.171   4.535  51.117  1.00  0.00    -0.353 OA
HETATM   16  C1  UNL     1      18.601   4.905  49.821  1.00  0.00     0.210 C 
ENDBRANCH  10  15
BRANCH  11  17
HETATM   17  O5  UNL     1      15.457   4.070  51.298  1.00  0.00    -0.351 OA
HETATM   18  C22 UNL     1      14.869   4.290  50.045  1.00  0.00     0.210 C 
ENDBRANCH  11  17
BRANCH  12  19
HETATM   19  O4  UNL     1      14.543   1.454  51.859  1.00  0.00    -0.352 OA
HETATM   20  C20 UNL     1      13.902   1.753  53.082  1.00  0.00     0.210 C 
ENDBRANCH  12  19
ENDBRANCH   1   8
BRANCH   5  21
HETATM   21  C8  UNL     1      23.412   0.570  52.840  1.00  0.00     0.139 A 
HETATM   22  C9  UNL     1      23.894   1.867  52.810  1.00  0.00     0.054 A 
HETATM   23  C10 UNL     1      25.250   2.164  52.938  1.00  0.00     0.044 A 
HETATM   24  C11 UNL     1      26.102   1.108  53.097  1.00  0.00     0.116 A 
HETATM   25  C12 UNL     1      25.645  -0.194  53.129  1.00  0.00     0.166 A 
HETATM   26  O3  UNL     1      27.440   1.405  53.223  1.00  0.00    -0.333 OA
HETATM   27  N2  UNL     1      24.343  -0.411  53.003  1.00  0.00    -0.210 NA
HETATM   28  N3  UNL     1      26.570  -1.267  53.298  1.00  0.00    -0.307 N 
HETATM   29  C13 UNL     1      27.963  -0.916  53.426  1.00  0.00     0.252 C 
HETATM   30  H9  UNL     1      26.253  -2.239  53.324  1.00  0.00     0.170 HD
HETATM   31  O2  UNL     1      28.835  -1.845  53.458  1.00  0.00    -0.270 OA
HETATM   32  C14 UNL     1      28.457   0.481  53.525  1.00  0.00     0.217 C 
HETATM   33  C15 UNL     1      28.889   0.734  54.957  1.00  0.00     0.050 C 
ENDBRANCH   5  21
TORSDOF 5
ENDMDL
MODEL 3
REMARK VINA RESULT:      -8.4      5.038      6.635
REMARK  5 active torsions:
REMARK  status: ('A' for Active; 'I' for Inactive)
REMARK    1  A    between atoms: O1_2  and  C2_3 
REMARK    2  A    between atoms: C4_5  and  C5_6 
REMARK    3  A    between atoms: N1_10  and  C8_11 
REMARK    4  A    between atoms: C19_27  and  O4_28 
REMARK    5  A    between atoms: C21_30  and  O5_31 
ROOT
HETATM    1  C5  UNL     1      21.386   3.482  49.958  1.00  0.00     0.170 A 
HETATM    2  C6  UNL     1      21.875   4.175  51.156  1.00  0.00     0.067 A 
HETATM    3  C7  UNL     1      22.833   3.716  51.987  1.00  0.00     0.196 A 
HETATM    4  F1  UNL     1      23.391   4.238  53.131  1.00  0.00    -0.186 F 
HETATM    5  N1  UNL     1      23.448   2.438  51.706  1.00  0.00    -0.267 N 
HETATM    6  C16 UNL     1      22.989   1.747  50.552  1.00  0.00     0.213 A 
HETATM    7  N4  UNL     1      22.091   2.232  49.815  1.00  0.00    -0.270 NA
ENDROOT
BRANCH   1   8
HETATM    8  C4  UNL     1      21.562   4.237  48.687  1.00  0.00    -0.018 A 
HETATM    9  C3  UNL     1      22.595   5.181  48.591  1.00  0.00     0.050 A 
HETATM   10  C2  UNL     1      22.905   5.976  47.521  1.00  0.00     0.104 A 
HETATM   11  C21 UNL     1      22.115   5.838  46.403  1.00  0.00     0.135 A 
HETATM   12  C19 UNL     1      21.083   4.928  46.428  1.00  0.00     0.110 A 
HETATM   13  C17 UNL     1      20.818   4.156  47.530  1.00  0.00    -0.017 A 
HETATM   14  C18 UNL     1      19.710   3.189  47.491  1.00  0.00     0.052 C 
BRANCH  10  15
HETATM   15  O1  UNL     1      23.958   6.874  47.553  1.00  0.00    -0.353 OA
HETATM   16  C1  UNL     1      25.100   6.655  48.359  1.00  0.00     0.210 C 
ENDBRANCH  10  15
BRANCH  11  17
HETATM   17  O5  UNL     1      22.391   6.622  45.295  1.00  0.00    -0.351 OA
HETATM   18  C22 UNL     1      21.738   7.848  45.113  1.00  0.00     0.210 C 
ENDBRANCH  11  17
BRANCH  12  19
HETATM   19  O4  UNL     1      20.259   4.766  45.299  1.00  0.00    -0.352 OA
HETATM   20  C20 UNL     1      20.757   3.983  44.233  1.00  0.00     0.210 C 
ENDBRANCH  12  19
ENDBRANCH   1   8
BRANCH   5  21
HETATM   21  C8  UNL     1      24.463   1.778  52.444  1.00  0.00     0.139 A 
HETATM   22  C9  UNL     1      24.296   0.464  52.847  1.00  0.00     0.054 A 
HETATM   23  C10 UNL     1      25.267  -0.224  53.574  1.00  0.00     0.044 A 
HETATM   24  C11 UNL     1      26.410   0.459  53.880  1.00  0.00     0.116 A 
HETATM   25  C12 UNL     1      26.598   1.770  53.490  1.00  0.00     0.166 A 
HETATM   26  O3  UNL     1      27.366  -0.224  54.598  1.00  0.00    -0.333 OA
HETATM   27  N2  UNL     1      25.638   2.369  52.800  1.00  0.00    -0.210 NA
HETATM   28  N3  UNL     1      27.809   2.445  53.830  1.00  0.00    -0.307 N 
HETATM   29  C13 UNL     1      28.785   1.697  54.583  1.00  0.00     0.252 C 
HETATM   30  H9  UNL     1      27.968   3.416  53.552  1.00  0.00     0.170 HD
HETATM   31  O2  UNL     1      29.826   2.294  55.012  1.00  0.00    -0.270 OA
HETATM   32  C14 UNL     1      28.656   0.251  54.896  1.00  0.00     0.217 C 
HETATM   33  C15 UNL     1      29.635  -0.516  54.026  1.00  0.00     0.050 C 
ENDBRANCH   5  21
TORSDOF 5
ENDMDL
MODEL 4
REMARK VINA RESULT:      -8.3      4.179      5.535
REMARK  5 active torsions:
REMARK  status: ('A' for Active; 'I' for Inactive)
REMARK    1  A    between atoms: O1_2  and  C2_3 
REMARK    2  A    between atoms: C4_5  and  C5_6 
REMARK    3  A    between atoms: N1_10  and  C8_11 
REMARK    4  A    between atoms: C19_27  and  O4_28 
REMARK    5  A    between atoms: C21_30  and  O5_31 
ROOT
HETATM    1  C5  UNL     1      21.067   2.864  50.286  1.00  0.00     0.170 A 
HETATM    2  C6  UNL     1      20.893   2.478  51.691  1.00  0.00     0.067 A 
HETATM    3  C7  UNL     1      21.853   1.955  52.482  1.00  0.00     0.196 A 
HETATM    4  F1  UNL     1      21.847   1.548  53.796  1.00  0.00    -0.186 F 
HETATM    5  N1  UNL     1      23.172   1.740  51.930  1.00  0.00    -0.267 N 
HETATM    6  C16 UNL     1      23.364   2.104  50.570  1.00  0.00     0.213 A 
HETATM    7  N4  UNL     1      22.426   2.590  49.886  1.00  0.00    -0.270 NA
ENDROOT
BRANCH   1   8
HETATM    8  C4  UNL     1      20.802   4.301  49.998  1.00  0.00    -0.018 A 
HETATM    9  C3  UNL     1      21.623   5.276  50.582  1.00  0.00     0.050 A 
HETATM   10  C2  UNL     1      21.530   6.636  50.450  1.00  0.00     0.104 A 
HETATM   11  C21 UNL     1      20.515   7.108  49.650  1.00  0.00     0.135 A 
HETATM   12  C19 UNL     1      19.672   6.204  49.043  1.00  0.00     0.110 A 
HETATM   13  C17 UNL     1      19.813   4.850  49.213  1.00  0.00    -0.017 A 
HETATM   14  C18 UNL     1      18.890   3.933  48.525  1.00  0.00     0.052 C 
BRANCH  10  15
HETATM   15  O1  UNL     1      22.409   7.497  51.083  1.00  0.00    -0.353 OA
HETATM   16  C1  UNL     1      23.714   7.728  50.588  1.00  0.00     0.210 C 
ENDBRANCH  10  15
BRANCH  11  17
HETATM   17  O5  UNL     1      20.382   8.476  49.486  1.00  0.00    -0.351 OA
HETATM   18  C22 UNL     1      19.392   9.182  50.183  1.00  0.00     0.210 C 
ENDBRANCH  11  17
BRANCH  12  19
HETATM   19  O4  UNL     1      18.625   6.658  48.220  1.00  0.00    -0.352 OA
HETATM   20  C20 UNL     1      18.940   6.979  46.881  1.00  0.00     0.210 C 
ENDBRANCH  12  19
ENDBRANCH   1   8
BRANCH   5  21
HETATM   21  C8  UNL     1      24.313   1.206  52.582  1.00  0.00     0.139 A 
HETATM   22  C9  UNL     1      24.357  -0.132  52.934  1.00  0.00     0.054 A 
HETATM   23  C10 UNL     1      25.456  -0.700  53.576  1.00  0.00     0.044 A 
HETATM   24  C11 UNL     1      26.509   0.127  53.849  1.00  0.00     0.116 A 
HETATM   25  C12 UNL     1      26.487   1.465  53.508  1.00  0.00     0.166 A 
HETATM   26  O3  UNL     1      27.593  -0.437  54.483  1.00  0.00    -0.333 OA
HETATM   27  N2  UNL     1      25.412   1.945  52.899  1.00  0.00    -0.210 NA
HETATM   28  N3  UNL     1      27.609   2.293  53.812  1.00  0.00    -0.307 N 
HETATM   29  C13 UNL     1      28.725   1.665  54.476  1.00  0.00     0.252 C 
HETATM   30  H9  UNL     1      27.613   3.286  53.568  1.00  0.00     0.170 HD
HETATM   31  O2  UNL     1      29.695   2.389  54.873  1.00  0.00    -0.270 OA
HETATM   32  C14 UNL     1      28.819   0.205  54.731  1.00  0.00     0.217 C 
HETATM   33  C15 UNL     1      29.841  -0.381  53.776  1.00  0.00     0.050 C 
ENDBRANCH   5  21
TORSDOF 5
ENDMDL
MODEL 5
REMARK VINA RESULT:      -8.3      6.703     10.133
REMARK  5 active torsions:
REMARK  status: ('A' for Active; 'I' for Inactive)
REMARK    1  A    between atoms: O1_2  and  C2_3 
REMARK    2  A    between atoms: C4_5  and  C5_6 
REMARK    3  A    between atoms: N1_10  and  C8_11 
REMARK    4  A    between atoms: C19_27  and  O4_28 
REMARK    5  A    between atoms: C21_30  and  O5_31 
ROOT
HETATM    1  C5  UNL     1      25.610   3.336  49.662  1.00  0.00     0.170 A 
HETATM    2  C6  UNL     1      26.949   3.524  49.093  1.00  0.00     0.067 A 
HETATM    3  C7  UNL     1      27.473   4.704  48.702  1.00  0.00     0.196 A 
HETATM    4  F1  UNL     1      28.691   5.040  48.159  1.00  0.00    -0.186 F 
HETATM    5  N1  UNL     1      26.674   5.902  48.839  1.00  0.00    -0.267 N 
HETATM    6  C16 UNL     1      25.372   5.744  49.386  1.00  0.00     0.213 A 
HETATM    7  N4  UNL     1      24.943   4.613  49.733  1.00  0.00    -0.270 NA
ENDROOT
BRANCH   1   8
HETATM    8  C4  UNL     1      25.592   2.751  51.032  1.00  0.00    -0.018 A 
HETATM    9  C3  UNL     1      26.758   2.799  51.809  1.00  0.00     0.050 A 
HETATM   10  C2  UNL     1      26.941   2.308  53.074  1.00  0.00     0.104 A 
HETATM   11  C21 UNL     1      25.857   1.694  53.658  1.00  0.00     0.135 A 
HETATM   12  C19 UNL     1      24.679   1.613  52.950  1.00  0.00     0.110 A 
HETATM   13  C17 UNL     1      24.553   2.124  51.684  1.00  0.00    -0.017 A 
HETATM   14  C18 UNL     1      23.263   2.021  50.984  1.00  0.00     0.052 C 
BRANCH  10  15
HETATM   15  O1  UNL     1      28.150   2.420  53.738  1.00  0.00    -0.353 OA
HETATM   16  C1  UNL     1      29.161   1.439  53.616  1.00  0.00     0.210 C 
ENDBRANCH  10  15
BRANCH  11  17
HETATM   17  O5  UNL     1      25.995   1.182  54.937  1.00  0.00    -0.351 OA
HETATM   18  C22 UNL     1      26.377  -0.152  55.130  1.00  0.00     0.210 C 
ENDBRANCH  11  17
BRANCH  12  19
HETATM   19  O4  UNL     1      23.554   0.991  53.523  1.00  0.00    -0.352 OA
HETATM   20  C20 UNL     1      23.396  -0.397  53.309  1.00  0.00     0.210 C 
ENDBRANCH  12  19
ENDBRANCH   1   8
BRANCH   5  21
HETATM   21  C8  UNL     1      27.029   7.231  48.493  1.00  0.00     0.139 A 
HETATM   22  C9  UNL     1      26.326   7.912  47.514  1.00  0.00     0.054 A 
HETATM   23  C10 UNL     1      26.640   9.218  47.141  1.00  0.00     0.044 A 
HETATM   24  C11 UNL     1      27.687   9.813  47.789  1.00  0.00     0.116 A 
HETATM   25  C12 UNL     1      28.403   9.152  48.767  1.00  0.00     0.166 A 
HETATM   26  O3  UNL     1      27.993  11.102  47.417  1.00  0.00    -0.333 OA
HETATM   27  N2  UNL     1      28.055   7.911  49.077  1.00  0.00    -0.210 NA
HETATM   28  N3  UNL     1      29.488   9.811  49.419  1.00  0.00    -0.307 N 
HETATM   29  C13 UNL     1      29.779  11.161  49.002  1.00  0.00     0.252 C 
HETATM   30  H9  UNL     1      30.032   9.340  50.146  1.00  0.00     0.170 HD
HETATM   31  O2  UNL     1      30.811  11.744  49.470  1.00  0.00    -0.270 OA
HETATM   32  C14 UNL     1      28.939  11.930  48.049  1.00  0.00     0.217 C 
HETATM   33  C15 UNL     1      28.174  12.983  48.828  1.00  0.00     0.050 C 
ENDBRANCH   5  21
TORSDOF 5
ENDMDL
MODEL 6
REMARK VINA RESULT:      -8.2      1.943      9.670
REMARK  5 active torsions:
REMARK  status: ('A' for Active; 'I' for Inactive)
REMARK    1  A    between atoms: O1_2  and  C2_3 
REMARK    2  A    between atoms: C4_5  and  C5_6 
REMARK    3  A    between atoms: N1_10  and  C8_11 
REMARK    4  A    between atoms: C19_27  and  O4_28 
REMARK    5  A    between atoms: C21_30  and  O5_31 
ROOT
HETATM    1  C5  UNL     1      23.335   1.889  51.369  1.00  0.00     0.170 A 
HETATM    2  C6  UNL     1      22.429   2.708  52.181  1.00  0.00     0.067 A 
HETATM    3  C7  UNL     1      21.135   2.424  52.436  1.00  0.00     0.196 A 
HETATM    4  F1  UNL     1      20.171   3.078  53.166  1.00  0.00    -0.186 F 
HETATM    5  N1  UNL     1      20.562   1.220  51.874  1.00  0.00    -0.267 N 
HETATM    6  C16 UNL     1      21.420   0.412  51.081  1.00  0.00     0.213 A 
HETATM    7  N4  UNL     1      22.621   0.734  50.883  1.00  0.00    -0.270 NA
ENDROOT
BRANCH   1   8
HETATM    8  C4  UNL     1      24.540   1.393  52.089  1.00  0.00    -0.018 A 
HETATM    9  C3  UNL     1      24.395   0.373  53.040  1.00  0.00     0.050 A 
HETATM   10  C2  UNL     1      25.373  -0.200  53.808  1.00  0.00     0.104 A 
HETATM   11  C21 UNL     1      26.652   0.274  53.630  1.00  0.00     0.135 A 
HETATM   12  C19 UNL     1      26.867   1.276  52.710  1.00  0.00     0.110 A 
HETATM   13  C17 UNL     1      25.847   1.814  51.967  1.00  0.00    -0.017 A 
HETATM   14  C18 UNL     1      26.141   2.871  50.987  1.00  0.00     0.052 C 
BRANCH  10  15
HETATM   15  O1  UNL     1      25.097  -1.206  54.717  1.00  0.00    -0.353 OA
HETATM   16  C1  UNL     1      23.847  -1.295  55.374  1.00  0.00     0.210 C 
ENDBRANCH  10  15
BRANCH  11  17
HETATM   17  O5  UNL     1      27.674  -0.276  54.385  1.00  0.00    -0.351 OA
HETATM   18  C22 UNL     1      28.638  -1.097  53.784  1.00  0.00     0.210 C 
ENDBRANCH  11  17
BRANCH  12  19
HETATM   19  O4  UNL     1      28.164   1.780  52.507  1.00  0.00    -0.352 OA
HETATM   20  C20 UNL     1      28.712   2.600  53.520  1.00  0.00     0.210 C 
ENDBRANCH  12  19
ENDBRANCH   1   8
BRANCH   5  21
HETATM   21  C8  UNL     1      19.235   0.739  52.016  1.00  0.00     0.139 A 
HETATM   22  C9  UNL     1      18.988  -0.449  52.683  1.00  0.00     0.054 A 
HETATM   23  C10 UNL     1      17.702  -0.960  52.846  1.00  0.00     0.044 A 
HETATM   24  C11 UNL     1      16.674  -0.233  52.314  1.00  0.00     0.116 A 
HETATM   25  C12 UNL     1      16.897   0.954  51.645  1.00  0.00     0.166 A 
HETATM   26  O3  UNL     1      15.406  -0.741  52.478  1.00  0.00    -0.333 OA
HETATM   27  N2  UNL     1      18.143   1.387  51.523  1.00  0.00    -0.210 NA
HETATM   28  N3  UNL     1      15.794   1.682  51.106  1.00  0.00    -0.307 N 
HETATM   29  C13 UNL     1      14.481   1.117  51.297  1.00  0.00     0.252 C 
HETATM   30  H9  UNL     1      15.937   2.563  50.606  1.00  0.00     0.170 HD
HETATM   31  O2  UNL     1      13.482   1.669  50.731  1.00  0.00    -0.270 OA
HETATM   32  C14 UNL     1      14.212  -0.086  52.126  1.00  0.00     0.217 C 
HETATM   33  C15 UNL     1      13.542   0.361  53.411  1.00  0.00     0.050 C 
ENDBRANCH   5  21
TORSDOF 5
ENDMDL
MODEL 7
REMARK VINA RESULT:      -8.1      5.654      7.294
REMARK  5 active torsions:
REMARK  status: ('A' for Active; 'I' for Inactive)
REMARK    1  A    between atoms: O1_2  and  C2_3 
REMARK    2  A    between atoms: C4_5  and  C5_6 
REMARK    3  A    between atoms: N1_10  and  C8_11 
REMARK    4  A    between atoms: C19_27  and  O4_28 
REMARK    5  A    between atoms: C21_30  and  O5_31 
ROOT
HETATM    1  C5  UNL     1      21.899   4.259  49.581  1.00  0.00     0.170 A 
HETATM    2  C6  UNL     1      22.176   4.724  50.945  1.00  0.00     0.067 A 
HETATM    3  C7  UNL     1      23.018   4.131  51.816  1.00  0.00     0.196 A 
HETATM    4  F1  UNL     1      23.379   4.439  53.107  1.00  0.00    -0.186 F 
HETATM    5  N1  UNL     1      23.720   2.935  51.405  1.00  0.00    -0.267 N 
HETATM    6  C16 UNL     1      23.466   2.464  50.089  1.00  0.00     0.213 A 
HETATM    7  N4  UNL     1      22.668   3.066  49.323  1.00  0.00    -0.270 NA
ENDROOT
BRANCH   1   8
HETATM    8  C4  UNL     1      22.231   5.239  48.510  1.00  0.00    -0.018 A 
HETATM    9  C3  UNL     1      23.475   5.886  48.539  1.00  0.00     0.050 A 
HETATM   10  C2  UNL     1      23.953   6.820  47.660  1.00  0.00     0.104 A 
HETATM   11  C21 UNL     1      23.121   7.169  46.620  1.00  0.00     0.135 A 
HETATM   12  C19 UNL     1      21.884   6.570  46.530  1.00  0.00     0.110 A 
HETATM   13  C17 UNL     1      21.458   5.639  47.443  1.00  0.00    -0.017 A 
HETATM   14  C18 UNL     1      20.131   5.022  47.284  1.00  0.00     0.052 C 
BRANCH  10  15
HETATM   15  O1  UNL     1      25.207   7.388  47.800  1.00  0.00    -0.353 OA
HETATM   16  C1  UNL     1      26.284   6.680  48.382  1.00  0.00     0.210 C 
ENDBRANCH  10  15
BRANCH  11  17
HETATM   17  O5  UNL     1      23.562   8.109  45.705  1.00  0.00    -0.351 OA
HETATM   18  C22 UNL     1      24.113   7.706  44.482  1.00  0.00     0.210 C 
ENDBRANCH  11  17
BRANCH  12  19
HETATM   19  O4  UNL     1      21.013   6.907  45.479  1.00  0.00    -0.352 OA
HETATM   20  C20 UNL     1      20.259   8.095  45.610  1.00  0.00     0.210 C 
ENDBRANCH  12  19
ENDBRANCH   1   8
BRANCH   5  21
HETATM   21  C8  UNL     1      24.641   2.163  52.158  1.00  0.00     0.139 A 
HETATM   22  C9  UNL     1      24.375   0.833  52.440  1.00  0.00     0.054 A 
HETATM   23  C10 UNL     1      25.251   0.036  53.176  1.00  0.00     0.044 A 
HETATM   24  C11 UNL     1      26.401   0.626  53.619  1.00  0.00     0.116 A 
HETATM   25  C12 UNL     1      26.687   1.951  53.351  1.00  0.00     0.166 A 
HETATM   26  O3  UNL     1      27.263  -0.164  54.345  1.00  0.00    -0.333 OA
HETATM   27  N2  UNL     1      25.814   2.656  52.645  1.00  0.00    -0.210 NA
HETATM   28  N3  UNL     1      27.901   2.526  53.831  1.00  0.00    -0.307 N 
HETATM   29  C13 UNL     1      28.777   1.667  54.588  1.00  0.00     0.252 C 
HETATM   30  H9  UNL     1      28.131   3.505  53.644  1.00  0.00     0.170 HD
HETATM   31  O2  UNL     1      29.812   2.168  55.138  1.00  0.00    -0.270 OA
HETATM   32  C14 UNL     1      28.550   0.211  54.773  1.00  0.00     0.217 C 
HETATM   33  C15 UNL     1      29.551  -0.541  53.916  1.00  0.00     0.050 C 
ENDBRANCH   5  21
TORSDOF 5
ENDMDL
MODEL 8
REMARK VINA RESULT:      -8.0      5.454      8.500
REMARK  5 active torsions:
REMARK  status: ('A' for Active; 'I' for Inactive)
REMARK    1  A    between atoms: O1_2  and  C2_3 
REMARK    2  A    between atoms: C4_5  and  C5_6 
REMARK    3  A    between atoms: N1_10  and  C8_11 
REMARK    4  A    between atoms: C19_27  and  O4_28 
REMARK    5  A    between atoms: C21_30  and  O5_31 
ROOT
HETATM    1  C5  UNL     1      22.685   3.348  51.722  1.00  0.00     0.170 A 
HETATM    2  C6  UNL     1      22.832   3.322  50.263  1.00  0.00     0.067 A 
HETATM    3  C7  UNL     1      23.468   4.255  49.525  1.00  0.00     0.196 A 
HETATM    4  F1  UNL     1      23.688   4.372  48.172  1.00  0.00    -0.186 F 
HETATM    5  N1  UNL     1      24.063   5.390  50.196  1.00  0.00    -0.267 N 
HETATM    6  C16 UNL     1      23.931   5.437  51.610  1.00  0.00     0.213 A 
HETATM    7  N4  UNL     1      23.326   4.532  52.241  1.00  0.00    -0.270 NA
ENDROOT
BRANCH   1   8
HETATM    8  C4  UNL     1      23.279   2.179  52.428  1.00  0.00    -0.018 A 
HETATM    9  C3  UNL     1      24.553   2.303  53.002  1.00  0.00     0.050 A 
HETATM   10  C2  UNL     1      25.265   1.346  53.673  1.00  0.00     0.104 A 
HETATM   11  C21 UNL     1      24.666   0.114  53.807  1.00  0.00     0.135 A 
HETATM   12  C19 UNL     1      23.413  -0.076  53.268  1.00  0.00     0.110 A 
HETATM   13  C17 UNL     1      22.746   0.921  52.604  1.00  0.00    -0.017 A 
HETATM   14  C18 UNL     1      21.402   0.661  52.064  1.00  0.00     0.052 C 
BRANCH  10  15
HETATM   15  O1  UNL     1      26.522   1.596  54.195  1.00  0.00    -0.353 OA
HETATM   16  C1  UNL     1      27.672   1.657  53.374  1.00  0.00     0.210 C 
ENDBRANCH  10  15
BRANCH  11  17
HETATM   17  O5  UNL     1      25.348  -0.885  54.479  1.00  0.00    -0.351 OA
HETATM   18  C22 UNL     1      25.251  -0.997  55.873  1.00  0.00     0.210 C 
ENDBRANCH  11  17
BRANCH  12  19
HETATM   19  O4  UNL     1      22.777  -1.326  53.389  1.00  0.00    -0.352 OA
HETATM   20  C20 UNL     1      21.946  -1.529  54.514  1.00  0.00     0.210 C 
ENDBRANCH  12  19
ENDBRANCH   1   8
BRANCH   5  21
HETATM   21  C8  UNL     1      24.770   6.474  49.616  1.00  0.00     0.139 A 
HETATM   22  C9  UNL     1      24.090   7.471  48.938  1.00  0.00     0.054 A 
HETATM   23  C10 UNL     1      24.743   8.555  48.352  1.00  0.00     0.044 A 
HETATM   24  C11 UNL     1      26.103   8.597  48.472  1.00  0.00     0.116 A 
HETATM   25  C12 UNL     1      26.802   7.613  49.143  1.00  0.00     0.166 A 
HETATM   26  O3  UNL     1      26.744   9.668  47.892  1.00  0.00    -0.333 OA
HETATM   27  N2  UNL     1      26.124   6.608  49.679  1.00  0.00    -0.210 NA
HETATM   28  N3  UNL     1      28.223   7.697  49.245  1.00  0.00    -0.307 N 
HETATM   29  C13 UNL     1      28.858   8.833  48.624  1.00  0.00     0.252 C 
HETATM   30  H9  UNL     1      28.760   6.978  49.737  1.00  0.00     0.170 HD
HETATM   31  O2  UNL     1      30.131   8.887  48.587  1.00  0.00    -0.270 OA
HETATM   32  C14 UNL     1      28.113   9.965  48.016  1.00  0.00     0.217 C 
HETATM   33  C15 UNL     1      28.237  11.166  48.934  1.00  0.00     0.050 C 
ENDBRANCH   5  21
TORSDOF 5
ENDMDL
MODEL 9
REMARK VINA RESULT:      -7.9      5.356      7.151
REMARK  5 active torsions:
REMARK  status: ('A' for Active; 'I' for Inactive)
REMARK    1  A    between atoms: O1_2  and  C2_3 
REMARK    2  A    between atoms: C4_5  and  C5_6 
REMARK    3  A    between atoms: N1_10  and  C8_11 
REMARK    4  A    between atoms: C19_27  and  O4_28 
REMARK    5  A    between atoms: C21_30  and  O5_31 
ROOT
HETATM    1  C5  UNL     1      22.161   4.050  51.429  1.00  0.00     0.170 A 
HETATM    2  C6  UNL     1      22.206   4.135  49.965  1.00  0.00     0.067 A 
HETATM    3  C7  UNL     1      23.257   4.568  49.240  1.00  0.00     0.196 A 
HETATM    4  F1  UNL     1      23.453   4.705  47.885  1.00  0.00    -0.186 F 
HETATM    5  N1  UNL     1      24.454   4.995  49.932  1.00  0.00    -0.267 N 
HETATM    6  C16 UNL     1      24.433   4.924  51.351  1.00  0.00     0.213 A 
HETATM    7  N4  UNL     1      23.418   4.508  51.968  1.00  0.00    -0.270 NA
ENDROOT
BRANCH   1   8
HETATM    8  C4  UNL     1      21.921   2.682  51.966  1.00  0.00    -0.018 A 
HETATM    9  C3  UNL     1      23.020   1.854  52.238  1.00  0.00     0.050 A 
HETATM   10  C2  UNL     1      23.003   0.571  52.718  1.00  0.00     0.104 A 
HETATM   11  C21 UNL     1      21.765   0.025  52.966  1.00  0.00     0.135 A 
HETATM   12  C19 UNL     1      20.642   0.784  52.723  1.00  0.00     0.110 A 
HETATM   13  C17 UNL     1      20.720   2.065  52.241  1.00  0.00    -0.017 A 
HETATM   14  C18 UNL     1      19.485   2.833  52.015  1.00  0.00     0.052 C 
BRANCH  10  15
HETATM   15  O1  UNL     1      24.165  -0.143  52.945  1.00  0.00    -0.353 OA
HETATM   16  C1  UNL     1      25.319   0.465  53.492  1.00  0.00     0.210 C 
ENDBRANCH  10  15
BRANCH  11  17
HETATM   17  O5  UNL     1      21.698  -1.270  53.453  1.00  0.00    -0.351 OA
HETATM   18  C22 UNL     1      21.752  -1.514  54.832  1.00  0.00     0.210 C 
ENDBRANCH  11  17
BRANCH  12  19
HETATM   19  O4  UNL     1      19.364   0.250  52.967  1.00  0.00    -0.352 OA
HETATM   20  C20 UNL     1      18.721  -0.421  51.902  1.00  0.00     0.210 C 
ENDBRANCH  12  19
ENDBRANCH   1   8
BRANCH   5  21
HETATM   21  C8  UNL     1      25.661   5.481  49.366  1.00  0.00     0.139 A 
HETATM   22  C9  UNL     1      26.699   4.613  49.076  1.00  0.00     0.054 A 
HETATM   23  C10 UNL     1      27.902   5.045  48.520  1.00  0.00     0.044 A 
HETATM   24  C11 UNL     1      28.021   6.383  48.268  1.00  0.00     0.116 A 
HETATM   25  C12 UNL     1      27.000   7.268  48.551  1.00  0.00     0.166 A 
HETATM   26  O3  UNL     1      29.211   6.806  47.720  1.00  0.00    -0.333 OA
HETATM   27  N2  UNL     1      25.880   6.795  49.078  1.00  0.00    -0.210 NA
HETATM   28  N3  UNL     1      27.167   8.657  48.270  1.00  0.00    -0.307 N 
HETATM   29  C13 UNL     1      28.427   9.062  47.697  1.00  0.00     0.252 C 
HETATM   30  H9  UNL     1      26.423   9.330  48.472  1.00  0.00     0.170 HD
HETATM   31  O2  UNL     1      28.666  10.304  47.542  1.00  0.00    -0.270 OA
HETATM   32  C14 UNL     1      29.482   8.110  47.266  1.00  0.00     0.217 C 
HETATM   33  C15 UNL     1      29.498   8.069  45.749  1.00  0.00     0.050 C 
ENDBRANCH   5  21
TORSDOF 5
ENDMDL
