MODEL 1
REMARK VINA RESULT:      -8.3      0.000      0.000
REMARK  3 active torsions:
REMARK  status: ('A' for Active; 'I' for Inactive)
REMARK    1  A    between atoms: C7_7  and  N1_8 
REMARK    2  A    between atoms: N1_8  and  C8_9 
REMARK    3  A    between atoms: C18_21  and  O2_22 
ROOT
HETATM    1  C1  UNL     1      28.467   5.456  48.389  1.00  0.00     0.018 C 
HETATM    2  C2  UNL     1      27.345   5.128  48.693  1.00  0.00    -0.078 C 
HETATM    3  C3  UNL     1      26.010   4.724  49.053  1.00  0.00     0.019 A 
HETATM    4  C4  UNL     1      24.896   5.433  48.660  1.00  0.00     0.021 A 
HETATM    5  C5  UNL     1      23.634   5.015  49.020  1.00  0.00     0.004 A 
HETATM    6  C6  UNL     1      23.525   3.863  49.786  1.00  0.00     0.029 A 
HETATM    7  C7  UNL     1      24.658   3.153  50.179  1.00  0.00     0.034 A 
HETATM    8  C19 UNL     1      25.922   3.568  49.822  1.00  0.00     0.050 A 
ENDROOT
BRANCH   7   9
HETATM    9  N1  UNL     1      24.257   2.005  50.959  1.00  0.00    -0.343 N 
HETATM   10  H5  UNL     1      24.479   1.053  50.556  1.00  0.00     0.167 HD
BRANCH   9  11
HETATM   11  C8  UNL     1      23.586   2.188  52.236  1.00  0.00     0.128 C 
HETATM   12  N2  UNL     1      22.444   1.578  52.226  1.00  0.00    -0.270 NA
HETATM   13  C9  UNL     1      21.461   1.487  53.228  1.00  0.00     0.188 C 
HETATM   14  C10 UNL     1      21.177   0.095  53.584  1.00  0.00    -0.048 C 
HETATM   15  C11 UNL     1      20.083  -0.607  53.507  1.00  0.00     0.020 C 
HETATM   16  C12 UNL     1      22.154  -0.803  54.165  1.00  0.00     0.006 C 
HETATM   17  C13 UNL     1      23.393  -0.979  54.576  1.00  0.00    -0.000 C 
HETATM   18  C14 UNL     1      24.740  -1.267  55.057  1.00  0.00     0.195 C 
HETATM   19  O1  UNL     1      25.709  -1.127  54.063  1.00  0.00    -0.387 OA
HETATM   20  C15 UNL     1      25.637   0.141  53.471  1.00  0.00     0.168 C 
HETATM   21  C16 UNL     1      25.860   1.289  54.358  1.00  0.00     0.029 C 
HETATM   22  C17 UNL     1      25.655   2.599  53.659  1.00  0.00     0.041 C 
HETATM   23  C18 UNL     1      24.302   2.988  53.232  1.00  0.00     0.187 C 
BRANCH  23  24
HETATM   24  O2  UNL     1      24.432   4.340  52.773  1.00  0.00    -0.388 OA
HETATM   25  H21 UNL     1      25.066   4.766  53.419  1.00  0.00     0.210 HD
ENDBRANCH  23  24
ENDBRANCH   9  11
ENDBRANCH   7   9
TORSDOF 3
ENDMDL
MODEL 2
REMARK VINA RESULT:      -8.2      2.146      3.502
REMARK  3 active torsions:
REMARK  status: ('A' for Active; 'I' for Inactive)
REMARK    1  A    between atoms: C7_7  and  N1_8 
REMARK    2  A    between atoms: N1_8  and  C8_9 
REMARK    3  A    between atoms: C18_21  and  O2_22 
ROOT
HETATM    1  C1  UNL     1      27.561   5.285  48.526  1.00  0.00     0.018 C 
HETATM    2  C2  UNL     1      26.561   5.380  49.197  1.00  0.00    -0.078 C 
HETATM    3  C3  UNL     1      25.363   5.483  49.991  1.00  0.00     0.019 A 
HETATM    4  C4  UNL     1      24.815   6.698  50.339  1.00  0.00     0.021 A 
HETATM    5  C5  UNL     1      23.665   6.759  51.096  1.00  0.00     0.004 A 
HETATM    6  C6  UNL     1      23.084   5.563  51.492  1.00  0.00     0.029 A 
HETATM    7  C7  UNL     1      23.647   4.338  51.135  1.00  0.00     0.034 A 
HETATM    8  C19 UNL     1      24.798   4.273  50.379  1.00  0.00     0.050 A 
ENDROOT
BRANCH   7   9
HETATM    9  N1  UNL     1      22.843   3.266  51.674  1.00  0.00    -0.343 N 
HETATM   10  H5  UNL     1      22.001   3.544  52.249  1.00  0.00     0.167 HD
BRANCH   9  11
HETATM   11  C8  UNL     1      23.203   1.881  51.414  1.00  0.00     0.128 C 
HETATM   12  N2  UNL     1      24.256   1.562  52.098  1.00  0.00    -0.270 NA
HETATM   13  C9  UNL     1      24.958   0.346  52.158  1.00  0.00     0.188 C 
HETATM   14  C10 UNL     1      25.023  -0.176  53.525  1.00  0.00    -0.048 C 
HETATM   15  C11 UNL     1      26.036  -0.425  54.304  1.00  0.00     0.020 C 
HETATM   16  C12 UNL     1      23.859  -0.567  54.293  1.00  0.00     0.006 C 
HETATM   17  C13 UNL     1      22.547  -0.674  54.343  1.00  0.00    -0.000 C 
HETATM   18  C14 UNL     1      21.103  -0.830  54.490  1.00  0.00     0.195 C 
HETATM   19  O1  UNL     1      20.417   0.379  54.381  1.00  0.00    -0.387 OA
HETATM   20  C15 UNL     1      20.741   1.033  53.186  1.00  0.00     0.168 C 
HETATM   21  C16 UNL     1      20.417   0.320  51.944  1.00  0.00     0.029 C 
HETATM   22  C17 UNL     1      20.901   1.047  50.726  1.00  0.00     0.041 C 
HETATM   23  C18 UNL     1      22.346   1.158  50.473  1.00  0.00     0.187 C 
BRANCH  23  24
HETATM   24  O2  UNL     1      22.451   1.738  49.167  1.00  0.00    -0.388 OA
HETATM   25  H21 UNL     1      22.417   0.959  48.540  1.00  0.00     0.210 HD
ENDBRANCH  23  24
ENDBRANCH   9  11
ENDBRANCH   7   9
TORSDOF 3
ENDMDL
MODEL 3
REMARK VINA RESULT:      -8.1      2.941      6.485
REMARK  3 active torsions:
REMARK  status: ('A' for Active; 'I' for Inactive)
REMARK    1  A    between atoms: C7_7  and  N1_8 
REMARK    2  A    between atoms: N1_8  and  C8_9 
REMARK    3  A    between atoms: C18_21  and  O2_22 
ROOT
HETATM    1  C1  UNL     1      25.899   0.041  52.521  1.00  0.00     0.018 C 
HETATM    2  C2  UNL     1      24.760   0.024  52.924  1.00  0.00    -0.078 C 
HETATM    3  C3  UNL     1      23.402   0.018  53.402  1.00  0.00     0.019 A 
HETATM    4  C4  UNL     1      22.984  -0.814  54.418  1.00  0.00     0.021 A 
HETATM    5  C5  UNL     1      21.677  -0.789  54.853  1.00  0.00     0.004 A 
HETATM    6  C6  UNL     1      20.804   0.096  54.237  1.00  0.00     0.029 A 
HETATM    7  C7  UNL     1      21.236   0.933  53.210  1.00  0.00     0.034 A 
HETATM    8  C19 UNL     1      22.542   0.911  52.771  1.00  0.00     0.050 A 
ENDROOT
BRANCH   7   9
HETATM    9  N1  UNL     1      20.130   1.745  52.757  1.00  0.00    -0.343 N 
HETATM   10  H5  UNL     1      19.159   1.410  53.006  1.00  0.00     0.167 HD
BRANCH   9  11
HETATM   11  C8  UNL     1      20.379   2.961  52.000  1.00  0.00     0.128 C 
HETATM   12  N2  UNL     1      21.580   3.388  52.233  1.00  0.00    -0.270 NA
HETATM   13  C9  UNL     1      22.248   4.519  51.733  1.00  0.00     0.188 C 
HETATM   14  C10 UNL     1      23.486   4.155  51.039  1.00  0.00    -0.048 C 
HETATM   15  C11 UNL     1      24.729   4.465  51.277  1.00  0.00     0.020 C 
HETATM   16  C12 UNL     1      23.530   3.339  49.844  1.00  0.00     0.006 C 
HETATM   17  C13 UNL     1      22.857   2.643  48.950  1.00  0.00    -0.000 C 
HETATM   18  C14 UNL     1      22.198   1.853  47.915  1.00  0.00     0.195 C 
HETATM   19  O1  UNL     1      21.501   0.761  48.432  1.00  0.00    -0.387 OA
HETATM   20  C15 UNL     1      20.594   1.169  49.419  1.00  0.00     0.168 C 
HETATM   21  C16 UNL     1      19.543   2.101  48.993  1.00  0.00     0.029 C 
HETATM   22  C17 UNL     1      18.693   2.564  50.137  1.00  0.00     0.041 C 
HETATM   23  C18 UNL     1      19.276   3.440  51.166  1.00  0.00     0.187 C 
BRANCH  23  24
HETATM   24  O2  UNL     1      18.170   3.830  51.991  1.00  0.00    -0.388 OA
HETATM   25  H21 UNL     1      18.526   3.792  52.925  1.00  0.00     0.210 HD
ENDBRANCH  23  24
ENDBRANCH   9  11
ENDBRANCH   7   9
TORSDOF 3
ENDMDL
MODEL 4
REMARK VINA RESULT:      -8.0      2.481      6.455
REMARK  3 active torsions:
REMARK  status: ('A' for Active; 'I' for Inactive)
REMARK    1  A    between atoms: C7_7  and  N1_8 
REMARK    2  A    between atoms: N1_8  and  C8_9 
REMARK    3  A    between atoms: C18_21  and  O2_22 
ROOT
HETATM    1  C1  UNL     1      22.556  -1.168  54.508  1.00  0.00     0.018 C 
HETATM    2  C2  UNL     1      23.414  -0.541  53.933  1.00  0.00    -0.078 C 
HETATM    3  C3  UNL     1      24.428   0.210  53.240  1.00  0.00     0.019 A 
HETATM    4  C4  UNL     1      25.664  -0.321  52.943  1.00  0.00     0.021 A 
HETATM    5  C5  UNL     1      26.608   0.426  52.274  1.00  0.00     0.004 A 
HETATM    6  C6  UNL     1      26.273   1.723  51.913  1.00  0.00     0.029 A 
HETATM    7  C7  UNL     1      25.020   2.252  52.217  1.00  0.00     0.034 A 
HETATM    8  C19 UNL     1      24.073   1.509  52.887  1.00  0.00     0.050 A 
ENDROOT
BRANCH   7   9
HETATM    9  N1  UNL     1      24.941   3.609  51.727  1.00  0.00    -0.343 N 
HETATM   10  H5  UNL     1      25.086   4.381  52.434  1.00  0.00     0.167 HD
BRANCH   9  11
HETATM   11  C8  UNL     1      24.679   3.862  50.319  1.00  0.00     0.128 C 
HETATM   12  N2  UNL     1      23.817   3.006  49.869  1.00  0.00    -0.270 NA
HETATM   13  C9  UNL     1      23.275   2.864  48.580  1.00  0.00     0.188 C 
HETATM   14  C10 UNL     1      21.813   2.962  48.592  1.00  0.00    -0.048 C 
HETATM   15  C11 UNL     1      20.891   2.108  48.252  1.00  0.00     0.020 C 
HETATM   16  C12 UNL     1      21.089   4.150  48.996  1.00  0.00     0.006 C 
HETATM   17  C13 UNL     1      21.149   5.386  49.447  1.00  0.00    -0.000 C 
HETATM   18  C14 UNL     1      21.116   6.758  49.943  1.00  0.00     0.195 C 
HETATM   19  O1  UNL     1      21.700   6.891  51.203  1.00  0.00    -0.387 OA
HETATM   20  C15 UNL     1      23.003   6.377  51.206  1.00  0.00     0.168 C 
HETATM   21  C16 UNL     1      23.959   7.018  50.295  1.00  0.00     0.029 C 
HETATM   22  C17 UNL     1      25.291   6.331  50.289  1.00  0.00     0.041 C 
HETATM   23  C18 UNL     1      25.407   4.980  49.718  1.00  0.00     0.187 C 
BRANCH  23  24
HETATM   24  O2  UNL     1      26.814   4.702  49.708  1.00  0.00    -0.388 OA
HETATM   25  H21 UNL     1      26.988   4.246  50.581  1.00  0.00     0.210 HD
ENDBRANCH  23  24
ENDBRANCH   9  11
ENDBRANCH   7   9
TORSDOF 3
ENDMDL
MODEL 5
REMARK VINA RESULT:      -8.0      5.569     10.322
REMARK  3 active torsions:
REMARK  status: ('A' for Active; 'I' for Inactive)
REMARK    1  A    between atoms: C7_7  and  N1_8 
REMARK    2  A    between atoms: N1_8  and  C8_9 
REMARK    3  A    between atoms: C18_21  and  O2_22 
ROOT
HETATM    1  C1  UNL     1      26.340   2.609  50.259  1.00  0.00     0.018 C 
HETATM    2  C2  UNL     1      26.494   3.672  49.707  1.00  0.00    -0.078 C 
HETATM    3  C3  UNL     1      26.689   4.942  49.055  1.00  0.00     0.019 A 
HETATM    4  C4  UNL     1      25.675   5.866  48.929  1.00  0.00     0.021 A 
HETATM    5  C5  UNL     1      25.899   7.073  48.303  1.00  0.00     0.004 A 
HETATM    6  C6  UNL     1      27.171   7.322  47.808  1.00  0.00     0.029 A 
HETATM    7  C7  UNL     1      28.190   6.380  47.940  1.00  0.00     0.034 A 
HETATM    8  C19 UNL     1      27.970   5.171  48.565  1.00  0.00     0.050 A 
ENDROOT
BRANCH   7   9
HETATM    9  N1  UNL     1      29.400   6.896  47.343  1.00  0.00    -0.343 N 
HETATM   10  H5  UNL     1      29.285   7.530  46.505  1.00  0.00     0.167 HD
BRANCH   9  11
HETATM   11  C8  UNL     1      30.697   6.543  47.898  1.00  0.00     0.128 C 
HETATM   12  N2  UNL     1      30.921   5.278  47.726  1.00  0.00    -0.270 NA
HETATM   13  C9  UNL     1      32.030   4.500  48.102  1.00  0.00     0.188 C 
HETATM   14  C10 UNL     1      32.646   3.841  46.948  1.00  0.00    -0.048 C 
HETATM   15  C11 UNL     1      32.814   2.581  46.665  1.00  0.00     0.020 C 
HETATM   16  C12 UNL     1      33.254   4.554  45.843  1.00  0.00     0.006 C 
HETATM   17  C13 UNL     1      33.543   5.718  45.299  1.00  0.00    -0.000 C 
HETATM   18  C14 UNL     1      33.908   6.958  44.621  1.00  0.00     0.195 C 
HETATM   19  O1  UNL     1      32.800   7.741  44.297  1.00  0.00    -0.387 OA
HETATM   20  C15 UNL     1      32.014   7.989  45.430  1.00  0.00     0.168 C 
HETATM   21  C16 UNL     1      32.664   8.718  46.527  1.00  0.00     0.029 C 
HETATM   22  C17 UNL     1      31.782   8.837  47.733  1.00  0.00     0.041 C 
HETATM   23  C18 UNL     1      31.454   7.634  48.513  1.00  0.00     0.187 C 
BRANCH  23  24
HETATM   24  O2  UNL     1      30.762   8.120  49.671  1.00  0.00    -0.388 OA
HETATM   25  H21 UNL     1      31.322   7.820  50.444  1.00  0.00     0.210 HD
ENDBRANCH  23  24
ENDBRANCH   9  11
ENDBRANCH   7   9
TORSDOF 3
ENDMDL
MODEL 6
REMARK VINA RESULT:      -8.0      5.835     10.832
REMARK  3 active torsions:
REMARK  status: ('A' for Active; 'I' for Inactive)
REMARK    1  A    between atoms: C7_7  and  N1_8 
REMARK    2  A    between atoms: N1_8  and  C8_9 
REMARK    3  A    between atoms: C18_21  and  O2_22 
ROOT
HETATM    1  C1  UNL     1      26.472   2.966  49.870  1.00  0.00     0.018 C 
HETATM    2  C2  UNL     1      26.590   4.058  49.367  1.00  0.00    -0.078 C 
HETATM    3  C3  UNL     1      26.741   5.362  48.775  1.00  0.00     0.019 A 
HETATM    4  C4  UNL     1      25.664   6.179  48.510  1.00  0.00     0.021 A 
HETATM    5  C5  UNL     1      25.847   7.422  47.947  1.00  0.00     0.004 A 
HETATM    6  C6  UNL     1      27.145   7.820  47.658  1.00  0.00     0.029 A 
HETATM    7  C7  UNL     1      28.229   6.986  47.929  1.00  0.00     0.034 A 
HETATM    8  C19 UNL     1      28.049   5.741  48.492  1.00  0.00     0.050 A 
ENDROOT
BRANCH   7   9
HETATM    9  N1  UNL     1      29.451   7.646  47.534  1.00  0.00    -0.343 N 
HETATM   10  H5  UNL     1      29.523   7.953  46.525  1.00  0.00     0.167 HD
BRANCH   9  11
HETATM   11  C8  UNL     1      30.510   7.866  48.507  1.00  0.00     0.128 C 
HETATM   12  N2  UNL     1      31.304   6.843  48.534  1.00  0.00    -0.270 NA
HETATM   13  C9  UNL     1      32.448   6.610  49.316  1.00  0.00     0.188 C 
HETATM   14  C10 UNL     1      33.631   6.363  48.488  1.00  0.00    -0.048 C 
HETATM   15  C11 UNL     1      34.413   5.325  48.392  1.00  0.00     0.020 C 
HETATM   16  C12 UNL     1      34.194   7.337  47.576  1.00  0.00     0.006 C 
HETATM   17  C13 UNL     1      34.109   8.541  47.048  1.00  0.00    -0.000 C 
HETATM   18  C14 UNL     1      34.099   9.855  46.411  1.00  0.00     0.195 C 
HETATM   19  O1  UNL     1      32.936  10.088  45.678  1.00  0.00    -0.387 OA
HETATM   20  C15 UNL     1      31.797   9.895  46.470  1.00  0.00     0.168 C 
HETATM   21  C16 UNL     1      31.665  10.765  47.646  1.00  0.00     0.029 C 
HETATM   22  C17 UNL     1      30.477  10.410  48.488  1.00  0.00     0.041 C 
HETATM   23  C18 UNL     1      30.468   9.139  49.229  1.00  0.00     0.187 C 
BRANCH  23  24
HETATM   24  O2  UNL     1      29.297   9.198  50.053  1.00  0.00    -0.388 OA
HETATM   25  H21 UNL     1      29.317   8.350  50.584  1.00  0.00     0.210 HD
ENDBRANCH  23  24
ENDBRANCH   9  11
ENDBRANCH   7   9
TORSDOF 3
ENDMDL
MODEL 7
REMARK VINA RESULT:      -7.8      2.841      4.614
REMARK  3 active torsions:
REMARK  status: ('A' for Active; 'I' for Inactive)
REMARK    1  A    between atoms: C7_7  and  N1_8 
REMARK    2  A    between atoms: N1_8  and  C8_9 
REMARK    3  A    between atoms: C18_21  and  O2_22 
ROOT
HETATM    1  C1  UNL     1      27.090   9.843  47.078  1.00  0.00     0.018 C 
HETATM    2  C2  UNL     1      27.262   8.721  47.491  1.00  0.00    -0.078 C 
HETATM    3  C3  UNL     1      27.464   7.387  47.994  1.00  0.00     0.019 A 
HETATM    4  C4  UNL     1      28.567   6.633  47.659  1.00  0.00     0.021 A 
HETATM    5  C5  UNL     1      28.729   5.362  48.163  1.00  0.00     0.004 A 
HETATM    6  C6  UNL     1      27.749   4.871  49.014  1.00  0.00     0.029 A 
HETATM    7  C7  UNL     1      26.636   5.641  49.347  1.00  0.00     0.034 A 
HETATM    8  C19 UNL     1      26.470   6.913  48.844  1.00  0.00     0.050 A 
ENDROOT
BRANCH   7   9
HETATM    9  N1  UNL     1      25.785   4.891  50.243  1.00  0.00    -0.343 N 
HETATM   10  H5  UNL     1      26.265   4.224  50.909  1.00  0.00     0.167 HD
BRANCH   9  11
HETATM   11  C8  UNL     1      24.343   5.075  50.206  1.00  0.00     0.128 C 
HETATM   12  N2  UNL     1      23.902   4.858  49.007  1.00  0.00    -0.270 NA
HETATM   13  C9  UNL     1      22.591   4.924  48.504  1.00  0.00     0.188 C 
HETATM   14  C10 UNL     1      22.173   3.651  47.912  1.00  0.00    -0.048 C 
HETATM   15  C11 UNL     1      21.814   3.343  46.698  1.00  0.00     0.020 C 
HETATM   16  C12 UNL     1      22.050   2.417  48.659  1.00  0.00     0.006 C 
HETATM   17  C13 UNL     1      22.176   1.805  49.820  1.00  0.00    -0.000 C 
HETATM   18  C14 UNL     1      22.284   1.043  51.060  1.00  0.00     0.195 C 
HETATM   19  O1  UNL     1      23.581   1.027  51.572  1.00  0.00    -0.387 OA
HETATM   20  C15 UNL     1      24.074   2.330  51.726  1.00  0.00     0.168 C 
HETATM   21  C16 UNL     1      23.333   3.202  52.646  1.00  0.00     0.029 C 
HETATM   22  C17 UNL     1      23.869   4.602  52.659  1.00  0.00     0.041 C 
HETATM   23  C18 UNL     1      23.708   5.452  51.469  1.00  0.00     0.187 C 
BRANCH  23  24
HETATM   24  O2  UNL     1      24.158   6.750  51.877  1.00  0.00    -0.388 OA
HETATM   25  H21 UNL     1      24.714   7.078  51.112  1.00  0.00     0.210 HD
ENDBRANCH  23  24
ENDBRANCH   9  11
ENDBRANCH   7   9
TORSDOF 3
ENDMDL
MODEL 8
REMARK VINA RESULT:      -7.7      7.607     10.672
REMARK  3 active torsions:
REMARK  status: ('A' for Active; 'I' for Inactive)
REMARK    1  A    between atoms: C7_7  and  N1_8 
REMARK    2  A    between atoms: N1_8  and  C8_9 
REMARK    3  A    between atoms: C18_21  and  O2_22 
ROOT
HETATM    1  C1  UNL     1      32.077   0.668  46.675  1.00  0.00     0.018 C 
HETATM    2  C2  UNL     1      32.558   1.711  47.052  1.00  0.00    -0.078 C 
HETATM    3  C3  UNL     1      33.123   2.960  47.492  1.00  0.00     0.019 A 
HETATM    4  C4  UNL     1      34.472   3.116  47.724  1.00  0.00     0.021 A 
HETATM    5  C5  UNL     1      34.978   4.327  48.141  1.00  0.00     0.004 A 
HETATM    6  C6  UNL     1      34.088   5.377  48.317  1.00  0.00     0.029 A 
HETATM    7  C7  UNL     1      32.725   5.209  48.080  1.00  0.00     0.034 A 
HETATM    8  C19 UNL     1      32.214   3.999  47.665  1.00  0.00     0.050 A 
ENDROOT
BRANCH   7   9
HETATM    9  N1  UNL     1      32.037   6.454  48.338  1.00  0.00    -0.343 N 
HETATM   10  H5  UNL     1      32.399   7.041  49.140  1.00  0.00     0.167 HD
BRANCH   9  11
HETATM   11  C8  UNL     1      30.910   6.851  47.510  1.00  0.00     0.128 C 
HETATM   12  N2  UNL     1      29.803   6.445  48.048  1.00  0.00    -0.270 NA
HETATM   13  C9  UNL     1      28.478   6.592  47.603  1.00  0.00     0.188 C 
HETATM   14  C10 UNL     1      27.647   7.283  48.593  1.00  0.00    -0.048 C 
HETATM   15  C11 UNL     1      26.586   6.901  49.244  1.00  0.00     0.020 C 
HETATM   16  C12 UNL     1      27.877   8.646  49.027  1.00  0.00     0.006 C 
HETATM   17  C13 UNL     1      28.623   9.728  48.936  1.00  0.00    -0.000 C 
HETATM   18  C14 UNL     1      29.389  10.970  48.903  1.00  0.00     0.195 C 
HETATM   19  O1  UNL     1      30.714  10.798  49.301  1.00  0.00    -0.387 OA
HETATM   20  C15 UNL     1      31.336   9.793  48.549  1.00  0.00     0.168 C 
HETATM   21  C16 UNL     1      31.420  10.021  47.101  1.00  0.00     0.029 C 
HETATM   22  C17 UNL     1      32.000   8.847  46.371  1.00  0.00     0.041 C 
HETATM   23  C18 UNL     1      31.234   7.593  46.291  1.00  0.00     0.187 C 
BRANCH  23  24
HETATM   24  O2  UNL     1      31.978   6.761  45.392  1.00  0.00    -0.388 OA
HETATM   25  H21 UNL     1      31.477   6.810  44.528  1.00  0.00     0.210 HD
ENDBRANCH  23  24
ENDBRANCH   9  11
ENDBRANCH   7   9
TORSDOF 3
ENDMDL
MODEL 9
REMARK VINA RESULT:      -7.7      8.442     11.485
REMARK  3 active torsions:
REMARK  status: ('A' for Active; 'I' for Inactive)
REMARK    1  A    between atoms: C7_7  and  N1_8 
REMARK    2  A    between atoms: N1_8  and  C8_9 
REMARK    3  A    between atoms: C18_21  and  O2_22 
ROOT
HETATM    1  C1  UNL     1      32.042   0.074  46.710  1.00  0.00     0.018 C 
HETATM    2  C2  UNL     1      32.429   1.206  46.882  1.00  0.00    -0.078 C 
HETATM    3  C3  UNL     1      32.884   2.559  47.074  1.00  0.00     0.019 A 
HETATM    4  C4  UNL     1      34.130   2.849  47.584  1.00  0.00     0.021 A 
HETATM    5  C5  UNL     1      34.534   4.156  47.751  1.00  0.00     0.004 A 
HETATM    6  C6  UNL     1      33.647   5.160  47.390  1.00  0.00     0.029 A 
HETATM    7  C7  UNL     1      32.388   4.856  46.876  1.00  0.00     0.034 A 
HETATM    8  C19 UNL     1      31.980   3.551  46.708  1.00  0.00     0.050 A 
ENDROOT
BRANCH   7   9
HETATM    9  N1  UNL     1      31.680   6.082  46.586  1.00  0.00    -0.343 N 
HETATM   10  H5  UNL     1      31.360   6.223  45.588  1.00  0.00     0.167 HD
BRANCH   9  11
HETATM   11  C8  UNL     1      31.434   7.050  47.642  1.00  0.00     0.128 C 
HETATM   12  N2  UNL     1      32.196   8.085  47.479  1.00  0.00    -0.270 NA
HETATM   13  C9  UNL     1      32.306   9.255  48.251  1.00  0.00     0.188 C 
HETATM   14  C10 UNL     1      32.039  10.457  47.457  1.00  0.00    -0.048 C 
HETATM   15  C11 UNL     1      32.788  11.482  47.170  1.00  0.00     0.020 C 
HETATM   16  C12 UNL     1      30.766  10.739  46.827  1.00  0.00     0.006 C 
HETATM   17  C13 UNL     1      29.534  10.339  46.587  1.00  0.00    -0.000 C 
HETATM   18  C14 UNL     1      28.155   9.981  46.270  1.00  0.00     0.195 C 
HETATM   19  O1  UNL     1      28.059   8.794  45.544  1.00  0.00    -0.387 OA
HETATM   20  C15 UNL     1      28.720   7.750  46.204  1.00  0.00     0.168 C 
HETATM   21  C16 UNL     1      28.217   7.400  47.539  1.00  0.00     0.029 C 
HETATM   22  C17 UNL     1      29.054   6.352  48.207  1.00  0.00     0.041 C 
HETATM   23  C18 UNL     1      30.423   6.680  48.634  1.00  0.00     0.187 C 
BRANCH  23  24
HETATM   24  O2  UNL     1      30.863   5.538  49.381  1.00  0.00    -0.388 OA
HETATM   25  H21 UNL     1      30.046   4.969  49.478  1.00  0.00     0.210 HD
ENDBRANCH  23  24
ENDBRANCH   9  11
ENDBRANCH   7   9
TORSDOF 3
ENDMDL
