MODEL 1
REMARK VINA RESULT:      -7.7      0.000      0.000
REMARK  4 active torsions:
REMARK  status: ('A' for Active; 'I' for Inactive)
REMARK    1  A    between atoms: C5_5  and  C6_6 
REMARK       I    between atoms: C6_6  and  N1_8 
REMARK    2  A    between atoms: N1_8  and  S1_9 
REMARK    3  A    between atoms: S1_9  and  C7_12 
REMARK    4  A    between atoms: C13_19  and  C14_20 
ROOT
HETATM    1  C6  UNL     1      26.048   2.075  52.823  1.00  0.00     0.267 C 
HETATM    2  O1  UNL     1      25.430   2.625  53.780  1.00  0.00    -0.267 OA
HETATM    3  N1  UNL     1      25.877   2.439  51.455  1.00  0.00    -0.246 N 
HETATM    4  H6  UNL     1      26.435   1.930  50.709  1.00  0.00     0.182 HD
ENDROOT
BRANCH   3   5
HETATM    5  S1  UNL     1      24.921   3.590  50.608  1.00  0.00     0.265 S 
HETATM    6  O2  UNL     1      23.926   2.883  49.706  1.00  0.00    -0.200 OA
HETATM    7  O3  UNL     1      24.080   4.354  51.620  1.00  0.00    -0.200 OA
BRANCH   5   8
HETATM    8  C7  UNL     1      25.899   4.717  49.675  1.00  0.00     0.080 A 
HETATM    9  C8  UNL     1      25.459   6.018  49.401  1.00  0.00     0.027 A 
HETATM   10  C9  UNL     1      26.236   6.899  48.664  1.00  0.00     0.020 A 
HETATM   11  C10 UNL     1      27.468   6.497  48.186  1.00  0.00     0.011 A 
HETATM   12 BR1  UNL     1      28.625   7.635  47.154  1.00  0.00    -0.051 Br
HETATM   13  C11 UNL     1      27.941   5.224  48.432  1.00  0.00     0.020 A 
HETATM   14  C12 UNL     1      27.144   4.361  49.172  1.00  0.00     0.027 A 
ENDBRANCH   5   8
ENDBRANCH   3   5
BRANCH   1  15
HETATM   15  C5  UNL     1      27.001   1.001  53.106  1.00  0.00     0.058 A 
HETATM   16  C4  UNL     1      28.278   1.513  53.252  1.00  0.00     0.021 A 
HETATM   17  C3  UNL     1      29.356   0.663  53.529  1.00  0.00     0.028 A 
HETATM   18  C2  UNL     1      29.078  -0.693  53.648  1.00  0.00     0.031 A 
HETATM   19  C1  UNL     1      30.196  -1.652  53.945  1.00  0.00     0.070 C 
HETATM   20  N2  UNL     1      27.819  -1.160  53.500  1.00  0.00    -0.256 NA
HETATM   21  C13 UNL     1      26.786  -0.347  53.234  1.00  0.00     0.064 A 
BRANCH  21  22
HETATM   22  C14 UNL     1      25.375  -0.751  53.056  1.00  0.00     0.175 C 
HETATM   23 CL1  UNL     1      24.626  -0.806  54.680  1.00  0.00    -0.124 Cl
ENDBRANCH  21  22
ENDBRANCH   1  15
TORSDOF 4
ENDMDL
MODEL 2
REMARK VINA RESULT:      -7.7      1.482      2.227
REMARK  4 active torsions:
REMARK  status: ('A' for Active; 'I' for Inactive)
REMARK    1  A    between atoms: C5_5  and  C6_6 
REMARK       I    between atoms: C6_6  and  N1_8 
REMARK    2  A    between atoms: N1_8  and  S1_9 
REMARK    3  A    between atoms: S1_9  and  C7_12 
REMARK    4  A    between atoms: C13_19  and  C14_20 
ROOT
HETATM    1  C6  UNL     1      25.762   1.942  52.434  1.00  0.00     0.267 C 
HETATM    2  O1  UNL     1      24.935   2.277  53.331  1.00  0.00    -0.267 OA
HETATM    3  N1  UNL     1      25.813   2.538  51.139  1.00  0.00    -0.246 N 
HETATM    4  H6  UNL     1      26.539   2.202  50.442  1.00  0.00     0.182 HD
ENDROOT
BRANCH   3   5
HETATM    5  S1  UNL     1      24.932   3.771  50.328  1.00  0.00     0.265 S 
HETATM    6  O2  UNL     1      23.908   3.154  49.392  1.00  0.00    -0.200 OA
HETATM    7  O3  UNL     1      24.125   4.544  51.359  1.00  0.00    -0.200 OA
BRANCH   5   8
HETATM    8  C7  UNL     1      25.980   4.873  49.444  1.00  0.00     0.080 A 
HETATM    9  C8  UNL     1      27.260   4.491  49.024  1.00  0.00     0.027 A 
HETATM   10  C9  UNL     1      28.080   5.366  48.327  1.00  0.00     0.020 A 
HETATM   11  C10 UNL     1      27.636   6.642  48.037  1.00  0.00     0.011 A 
HETATM   12 BR1  UNL     1      28.688   7.937  47.080  1.00  0.00    -0.051 Br
HETATM   13  C11 UNL     1      26.382   7.062  48.432  1.00  0.00     0.020 A 
HETATM   14  C12 UNL     1      25.581   6.166  49.128  1.00  0.00     0.027 A 
ENDBRANCH   5   8
ENDBRANCH   3   5
BRANCH   1  15
HETATM   15  C5  UNL     1      26.737   0.886  52.714  1.00  0.00     0.058 A 
HETATM   16  C4  UNL     1      26.199  -0.356  52.428  1.00  0.00     0.021 A 
HETATM   17  C3  UNL     1      26.956  -1.518  52.621  1.00  0.00     0.028 A 
HETATM   18  C2  UNL     1      28.251  -1.358  53.102  1.00  0.00     0.031 A 
HETATM   19  C1  UNL     1      29.110  -2.569  53.326  1.00  0.00     0.070 C 
HETATM   20  N2  UNL     1      28.744  -0.129  53.369  1.00  0.00    -0.256 NA
HETATM   21  C13 UNL     1      28.019   0.985  53.187  1.00  0.00     0.064 A 
BRANCH  21  22
HETATM   22  C14 UNL     1      28.462   2.372  53.445  1.00  0.00     0.175 C 
HETATM   23 CL1  UNL     1      29.745   2.299  54.690  1.00  0.00    -0.124 Cl
ENDBRANCH  21  22
ENDBRANCH   1  15
TORSDOF 4
ENDMDL
MODEL 3
REMARK VINA RESULT:      -7.6      4.378      7.393
REMARK  4 active torsions:
REMARK  status: ('A' for Active; 'I' for Inactive)
REMARK    1  A    between atoms: C5_5  and  C6_6 
REMARK       I    between atoms: C6_6  and  N1_8 
REMARK    2  A    between atoms: N1_8  and  S1_9 
REMARK    3  A    between atoms: S1_9  and  C7_12 
REMARK    4  A    between atoms: C13_19  and  C14_20 
ROOT
HETATM    1  C6  UNL     1      25.791   3.506  50.330  1.00  0.00     0.267 C 
HETATM    2  O1  UNL     1      24.948   2.767  49.743  1.00  0.00    -0.267 OA
HETATM    3  N1  UNL     1      26.394   3.182  51.581  1.00  0.00    -0.246 N 
HETATM    4  H6  UNL     1      27.094   3.855  52.009  1.00  0.00     0.182 HD
ENDROOT
BRANCH   3   5
HETATM    5  S1  UNL     1      26.283   1.870  52.686  1.00  0.00     0.265 S 
HETATM    6  O2  UNL     1      27.180   0.730  52.239  1.00  0.00    -0.200 OA
HETATM    7  O3  UNL     1      26.840   2.321  54.027  1.00  0.00    -0.200 OA
BRANCH   5   8
HETATM    8  C7  UNL     1      24.630   1.302  52.889  1.00  0.00     0.080 A 
HETATM    9  C8  UNL     1      23.535   2.163  52.746  1.00  0.00     0.027 A 
HETATM   10  C9  UNL     1      22.235   1.707  52.907  1.00  0.00     0.020 A 
HETATM   11  C10 UNL     1      22.004   0.380  53.215  1.00  0.00     0.011 A 
HETATM   12 BR1  UNL     1      20.245  -0.358  53.462  1.00  0.00    -0.051 Br
HETATM   13  C11 UNL     1      23.053  -0.504  53.364  1.00  0.00     0.020 A 
HETATM   14  C12 UNL     1      24.344  -0.022  53.198  1.00  0.00     0.027 A 
ENDBRANCH   5   8
ENDBRANCH   3   5
BRANCH   1  15
HETATM   15  C5  UNL     1      26.190   4.773  49.714  1.00  0.00     0.058 A 
HETATM   16  C4  UNL     1      27.325   4.599  48.942  1.00  0.00     0.021 A 
HETATM   17  C3  UNL     1      27.888   5.681  48.256  1.00  0.00     0.028 A 
HETATM   18  C2  UNL     1      27.256   6.912  48.387  1.00  0.00     0.031 A 
HETATM   19  C1  UNL     1      27.816   8.108  47.671  1.00  0.00     0.070 C 
HETATM   20  N2  UNL     1      26.148   7.046  49.148  1.00  0.00    -0.256 NA
HETATM   21  C13 UNL     1      25.609   6.010  49.807  1.00  0.00     0.064 A 
BRANCH  21  22
HETATM   22  C14 UNL     1      24.402   6.047  50.662  1.00  0.00     0.175 C 
HETATM   23 CL1  UNL     1      23.984   7.767  50.921  1.00  0.00    -0.124 Cl
ENDBRANCH  21  22
ENDBRANCH   1  15
TORSDOF 4
ENDMDL
MODEL 4
REMARK VINA RESULT:      -7.6      3.485      7.239
REMARK  4 active torsions:
REMARK  status: ('A' for Active; 'I' for Inactive)
REMARK    1  A    between atoms: C5_5  and  C6_6 
REMARK       I    between atoms: C6_6  and  N1_8 
REMARK    2  A    between atoms: N1_8  and  S1_9 
REMARK    3  A    between atoms: S1_9  and  C7_12 
REMARK    4  A    between atoms: C13_19  and  C14_20 
ROOT
HETATM    1  C6  UNL     1      25.318   4.056  49.706  1.00  0.00     0.267 C 
HETATM    2  O1  UNL     1      24.561   3.359  48.971  1.00  0.00    -0.267 OA
HETATM    3  N1  UNL     1      25.569   3.773  51.082  1.00  0.00    -0.246 N 
HETATM    4  H6  UNL     1      26.219   4.406  51.631  1.00  0.00     0.182 HD
ENDROOT
BRANCH   3   5
HETATM    5  S1  UNL     1      25.054   2.567  52.193  1.00  0.00     0.265 S 
HETATM    6  O2  UNL     1      24.490   3.215  53.445  1.00  0.00    -0.200 OA
HETATM    7  O3  UNL     1      23.892   1.806  51.573  1.00  0.00    -0.200 OA
BRANCH   5   8
HETATM    8  C7  UNL     1      26.344   1.447  52.614  1.00  0.00     0.080 A 
HETATM    9  C8  UNL     1      26.205   0.066  52.429  1.00  0.00     0.027 A 
HETATM   10  C9  UNL     1      27.228  -0.811  52.763  1.00  0.00     0.020 A 
HETATM   11  C10 UNL     1      28.408  -0.323  53.288  1.00  0.00     0.011 A 
HETATM   12 BR1  UNL     1      29.888  -1.445  53.786  1.00  0.00    -0.051 Br
HETATM   13  C11 UNL     1      28.588   1.031  53.486  1.00  0.00     0.020 A 
HETATM   14  C12 UNL     1      27.549   1.887  53.144  1.00  0.00     0.027 A 
ENDBRANCH   5   8
ENDBRANCH   3   5
BRANCH   1  15
HETATM   15  C5  UNL     1      25.991   5.227  49.140  1.00  0.00     0.058 A 
HETATM   16  C4  UNL     1      27.291   4.914  48.788  1.00  0.00     0.021 A 
HETATM   17  C3  UNL     1      28.126   5.885  48.223  1.00  0.00     0.028 A 
HETATM   18  C2  UNL     1      27.588   7.153  48.039  1.00  0.00     0.031 A 
HETATM   19  C1  UNL     1      28.438   8.236  47.436  1.00  0.00     0.070 C 
HETATM   20  N2  UNL     1      26.313   7.424  48.394  1.00  0.00    -0.256 NA
HETATM   21  C13 UNL     1      25.512   6.495  48.936  1.00  0.00     0.064 A 
BRANCH  21  22
HETATM   22  C14 UNL     1      24.107   6.684  49.357  1.00  0.00     0.175 C 
HETATM   23 CL1  UNL     1      24.127   7.172  51.079  1.00  0.00    -0.124 Cl
ENDBRANCH  21  22
ENDBRANCH   1  15
TORSDOF 4
ENDMDL
MODEL 5
REMARK VINA RESULT:      -7.4      2.595      3.977
REMARK  4 active torsions:
REMARK  status: ('A' for Active; 'I' for Inactive)
REMARK    1  A    between atoms: C5_5  and  C6_6 
REMARK       I    between atoms: C6_6  and  N1_8 
REMARK    2  A    between atoms: N1_8  and  S1_9 
REMARK    3  A    between atoms: S1_9  and  C7_12 
REMARK    4  A    between atoms: C13_19  and  C14_20 
ROOT
HETATM    1  C6  UNL     1      23.399   2.964  52.072  1.00  0.00     0.267 C 
HETATM    2  O1  UNL     1      23.894   3.881  52.789  1.00  0.00    -0.267 OA
HETATM    3  N1  UNL     1      23.082   3.122  50.691  1.00  0.00    -0.246 N 
HETATM    4  H6  UNL     1      22.669   2.303  50.157  1.00  0.00     0.182 HD
ENDROOT
BRANCH   3   5
HETATM    5  S1  UNL     1      23.200   4.403  49.549  1.00  0.00     0.265 S 
HETATM    6  O2  UNL     1      22.453   4.042  48.278  1.00  0.00    -0.200 OA
HETATM    7  O3  UNL     1      22.479   5.617  50.113  1.00  0.00    -0.200 OA
BRANCH   5   8
HETATM    8  C7  UNL     1      24.869   4.819  49.180  1.00  0.00     0.080 A 
HETATM    9  C8  UNL     1      25.909   3.895  49.340  1.00  0.00     0.027 A 
HETATM   10  C9  UNL     1      27.222   4.232  49.046  1.00  0.00     0.020 A 
HETATM   11  C10 UNL     1      27.521   5.500  48.586  1.00  0.00     0.011 A 
HETATM   12 BR1  UNL     1      29.304   6.074  48.149  1.00  0.00    -0.051 Br
HETATM   13  C11 UNL     1      26.528   6.442  48.413  1.00  0.00     0.020 A 
HETATM   14  C12 UNL     1      25.222   6.080  48.715  1.00  0.00     0.027 A 
ENDBRANCH   5   8
ENDBRANCH   3   5
BRANCH   1  15
HETATM   15  C5  UNL     1      23.126   1.655  52.667  1.00  0.00     0.058 A 
HETATM   16  C4  UNL     1      21.802   1.569  53.060  1.00  0.00     0.021 A 
HETATM   17  C3  UNL     1      21.314   0.401  53.657  1.00  0.00     0.028 A 
HETATM   18  C2  UNL     1      22.212  -0.646  53.827  1.00  0.00     0.031 A 
HETATM   19  C1  UNL     1      21.743  -1.925  54.461  1.00  0.00     0.070 C 
HETATM   20  N2  UNL     1      23.498  -0.529  53.430  1.00  0.00    -0.256 NA
HETATM   21  C13 UNL     1      23.967   0.591  52.860  1.00  0.00     0.064 A 
BRANCH  21  22
HETATM   22  C14 UNL     1      25.350   0.823  52.390  1.00  0.00     0.175 C 
HETATM   23 CL1  UNL     1      26.242  -0.717  52.576  1.00  0.00    -0.124 Cl
ENDBRANCH  21  22
ENDBRANCH   1  15
TORSDOF 4
ENDMDL
MODEL 6
REMARK VINA RESULT:      -7.3      3.672      7.425
REMARK  4 active torsions:
REMARK  status: ('A' for Active; 'I' for Inactive)
REMARK    1  A    between atoms: C5_5  and  C6_6 
REMARK       I    between atoms: C6_6  and  N1_8 
REMARK    2  A    between atoms: N1_8  and  S1_9 
REMARK    3  A    between atoms: S1_9  and  C7_12 
REMARK    4  A    between atoms: C13_19  and  C14_20 
ROOT
HETATM    1  C6  UNL     1      24.970   4.661  49.954  1.00  0.00     0.267 C 
HETATM    2  O1  UNL     1      24.187   4.178  49.087  1.00  0.00    -0.267 OA
HETATM    3  N1  UNL     1      25.260   4.031  51.201  1.00  0.00    -0.246 N 
HETATM    4  H6  UNL     1      25.930   4.500  51.876  1.00  0.00     0.182 HD
ENDROOT
BRANCH   3   5
HETATM    5  S1  UNL     1      24.769   2.577  51.976  1.00  0.00     0.265 S 
HETATM    6  O2  UNL     1      23.919   2.893  53.193  1.00  0.00    -0.200 OA
HETATM    7  O3  UNL     1      23.855   1.813  51.031  1.00  0.00    -0.200 OA
BRANCH   5   8
HETATM    8  C7  UNL     1      26.135   1.566  52.431  1.00  0.00     0.080 A 
HETATM    9  C8  UNL     1      26.086   0.171  52.318  1.00  0.00     0.027 A 
HETATM   10  C9  UNL     1      27.168  -0.619  52.679  1.00  0.00     0.020 A 
HETATM   11  C10 UNL     1      28.321  -0.030  53.160  1.00  0.00     0.011 A 
HETATM   12 BR1  UNL     1      29.877  -1.026  53.691  1.00  0.00    -0.051 Br
HETATM   13  C11 UNL     1      28.413   1.342  53.288  1.00  0.00     0.020 A 
HETATM   14  C12 UNL     1      27.316   2.109  52.920  1.00  0.00     0.027 A 
ENDBRANCH   5   8
ENDBRANCH   3   5
BRANCH   1  15
HETATM   15  C5  UNL     1      25.633   5.940  49.692  1.00  0.00     0.058 A 
HETATM   16  C4  UNL     1      24.873   6.988  50.178  1.00  0.00     0.021 A 
HETATM   17  C3  UNL     1      25.315   8.309  50.038  1.00  0.00     0.028 A 
HETATM   18  C2  UNL     1      26.533   8.505  49.399  1.00  0.00     0.031 A 
HETATM   19  C1  UNL     1      27.057   9.901  49.221  1.00  0.00     0.070 C 
HETATM   20  N2  UNL     1      27.250   7.458  48.936  1.00  0.00    -0.256 NA
HETATM   21  C13 UNL     1      26.828   6.192  49.068  1.00  0.00     0.064 A 
BRANCH  21  22
HETATM   22  C14 UNL     1      27.532   4.978  48.602  1.00  0.00     0.175 C 
HETATM   23 CL1  UNL     1      29.192   5.467  48.145  1.00  0.00    -0.124 Cl
ENDBRANCH  21  22
ENDBRANCH   1  15
TORSDOF 4
ENDMDL
MODEL 7
REMARK VINA RESULT:      -7.2      4.622      6.967
REMARK  4 active torsions:
REMARK  status: ('A' for Active; 'I' for Inactive)
REMARK    1  A    between atoms: C5_5  and  C6_6 
REMARK       I    between atoms: C6_6  and  N1_8 
REMARK    2  A    between atoms: N1_8  and  S1_9 
REMARK    3  A    between atoms: S1_9  and  C7_12 
REMARK    4  A    between atoms: C13_19  and  C14_20 
ROOT
HETATM    1  C6  UNL     1      22.151   1.099  51.571  1.00  0.00     0.267 C 
HETATM    2  O1  UNL     1      22.327   1.166  50.320  1.00  0.00    -0.267 OA
HETATM    3  N1  UNL     1      23.030   1.687  52.528  1.00  0.00    -0.246 N 
HETATM    4  H6  UNL     1      22.812   1.587  53.562  1.00  0.00     0.182 HD
ENDROOT
BRANCH   3   5
HETATM    5  S1  UNL     1      24.484   2.601  52.451  1.00  0.00     0.265 S 
HETATM    6  O2  UNL     1      24.595   3.296  51.106  1.00  0.00    -0.200 OA
HETATM    7  O3  UNL     1      24.404   3.719  53.479  1.00  0.00    -0.200 OA
BRANCH   5   8
HETATM    8  C7  UNL     1      25.912   1.618  52.751  1.00  0.00     0.080 A 
HETATM    9  C8  UNL     1      25.960   0.265  52.390  1.00  0.00     0.027 A 
HETATM   10  C9  UNL     1      27.090  -0.503  52.629  1.00  0.00     0.020 A 
HETATM   11  C10 UNL     1      28.194   0.066  53.235  1.00  0.00     0.011 A 
HETATM   12 BR1  UNL     1      29.810  -0.905  53.616  1.00  0.00    -0.051 Br
HETATM   13  C11 UNL     1      28.190   1.395  53.607  1.00  0.00     0.020 A 
HETATM   14  C12 UNL     1      27.046   2.142  53.356  1.00  0.00     0.027 A 
ENDBRANCH   5   8
ENDBRANCH   3   5
BRANCH   1  15
HETATM   15  C5  UNL     1      20.987   0.384  52.095  1.00  0.00     0.058 A 
HETATM   16  C4  UNL     1      19.820   0.908  51.569  1.00  0.00     0.021 A 
HETATM   17  C3  UNL     1      18.577   0.376  51.932  1.00  0.00     0.028 A 
HETATM   18  C2  UNL     1      18.580  -0.685  52.829  1.00  0.00     0.031 A 
HETATM   19  C1  UNL     1      17.275  -1.296  53.254  1.00  0.00     0.070 C 
HETATM   20  N2  UNL     1      19.738  -1.173  53.324  1.00  0.00    -0.256 NA
HETATM   21  C13 UNL     1      20.930  -0.663  52.977  1.00  0.00     0.064 A 
BRANCH  21  22
HETATM   22  C14 UNL     1      22.252  -1.121  53.456  1.00  0.00     0.175 C 
HETATM   23 CL1  UNL     1      22.245  -1.001  55.241  1.00  0.00    -0.124 Cl
ENDBRANCH  21  22
ENDBRANCH   1  15
TORSDOF 4
ENDMDL
MODEL 8
REMARK VINA RESULT:      -7.1      3.793      4.525
REMARK  4 active torsions:
REMARK  status: ('A' for Active; 'I' for Inactive)
REMARK    1  A    between atoms: C5_5  and  C6_6 
REMARK       I    between atoms: C6_6  and  N1_8 
REMARK    2  A    between atoms: N1_8  and  S1_9 
REMARK    3  A    between atoms: S1_9  and  C7_12 
REMARK    4  A    between atoms: C13_19  and  C14_20 
ROOT
HETATM    1  C6  UNL     1      22.625   2.322  50.519  1.00  0.00     0.267 C 
HETATM    2  O1  UNL     1      22.524   1.832  49.358  1.00  0.00    -0.267 OA
HETATM    3  N1  UNL     1      22.924   3.693  50.779  1.00  0.00    -0.246 N 
HETATM    4  H6  UNL     1      22.990   4.028  51.783  1.00  0.00     0.182 HD
ENDROOT
BRANCH   3   5
HETATM    5  S1  UNL     1      23.233   5.079  49.810  1.00  0.00     0.265 S 
HETATM    6  O2  UNL     1      22.345   5.066  48.578  1.00  0.00    -0.200 OA
HETATM    7  O3  UNL     1      22.820   6.315  50.594  1.00  0.00    -0.200 OA
BRANCH   5   8
HETATM    8  C7  UNL     1      24.924   5.207  49.342  1.00  0.00     0.080 A 
HETATM    9  C8  UNL     1      25.812   4.135  49.498  1.00  0.00     0.027 A 
HETATM   10  C9  UNL     1      27.144   4.245  49.126  1.00  0.00     0.020 A 
HETATM   11  C10 UNL     1      27.615   5.429  48.591  1.00  0.00     0.011 A 
HETATM   12 BR1  UNL     1      29.439   5.691  48.044  1.00  0.00    -0.051 Br
HETATM   13  C11 UNL     1      26.775   6.511  48.420  1.00  0.00     0.020 A 
HETATM   14  C12 UNL     1      25.446   6.375  48.800  1.00  0.00     0.027 A 
ENDBRANCH   5   8
ENDBRANCH   3   5
BRANCH   1  15
HETATM   15  C5  UNL     1      22.429   1.458  51.684  1.00  0.00     0.058 A 
HETATM   16  C4  UNL     1      23.639   0.942  52.113  1.00  0.00     0.021 A 
HETATM   17  C3  UNL     1      23.692   0.085  53.219  1.00  0.00     0.028 A 
HETATM   18  C2  UNL     1      22.489  -0.211  53.849  1.00  0.00     0.031 A 
HETATM   19  C1  UNL     1      22.486  -1.125  55.041  1.00  0.00     0.070 C 
HETATM   20  N2  UNL     1      21.325   0.311  53.404  1.00  0.00    -0.256 NA
HETATM   21  C13 UNL     1      21.273   1.131  52.344  1.00  0.00     0.064 A 
BRANCH  21  22
HETATM   22  C14 UNL     1      20.058   1.756  51.777  1.00  0.00     0.175 C 
HETATM   23 CL1  UNL     1      19.293   0.552  50.696  1.00  0.00    -0.124 Cl
ENDBRANCH  21  22
ENDBRANCH   1  15
TORSDOF 4
ENDMDL
MODEL 9
REMARK VINA RESULT:      -7.0      2.688      3.529
REMARK  4 active torsions:
REMARK  status: ('A' for Active; 'I' for Inactive)
REMARK    1  A    between atoms: C5_5  and  C6_6 
REMARK       I    between atoms: C6_6  and  N1_8 
REMARK    2  A    between atoms: N1_8  and  S1_9 
REMARK    3  A    between atoms: S1_9  and  C7_12 
REMARK    4  A    between atoms: C13_19  and  C14_20 
ROOT
HETATM    1  C6  UNL     1      25.364   3.557  50.289  1.00  0.00     0.267 C 
HETATM    2  O1  UNL     1      24.865   3.080  49.229  1.00  0.00    -0.267 OA
HETATM    3  N1  UNL     1      25.804   4.908  50.421  1.00  0.00    -0.246 N 
HETATM    4  H6  UNL     1      26.211   5.232  51.345  1.00  0.00     0.182 HD
ENDROOT
BRANCH   3   5
HETATM    5  S1  UNL     1      25.856   6.281  49.387  1.00  0.00     0.265 S 
HETATM    6  O2  UNL     1      24.748   6.200  48.353  1.00  0.00    -0.200 OA
HETATM    7  O3  UNL     1      25.547   7.518  50.216  1.00  0.00    -0.200 OA
BRANCH   5   8
HETATM    8  C7  UNL     1      27.417   6.467  48.597  1.00  0.00     0.080 A 
HETATM    9  C8  UNL     1      28.346   5.420  48.551  1.00  0.00     0.027 A 
HETATM   10  C9  UNL     1      29.575   5.576  47.926  1.00  0.00     0.020 A 
HETATM   11  C10 UNL     1      29.898   6.781  47.334  1.00  0.00     0.011 A 
HETATM   12 BR1  UNL     1      31.571   7.108  46.443  1.00  0.00    -0.051 Br
HETATM   13  C11 UNL     1      29.012   7.840  47.355  1.00  0.00     0.020 A 
HETATM   14  C12 UNL     1      27.790   7.658  47.988  1.00  0.00     0.027 A 
ENDBRANCH   5   8
ENDBRANCH   3   5
BRANCH   1  15
HETATM   15  C5  UNL     1      25.511   2.698  51.465  1.00  0.00     0.058 A 
HETATM   16  C4  UNL     1      26.757   2.097  51.473  1.00  0.00     0.021 A 
HETATM   17  C3  UNL     1      27.119   1.228  52.509  1.00  0.00     0.028 A 
HETATM   18  C2  UNL     1      26.178   1.009  53.509  1.00  0.00     0.031 A 
HETATM   19  C1  UNL     1      26.512   0.087  54.647  1.00  0.00     0.070 C 
HETATM   20  N2  UNL     1      24.970   1.613  53.470  1.00  0.00    -0.256 NA
HETATM   21  C13 UNL     1      24.622   2.444  52.477  1.00  0.00     0.064 A 
BRANCH  21  22
HETATM   22  C14 UNL     1      23.333   3.155  52.339  1.00  0.00     0.175 C 
HETATM   23 CL1  UNL     1      23.526   4.762  53.104  1.00  0.00    -0.124 Cl
ENDBRANCH  21  22
ENDBRANCH   1  15
TORSDOF 4
ENDMDL
