MODEL 1
REMARK VINA RESULT:      -8.1      0.000      0.000
REMARK  2 active torsions:
REMARK  status: ('A' for Active; 'I' for Inactive)
REMARK    1  A    between atoms: C9_9  and  N1_10 
REMARK       I    between atoms: N1_10  and  C10_11 
REMARK    2  A    between atoms: C10_11  and  C11_13 
ROOT
HETATM    1  C1  UNL     1      25.250  -0.826  56.471  1.00  0.00     0.013 C 
HETATM    2  C2  UNL     1      25.082  -0.848  55.266  1.00  0.00    -0.103 C 
HETATM    3  C3  UNL     1      24.881  -0.868  53.824  1.00  0.00     0.134 C 
HETATM    4  C4  UNL     1      23.729  -0.046  53.421  1.00  0.00    -0.007 C 
HETATM    5  C5  UNL     1      23.150   0.920  52.689  1.00  0.00    -0.023 C 
HETATM    6  C6  UNL     1      23.145   1.994  51.641  1.00  0.00     0.021 C 
HETATM    7  C7  UNL     1      23.686   2.772  50.638  1.00  0.00     0.004 C 
HETATM    8  C8  UNL     1      25.101   2.552  50.169  1.00  0.00     0.062 C 
HETATM    9  C9  UNL     1      26.101   3.520  50.501  1.00  0.00     0.010 C 
HETATM   10  C13 UNL     1      26.649   2.744  51.459  1.00  0.00     0.025 C 
HETATM   11  C14 UNL     1      26.866   1.626  52.324  1.00  0.00     0.139 C 
HETATM   12  C15 UNL     1      26.550   0.236  51.885  1.00  0.00     0.088 C 
HETATM   13  C16 UNL     1      26.187  -0.453  53.221  1.00  0.00     0.035 C 
HETATM   14  N2  UNL     1      27.341  -0.591  53.843  1.00  0.00    -0.249 NA
HETATM   15  C17 UNL     1      28.360   0.434  53.621  1.00  0.00     0.227 C 
HETATM   16  N3  UNL     1      28.256   1.507  52.850  1.00  0.00    -0.273 NA
ENDROOT
BRANCH   9  17
HETATM   17  N1  UNL     1      26.341   4.784  49.959  1.00  0.00    -0.331 N 
HETATM   18  C10 UNL     1      27.252   5.252  49.002  1.00  0.00     0.221 C 
HETATM   19  O1  UNL     1      28.045   4.433  48.477  1.00  0.00    -0.273 OA
HETATM   20  H9  UNL     1      25.688   5.471  50.388  1.00  0.00     0.168 HD
BRANCH  18  21
HETATM   21  C11 UNL     1      27.345   6.650  48.562  1.00  0.00     0.098 C 
HETATM   22  C12 UNL     1      28.626   6.779  47.743  1.00  0.00     0.014 C 
ENDBRANCH  18  21
ENDBRANCH   9  17
TORSDOF 2
ENDMDL
MODEL 2
REMARK VINA RESULT:      -7.9      3.299      6.048
REMARK  2 active torsions:
REMARK  status: ('A' for Active; 'I' for Inactive)
REMARK    1  A    between atoms: C9_9  and  N1_10 
REMARK       I    between atoms: N1_10  and  C10_11 
REMARK    2  A    between atoms: C10_11  and  C11_13 
ROOT
HETATM    1  C1  UNL     1      19.085   0.612  50.473  1.00  0.00     0.013 C 
HETATM    2  C2  UNL     1      19.721   0.921  51.464  1.00  0.00    -0.103 C 
HETATM    3  C3  UNL     1      20.485   1.287  52.647  1.00  0.00     0.134 C 
HETATM    4  C4  UNL     1      20.844   0.109  53.453  1.00  0.00    -0.007 C 
HETATM    5  C5  UNL     1      21.726  -0.672  54.099  1.00  0.00    -0.023 C 
HETATM    6  C6  UNL     1      23.100  -1.035  54.583  1.00  0.00     0.021 C 
HETATM    7  C7  UNL     1      24.454  -0.854  54.768  1.00  0.00     0.004 C 
HETATM    8  C8  UNL     1      25.140   0.394  54.274  1.00  0.00     0.062 C 
HETATM    9  C9  UNL     1      26.015   0.305  53.146  1.00  0.00     0.010 C 
HETATM   10  C13 UNL     1      25.119   0.862  52.305  1.00  0.00     0.025 C 
HETATM   11  C14 UNL     1      23.908   1.458  51.831  1.00  0.00     0.139 C 
HETATM   12  C15 UNL     1      23.073   2.320  52.717  1.00  0.00     0.088 C 
HETATM   13  C16 UNL     1      21.652   2.085  52.154  1.00  0.00     0.035 C 
HETATM   14  N2  UNL     1      21.642   2.736  51.007  1.00  0.00    -0.249 NA
HETATM   15  C17 UNL     1      22.894   2.809  50.255  1.00  0.00     0.227 C 
HETATM   16  N3  UNL     1      24.062   2.286  50.601  1.00  0.00    -0.273 NA
ENDROOT
BRANCH   9  17
HETATM   17  N1  UNL     1      27.316  -0.192  53.057  1.00  0.00    -0.331 N 
HETATM   18  C10 UNL     1      28.469   0.013  53.829  1.00  0.00     0.221 C 
HETATM   19  O1  UNL     1      28.400   0.783  54.817  1.00  0.00    -0.273 OA
HETATM   20  H9  UNL     1      27.384  -0.832  52.240  1.00  0.00     0.168 HD
BRANCH  18  21
HETATM   21  C11 UNL     1      29.767  -0.619  53.560  1.00  0.00     0.098 C 
HETATM   22  C12 UNL     1      29.501  -2.100  53.305  1.00  0.00     0.014 C 
ENDBRANCH  18  21
ENDBRANCH   9  17
TORSDOF 2
ENDMDL
MODEL 3
REMARK VINA RESULT:      -7.7      2.288      6.196
REMARK  2 active torsions:
REMARK  status: ('A' for Active; 'I' for Inactive)
REMARK    1  A    between atoms: C9_9  and  N1_10 
REMARK       I    between atoms: N1_10  and  C10_11 
REMARK    2  A    between atoms: C10_11  and  C11_13 
ROOT
HETATM    1  C1  UNL     1      22.293   3.903  47.143  1.00  0.00     0.013 C 
HETATM    2  C2  UNL     1      22.441   3.921  48.351  1.00  0.00    -0.103 C 
HETATM    3  C3  UNL     1      22.621   3.938  49.796  1.00  0.00     0.134 C 
HETATM    4  C4  UNL     1      22.231   2.659  50.411  1.00  0.00    -0.007 C 
HETATM    5  C5  UNL     1      22.462   1.591  51.192  1.00  0.00    -0.023 C 
HETATM    6  C6  UNL     1      23.292   0.764  52.130  1.00  0.00     0.021 C 
HETATM    7  C7  UNL     1      24.391   0.474  52.911  1.00  0.00     0.004 C 
HETATM    8  C8  UNL     1      25.531   1.453  53.031  1.00  0.00     0.062 C 
HETATM    9  C9  UNL     1      26.777   1.150  52.395  1.00  0.00     0.010 C 
HETATM   10  C13 UNL     1      26.567   2.025  51.389  1.00  0.00     0.025 C 
HETATM   11  C14 UNL     1      25.930   3.017  50.579  1.00  0.00     0.139 C 
HETATM   12  C15 UNL     1      25.037   4.049  51.180  1.00  0.00     0.088 C 
HETATM   13  C16 UNL     1      24.046   4.334  50.028  1.00  0.00     0.035 C 
HETATM   14  N2  UNL     1      24.751   5.022  49.152  1.00  0.00    -0.249 NA
HETATM   15  C17 UNL     1      26.179   4.723  49.042  1.00  0.00     0.227 C 
HETATM   16  N3  UNL     1      26.860   3.823  49.737  1.00  0.00    -0.273 NA
ENDROOT
BRANCH   9  17
HETATM   17  N1  UNL     1      27.781   0.257  52.769  1.00  0.00    -0.331 N 
HETATM   18  C10 UNL     1      28.698   0.245  53.831  1.00  0.00     0.221 C 
HETATM   19  O1  UNL     1      28.674   1.191  54.655  1.00  0.00    -0.273 OA
HETATM   20  H9  UNL     1      27.809  -0.532  52.092  1.00  0.00     0.168 HD
BRANCH  18  21
HETATM   21  C11 UNL     1      29.695  -0.811  54.051  1.00  0.00     0.098 C 
HETATM   22  C12 UNL     1      29.240  -2.030  53.253  1.00  0.00     0.014 C 
ENDBRANCH  18  21
ENDBRANCH   9  17
TORSDOF 2
ENDMDL
MODEL 4
REMARK VINA RESULT:      -7.4      3.356      5.840
REMARK  2 active torsions:
REMARK  status: ('A' for Active; 'I' for Inactive)
REMARK    1  A    between atoms: C9_9  and  N1_10 
REMARK       I    between atoms: N1_10  and  C10_11 
REMARK    2  A    between atoms: C10_11  and  C11_13 
ROOT
HETATM    1  C1  UNL     1      29.339  -0.717  53.485  1.00  0.00     0.013 C 
HETATM    2  C2  UNL     1      28.606   0.254  53.534  1.00  0.00    -0.103 C 
HETATM    3  C3  UNL     1      27.726   1.412  53.588  1.00  0.00     0.134 C 
HETATM    4  C4  UNL     1      27.544   2.023  52.261  1.00  0.00    -0.007 C 
HETATM    5  C5  UNL     1      26.783   2.487  51.255  1.00  0.00    -0.023 C 
HETATM    6  C6  UNL     1      25.474   2.809  50.597  1.00  0.00     0.021 C 
HETATM    7  C7  UNL     1      24.101   2.910  50.515  1.00  0.00     0.004 C 
HETATM    8  C8  UNL     1      23.229   2.535  51.686  1.00  0.00     0.062 C 
HETATM    9  C9  UNL     1      22.445   1.340  51.614  1.00  0.00     0.010 C 
HETATM   10  C13 UNL     1      23.271   0.654  52.432  1.00  0.00     0.025 C 
HETATM   11  C14 UNL     1      24.378   0.360  53.289  1.00  0.00     0.139 C 
HETATM   12  C15 UNL     1      24.995   1.416  54.142  1.00  0.00     0.088 C 
HETATM   13  C16 UNL     1      26.463   0.939  54.238  1.00  0.00     0.035 C 
HETATM   14  N2  UNL     1      26.417  -0.106  55.041  1.00  0.00    -0.249 NA
HETATM   15  C17 UNL     1      25.215  -0.936  55.007  1.00  0.00     0.227 C 
HETATM   16  N3  UNL     1      24.143  -0.756  54.248  1.00  0.00    -0.273 NA
ENDROOT
BRANCH   9  17
HETATM   17  N1  UNL     1      21.262   1.083  50.919  1.00  0.00    -0.331 N 
HETATM   18  C10 UNL     1      19.975   0.715  51.336  1.00  0.00     0.221 C 
HETATM   19  O1  UNL     1      19.761   0.567  52.564  1.00  0.00    -0.273 OA
HETATM   20  H9  UNL     1      21.429   1.204  49.900  1.00  0.00     0.168 HD
BRANCH  18  21
HETATM   21  C11 UNL     1      18.844   0.488  50.427  1.00  0.00     0.098 C 
HETATM   22  C12 UNL     1      17.745  -0.191  51.239  1.00  0.00     0.014 C 
ENDBRANCH  18  21
ENDBRANCH   9  17
TORSDOF 2
ENDMDL
MODEL 5
REMARK VINA RESULT:      -7.4      3.271      4.828
REMARK  2 active torsions:
REMARK  status: ('A' for Active; 'I' for Inactive)
REMARK    1  A    between atoms: C9_9  and  N1_10 
REMARK       I    between atoms: N1_10  and  C10_11 
REMARK    2  A    between atoms: C10_11  and  C11_13 
ROOT
HETATM    1  C1  UNL     1      26.866  -1.723  52.611  1.00  0.00     0.013 C 
HETATM    2  C2  UNL     1      26.559  -0.549  52.702  1.00  0.00    -0.103 C 
HETATM    3  C3  UNL     1      26.190   0.855  52.806  1.00  0.00     0.134 C 
HETATM    4  C4  UNL     1      26.680   1.636  51.659  1.00  0.00    -0.007 C 
HETATM    5  C5  UNL     1      26.509   2.488  50.634  1.00  0.00    -0.023 C 
HETATM    6  C6  UNL     1      25.694   3.399  49.764  1.00  0.00     0.021 C 
HETATM    7  C7  UNL     1      24.556   4.069  49.366  1.00  0.00     0.004 C 
HETATM    8  C8  UNL     1      23.278   3.956  50.158  1.00  0.00     0.062 C 
HETATM    9  C9  UNL     1      22.186   3.212  49.611  1.00  0.00     0.010 C 
HETATM   10  C13 UNL     1      22.395   2.155  50.424  1.00  0.00     0.025 C 
HETATM   11  C14 UNL     1      22.979   1.331  51.437  1.00  0.00     0.139 C 
HETATM   12  C15 UNL     1      23.623   1.927  52.642  1.00  0.00     0.088 C 
HETATM   13  C16 UNL     1      24.704   0.877  52.988  1.00  0.00     0.035 C 
HETATM   14  N2  UNL     1      24.026  -0.140  53.483  1.00  0.00    -0.249 NA
HETATM   15  C17 UNL     1      22.686  -0.387  52.953  1.00  0.00     0.227 C 
HETATM   16  N3  UNL     1      22.060   0.309  52.014  1.00  0.00    -0.273 NA
ENDROOT
BRANCH   9  17
HETATM   17  N1  UNL     1      21.284   3.552  48.602  1.00  0.00    -0.331 N 
HETATM   18  C10 UNL     1      21.307   3.388  47.209  1.00  0.00     0.221 C 
HETATM   19  O1  UNL     1      22.304   2.831  46.687  1.00  0.00    -0.273 OA
HETATM   20  H9  UNL     1      20.454   4.014  49.025  1.00  0.00     0.168 HD
BRANCH  18  21
HETATM   21  C11 UNL     1      20.234   3.826  46.307  1.00  0.00     0.098 C 
HETATM   22  C12 UNL     1      20.848   3.968  44.917  1.00  0.00     0.014 C 
ENDBRANCH  18  21
ENDBRANCH   9  17
TORSDOF 2
ENDMDL
MODEL 6
REMARK VINA RESULT:      -7.1      3.055      6.761
REMARK  2 active torsions:
REMARK  status: ('A' for Active; 'I' for Inactive)
REMARK    1  A    between atoms: C9_9  and  N1_10 
REMARK       I    between atoms: N1_10  and  C10_11 
REMARK    2  A    between atoms: C10_11  and  C11_13 
ROOT
HETATM    1  C1  UNL     1      21.154   7.809  50.333  1.00  0.00     0.013 C 
HETATM    2  C2  UNL     1      21.727   6.936  49.709  1.00  0.00    -0.103 C 
HETATM    3  C3  UNL     1      22.417   5.891  48.966  1.00  0.00     0.134 C 
HETATM    4  C4  UNL     1      23.801   6.273  48.642  1.00  0.00    -0.007 C 
HETATM    5  C5  UNL     1      25.127   6.056  48.628  1.00  0.00    -0.023 C 
HETATM    6  C6  UNL     1      26.361   5.248  48.904  1.00  0.00     0.021 C 
HETATM    7  C7  UNL     1      27.070   4.145  49.333  1.00  0.00     0.004 C 
HETATM    8  C8  UNL     1      26.355   2.924  49.854  1.00  0.00     0.062 C 
HETATM    9  C9  UNL     1      26.409   2.632  51.253  1.00  0.00     0.010 C 
HETATM   10  C13 UNL     1      25.147   3.057  51.472  1.00  0.00     0.025 C 
HETATM   11  C14 UNL     1      23.843   3.590  51.219  1.00  0.00     0.139 C 
HETATM   12  C15 UNL     1      23.162   3.378  49.910  1.00  0.00     0.088 C 
HETATM   13  C16 UNL     1      22.287   4.647  49.788  1.00  0.00     0.035 C 
HETATM   14  N2  UNL     1      21.319   4.463  50.663  1.00  0.00    -0.249 NA
HETATM   15  C17 UNL     1      21.634   3.715  51.879  1.00  0.00     0.227 C 
HETATM   16  N3  UNL     1      22.805   3.189  52.210  1.00  0.00    -0.273 NA
ENDROOT
BRANCH   9  17
HETATM   17  N1  UNL     1      27.444   2.095  52.019  1.00  0.00    -0.331 N 
HETATM   18  C10 UNL     1      27.609   1.906  53.399  1.00  0.00     0.221 C 
HETATM   19  O1  UNL     1      26.684   2.265  54.168  1.00  0.00    -0.273 OA
HETATM   20  H9  UNL     1      28.216   1.794  51.390  1.00  0.00     0.168 HD
BRANCH  18  21
HETATM   21  C11 UNL     1      28.801   1.310  54.016  1.00  0.00     0.098 C 
HETATM   22  C12 UNL     1      28.321   0.159  54.897  1.00  0.00     0.014 C 
ENDBRANCH  18  21
ENDBRANCH   9  17
TORSDOF 2
ENDMDL
MODEL 7
REMARK VINA RESULT:      -6.9      5.102      7.556
REMARK  2 active torsions:
REMARK  status: ('A' for Active; 'I' for Inactive)
REMARK    1  A    between atoms: C9_9  and  N1_10 
REMARK       I    between atoms: N1_10  and  C10_11 
REMARK    2  A    between atoms: C10_11  and  C11_13 
ROOT
HETATM    1  C1  UNL     1      25.564   2.401  53.741  1.00  0.00     0.013 C 
HETATM    2  C2  UNL     1      24.869   1.589  53.158  1.00  0.00    -0.103 C 
HETATM    3  C3  UNL     1      24.034   0.621  52.462  1.00  0.00     0.134 C 
HETATM    4  C4  UNL     1      23.112  -0.066  53.381  1.00  0.00    -0.007 C 
HETATM    5  C5  UNL     1      21.889  -0.474  53.761  1.00  0.00    -0.023 C 
HETATM    6  C6  UNL     1      20.404  -0.611  53.594  1.00  0.00     0.021 C 
HETATM    7  C7  UNL     1      19.195  -0.467  52.946  1.00  0.00     0.004 C 
HETATM    8  C8  UNL     1      19.122   0.168  51.581  1.00  0.00     0.062 C 
HETATM    9  C9  UNL     1      18.552   1.474  51.452  1.00  0.00     0.010 C 
HETATM   10  C13 UNL     1      19.754   2.070  51.302  1.00  0.00     0.025 C 
HETATM   11  C14 UNL     1      21.171   2.235  51.194  1.00  0.00     0.139 C 
HETATM   12  C15 UNL     1      22.030   1.168  50.604  1.00  0.00     0.088 C 
HETATM   13  C16 UNL     1      23.366   1.375  51.354  1.00  0.00     0.035 C 
HETATM   14  N2  UNL     1      23.865   2.480  50.836  1.00  0.00    -0.249 NA
HETATM   15  C17 UNL     1      22.924   3.510  50.398  1.00  0.00     0.227 C 
HETATM   16  N3  UNL     1      21.601   3.459  50.461  1.00  0.00    -0.273 NA
ENDROOT
BRANCH   9  17
HETATM   17  N1  UNL     1      17.217   1.877  51.480  1.00  0.00    -0.331 N 
HETATM   18  C10 UNL     1      16.596   3.094  51.799  1.00  0.00     0.221 C 
HETATM   19  O1  UNL     1      17.317   4.064  52.136  1.00  0.00    -0.273 OA
HETATM   20  H9  UNL     1      16.611   1.079  51.202  1.00  0.00     0.168 HD
BRANCH  18  21
HETATM   21  C11 UNL     1      15.145   3.316  51.766  1.00  0.00     0.098 C 
HETATM   22  C12 UNL     1      14.762   3.981  53.085  1.00  0.00     0.014 C 
ENDBRANCH  18  21
ENDBRANCH   9  17
TORSDOF 2
ENDMDL
MODEL 8
REMARK VINA RESULT:      -6.8      2.706      7.913
REMARK  2 active torsions:
REMARK  status: ('A' for Active; 'I' for Inactive)
REMARK    1  A    between atoms: C9_9  and  N1_10 
REMARK       I    between atoms: N1_10  and  C10_11 
REMARK    2  A    between atoms: C10_11  and  C11_13 
ROOT
HETATM    1  C1  UNL     1      25.955   8.477  44.493  1.00  0.00     0.013 C 
HETATM    2  C2  UNL     1      25.649   8.363  45.666  1.00  0.00    -0.103 C 
HETATM    3  C3  UNL     1      25.283   8.222  47.068  1.00  0.00     0.134 C 
HETATM    4  C4  UNL     1      24.119   7.338  47.243  1.00  0.00    -0.007 C 
HETATM    5  C5  UNL     1      23.491   6.286  47.795  1.00  0.00    -0.023 C 
HETATM    6  C6  UNL     1      23.402   5.103  48.714  1.00  0.00     0.021 C 
HETATM    7  C7  UNL     1      23.848   4.231  49.685  1.00  0.00     0.004 C 
HETATM    8  C8  UNL     1      25.193   4.427  50.338  1.00  0.00     0.062 C 
HETATM    9  C9  UNL     1      26.255   3.521  50.025  1.00  0.00     0.010 C 
HETATM   10  C13 UNL     1      26.884   4.408  49.226  1.00  0.00     0.025 C 
HETATM   11  C14 UNL     1      27.163   5.618  48.516  1.00  0.00     0.139 C 
HETATM   12  C15 UNL     1      26.753   6.945  49.061  1.00  0.00     0.088 C 
HETATM   13  C16 UNL     1      26.524   7.769  47.773  1.00  0.00     0.035 C 
HETATM   14  N2  UNL     1      27.736   7.997  47.308  1.00  0.00    -0.249 NA
HETATM   15  C17 UNL     1      28.756   6.974  47.538  1.00  0.00     0.227 C 
HETATM   16  N3  UNL     1      28.599   5.821  48.173  1.00  0.00    -0.273 NA
ENDROOT
BRANCH   9  17
HETATM   17  N1  UNL     1      26.472   2.210  50.453  1.00  0.00    -0.331 N 
HETATM   18  C10 UNL     1      26.427   1.601  51.716  1.00  0.00     0.221 C 
HETATM   19  O1  UNL     1      26.140   2.308  52.713  1.00  0.00    -0.273 OA
HETATM   20  H9  UNL     1      26.711   1.617  49.634  1.00  0.00     0.168 HD
BRANCH  18  21
HETATM   21  C11 UNL     1      26.694   0.178  51.958  1.00  0.00     0.098 C 
HETATM   22  C12 UNL     1      27.737   0.099  53.069  1.00  0.00     0.014 C 
ENDBRANCH  18  21
ENDBRANCH   9  17
TORSDOF 2
ENDMDL
MODEL 9
REMARK VINA RESULT:      -6.7      3.807      6.656
REMARK  2 active torsions:
REMARK  status: ('A' for Active; 'I' for Inactive)
REMARK    1  A    between atoms: C9_9  and  N1_10 
REMARK       I    between atoms: N1_10  and  C10_11 
REMARK    2  A    between atoms: C10_11  and  C11_13 
ROOT
HETATM    1  C1  UNL     1      17.486   3.260  51.698  1.00  0.00     0.013 C 
HETATM    2  C2  UNL     1      18.433   2.784  51.100  1.00  0.00    -0.103 C 
HETATM    3  C3  UNL     1      19.569   2.215  50.389  1.00  0.00     0.134 C 
HETATM    4  C4  UNL     1      20.633   3.210  50.173  1.00  0.00    -0.007 C 
HETATM    5  C5  UNL     1      21.906   3.633  50.250  1.00  0.00    -0.023 C 
HETATM    6  C6  UNL     1      23.357   3.475  50.599  1.00  0.00     0.021 C 
HETATM    7  C7  UNL     1      24.472   2.806  51.058  1.00  0.00     0.004 C 
HETATM    8  C8  UNL     1      24.381   1.369  51.504  1.00  0.00     0.062 C 
HETATM    9  C9  UNL     1      24.487   1.066  52.898  1.00  0.00     0.010 C 
HETATM   10  C13 UNL     1      23.162   0.847  53.033  1.00  0.00     0.025 C 
HETATM   11  C14 UNL     1      21.776   0.728  52.697  1.00  0.00     0.139 C 
HETATM   12  C15 UNL     1      21.346   0.289  51.338  1.00  0.00     0.088 C 
HETATM   13  C16 UNL     1      19.989   1.014  51.177  1.00  0.00     0.035 C 
HETATM   14  N2  UNL     1      19.170   0.359  51.977  1.00  0.00    -0.249 NA
HETATM   15  C17 UNL     1      19.730  -0.217  53.199  1.00  0.00     0.227 C 
HETATM   16  N3  UNL     1      20.991  -0.157  53.604  1.00  0.00    -0.273 NA
ENDROOT
BRANCH   9  17
HETATM   17  N1  UNL     1      25.609   1.032  53.726  1.00  0.00    -0.331 N 
HETATM   18  C10 UNL     1      26.502   0.009  54.078  1.00  0.00     0.221 C 
HETATM   19  O1  UNL     1      26.325  -1.135  53.593  1.00  0.00    -0.273 OA
HETATM   20  H9  UNL     1      25.764   1.976  54.134  1.00  0.00     0.168 HD
BRANCH  18  21
HETATM   21  C11 UNL     1      27.643   0.184  54.986  1.00  0.00     0.098 C 
HETATM   22  C12 UNL     1      28.879  -0.338  54.257  1.00  0.00     0.014 C 
ENDBRANCH  18  21
ENDBRANCH   9  17
TORSDOF 2
ENDMDL
