MODEL 1
REMARK VINA RESULT:      -9.0      0.000      0.000
REMARK  3 active torsions:
REMARK  status: ('A' for Active; 'I' for Inactive)
REMARK    1  A    between atoms: O1_2  and  C2_3 
REMARK    2  A    between atoms: C5_6  and  C6_7 
REMARK    3  A    between atoms: C14_16  and  C15_17 
ROOT
HETATM    1  C6  UNL     1      24.603  -0.126  53.254  1.00  0.00    -0.024 A 
HETATM    2  C7  UNL     1      25.500  -1.128  52.950  1.00  0.00     0.013 A 
HETATM    3  C8  UNL     1      26.861  -0.905  53.000  1.00  0.00     0.015 A 
HETATM    4  C9  UNL     1      27.279   0.355  53.365  1.00  0.00    -0.002 A 
HETATM    5  C10 UNL     1      26.436   1.399  53.681  1.00  0.00     0.040 A 
HETATM    6  C11 UNL     1      25.064   1.140  53.620  1.00  0.00     0.042 A 
HETATM    7  N1  UNL     1      27.201   2.573  54.018  1.00  0.00    -0.385 N 
HETATM    8  C12 UNL     1      28.548   2.335  53.507  1.00  0.00     0.159 C 
HETATM    9  C13 UNL     1      28.633   0.864  53.499  1.00  0.00    -0.026 C 
HETATM   10  C14 UNL     1      29.791   0.247  53.602  1.00  0.00     0.036 C 
HETATM   11  H9  UNL     1      26.784   3.390  54.532  1.00  0.00     0.160 HD
ENDROOT
BRANCH   1  12
HETATM   12  C5  UNL     1      23.151  -0.203  53.249  1.00  0.00    -0.026 A 
HETATM   13  C4  UNL     1      22.323   0.393  52.322  1.00  0.00     0.015 A 
HETATM   14  C3  UNL     1      20.966   0.242  52.438  1.00  0.00     0.037 A 
HETATM   15  C2  UNL     1      20.412  -0.501  53.473  1.00  0.00     0.068 A 
HETATM   16  C17 UNL     1      21.242  -1.110  54.420  1.00  0.00     0.037 A 
HETATM   17  C16 UNL     1      22.617  -0.956  54.302  1.00  0.00     0.015 A 
BRANCH  15  18
HETATM   18  O1  UNL     1      19.035  -0.547  53.435  1.00  0.00    -0.356 OA
HETATM   19  C1  UNL     1      18.267  -0.518  52.244  1.00  0.00     0.210 C 
ENDBRANCH  15  18
ENDBRANCH   1  12
BRANCH  10  20
HETATM   20  C15 UNL     1      29.797  -1.204  53.588  1.00  0.00     0.378 C 
HETATM   21  O2  UNL     1      29.630  -2.435  53.750  1.00  0.00    -0.406 OA
ENDBRANCH  10  20
TORSDOF 3
ENDMDL
MODEL 2
REMARK VINA RESULT:      -8.6      1.709      2.186
REMARK  3 active torsions:
REMARK  status: ('A' for Active; 'I' for Inactive)
REMARK    1  A    between atoms: O1_2  and  C2_3 
REMARK    2  A    between atoms: C5_6  and  C6_7 
REMARK    3  A    between atoms: C14_16  and  C15_17 
ROOT
HETATM    1  C6  UNL     1      24.585   1.193  52.860  1.00  0.00    -0.024 A 
HETATM    2  C7  UNL     1      25.115  -0.032  52.512  1.00  0.00     0.013 A 
HETATM    3  C8  UNL     1      26.457  -0.303  52.685  1.00  0.00     0.015 A 
HETATM    4  C9  UNL     1      27.237   0.698  53.218  1.00  0.00    -0.002 A 
HETATM    5  C10 UNL     1      26.771   1.943  53.586  1.00  0.00     0.040 A 
HETATM    6  C11 UNL     1      25.408   2.185  53.398  1.00  0.00     0.042 A 
HETATM    7  N1  UNL     1      27.850   2.744  54.106  1.00  0.00    -0.385 N 
HETATM    8  C12 UNL     1      29.081   2.092  53.671  1.00  0.00     0.159 C 
HETATM    9  C13 UNL     1      28.661   0.690  53.505  1.00  0.00    -0.026 C 
HETATM   10  C14 UNL     1      29.522  -0.299  53.622  1.00  0.00     0.036 C 
HETATM   11  H9  UNL     1      27.684   3.612  54.677  1.00  0.00     0.160 HD
ENDROOT
BRANCH   1  12
HETATM   12  C5  UNL     1      23.203   1.629  52.742  1.00  0.00    -0.026 A 
HETATM   13  C4  UNL     1      22.095   0.846  52.986  1.00  0.00     0.015 A 
HETATM   14  C3  UNL     1      20.845   1.386  52.832  1.00  0.00     0.037 A 
HETATM   15  C2  UNL     1      20.676   2.705  52.435  1.00  0.00     0.068 A 
HETATM   16  C17 UNL     1      21.792   3.510  52.184  1.00  0.00     0.037 A 
HETATM   17  C16 UNL     1      23.059   2.963  52.340  1.00  0.00     0.015 A 
BRANCH  15  18
HETATM   18  O1  UNL     1      19.353   3.079  52.332  1.00  0.00    -0.356 OA
HETATM   19  C1  UNL     1      18.381   2.375  51.576  1.00  0.00     0.210 C 
ENDBRANCH  15  18
ENDBRANCH   1  12
BRANCH  10  20
HETATM   20  C15 UNL     1      29.035  -1.655  53.447  1.00  0.00     0.378 C 
HETATM   21  O2  UNL     1      28.849  -2.877  53.241  1.00  0.00    -0.406 OA
ENDBRANCH  10  20
TORSDOF 3
ENDMDL
MODEL 3
REMARK VINA RESULT:      -7.9      2.617      7.848
REMARK  3 active torsions:
REMARK  status: ('A' for Active; 'I' for Inactive)
REMARK    1  A    between atoms: O1_2  and  C2_3 
REMARK    2  A    between atoms: C5_6  and  C6_7 
REMARK    3  A    between atoms: C14_16  and  C15_17 
ROOT
HETATM    1  C6  UNL     1      22.795   0.660  52.697  1.00  0.00    -0.024 A 
HETATM    2  C7  UNL     1      22.335   0.964  51.433  1.00  0.00     0.013 A 
HETATM    3  C8  UNL     1      21.021   0.736  51.080  1.00  0.00     0.015 A 
HETATM    4  C9  UNL     1      20.195   0.196  52.040  1.00  0.00    -0.002 A 
HETATM    5  C10 UNL     1      20.592  -0.131  53.320  1.00  0.00     0.040 A 
HETATM    6  C11 UNL     1      21.929   0.113  53.646  1.00  0.00     0.042 A 
HETATM    7  N1  UNL     1      19.481  -0.672  54.062  1.00  0.00    -0.385 N 
HETATM    8  C12 UNL     1      18.479  -1.047  53.069  1.00  0.00     0.159 C 
HETATM    9  C13 UNL     1      18.787  -0.145  51.945  1.00  0.00    -0.026 C 
HETATM   10  C14 UNL     1      17.859   0.210  51.082  1.00  0.00     0.036 C 
HETATM   11  H9  UNL     1      19.485  -0.742  55.111  1.00  0.00     0.160 HD
ENDROOT
BRANCH   1  12
HETATM   12  C5  UNL     1      24.140   0.841  53.220  1.00  0.00    -0.026 A 
HETATM   13  C4  UNL     1      24.866   2.011  53.169  1.00  0.00     0.015 A 
HETATM   14  C3  UNL     1      26.129   2.042  53.699  1.00  0.00     0.037 A 
HETATM   15  C2  UNL     1      26.688   0.916  54.287  1.00  0.00     0.068 A 
HETATM   16  C17 UNL     1      25.961  -0.278  54.346  1.00  0.00     0.037 A 
HETATM   17  C16 UNL     1      24.682  -0.309  53.808  1.00  0.00     0.015 A 
BRANCH  15  18
HETATM   18  O1  UNL     1      27.964   1.127  54.767  1.00  0.00    -0.356 OA
HETATM   19  C1  UNL     1      29.148   0.833  54.045  1.00  0.00     0.210 C 
ENDBRANCH  15  18
ENDBRANCH   1  12
BRANCH  10  20
HETATM   20  C15 UNL     1      18.236   1.103  50.001  1.00  0.00     0.378 C 
HETATM   21  O2  UNL     1      18.451   2.047  49.206  1.00  0.00    -0.406 OA
ENDBRANCH  10  20
TORSDOF 3
ENDMDL
MODEL 4
REMARK VINA RESULT:      -7.9      1.534      1.882
REMARK  3 active torsions:
REMARK  status: ('A' for Active; 'I' for Inactive)
REMARK    1  A    between atoms: O1_2  and  C2_3 
REMARK    2  A    between atoms: C5_6  and  C6_7 
REMARK    3  A    between atoms: C14_16  and  C15_17 
ROOT
HETATM    1  C6  UNL     1      23.317   0.171  53.122  1.00  0.00    -0.024 A 
HETATM    2  C7  UNL     1      24.347  -0.536  53.707  1.00  0.00     0.013 A 
HETATM    3  C8  UNL     1      25.655  -0.106  53.603  1.00  0.00     0.015 A 
HETATM    4  C9  UNL     1      25.883   1.052  52.894  1.00  0.00    -0.002 A 
HETATM    5  C10 UNL     1      24.900   1.804  52.286  1.00  0.00     0.040 A 
HETATM    6  C11 UNL     1      23.587   1.342  52.410  1.00  0.00     0.042 A 
HETATM    7  N1  UNL     1      25.482   2.950  51.632  1.00  0.00    -0.385 N 
HETATM    8  C12 UNL     1      26.908   2.662  51.514  1.00  0.00     0.159 C 
HETATM    9  C13 UNL     1      27.142   1.726  52.627  1.00  0.00    -0.026 C 
HETATM   10  C14 UNL     1      28.326   1.617  53.191  1.00  0.00     0.036 C 
HETATM   11  H9  UNL     1      24.910   3.781  51.337  1.00  0.00     0.160 HD
ENDROOT
BRANCH   1  12
HETATM   12  C5  UNL     1      21.898  -0.146  53.142  1.00  0.00    -0.026 A 
HETATM   13  C4  UNL     1      20.930   0.476  52.383  1.00  0.00     0.015 A 
HETATM   14  C3  UNL     1      19.624   0.078  52.504  1.00  0.00     0.037 A 
HETATM   15  C2  UNL     1      19.262  -0.940  53.375  1.00  0.00     0.068 A 
HETATM   16  C17 UNL     1      20.235  -1.579  54.150  1.00  0.00     0.037 A 
HETATM   17  C16 UNL     1      21.558  -1.176  54.029  1.00  0.00     0.015 A 
BRANCH  15  18
HETATM   18  O1  UNL     1      17.909  -1.209  53.367  1.00  0.00    -0.356 OA
HETATM   19  C1  UNL     1      17.354  -2.513  53.349  1.00  0.00     0.210 C 
ENDBRANCH  15  18
ENDBRANCH   1  12
BRANCH  10  20
HETATM   20  C15 UNL     1      28.480   0.674  54.284  1.00  0.00     0.378 C 
HETATM   21  O2  UNL     1      28.665  -0.301  55.048  1.00  0.00    -0.406 OA
ENDBRANCH  10  20
TORSDOF 3
ENDMDL
MODEL 5
REMARK VINA RESULT:      -7.8      2.012      7.539
REMARK  3 active torsions:
REMARK  status: ('A' for Active; 'I' for Inactive)
REMARK    1  A    between atoms: O1_2  and  C2_3 
REMARK    2  A    between atoms: C5_6  and  C6_7 
REMARK    3  A    between atoms: C14_16  and  C15_17 
ROOT
HETATM    1  C6  UNL     1      23.465  -0.229  53.607  1.00  0.00    -0.024 A 
HETATM    2  C7  UNL     1      22.495  -0.859  54.358  1.00  0.00     0.013 A 
HETATM    3  C8  UNL     1      21.163  -0.787  54.006  1.00  0.00     0.015 A 
HETATM    4  C9  UNL     1      20.848  -0.063  52.878  1.00  0.00    -0.002 A 
HETATM    5  C10 UNL     1      21.767   0.590  52.085  1.00  0.00     0.040 A 
HETATM    6  C11 UNL     1      23.108   0.497  52.469  1.00  0.00     0.042 A 
HETATM    7  N1  UNL     1      21.101   1.247  50.989  1.00  0.00    -0.385 N 
HETATM    8  C12 UNL     1      19.691   1.316  51.359  1.00  0.00     0.159 C 
HETATM    9  C13 UNL     1      19.545   0.178  52.283  1.00  0.00    -0.026 C 
HETATM   10  C14 UNL     1      18.386  -0.424  52.447  1.00  0.00     0.036 C 
HETATM   11  H9  UNL     1      21.615   1.577  50.132  1.00  0.00     0.160 HD
ENDROOT
BRANCH   1  12
HETATM   12  C5  UNL     1      24.900  -0.211  53.843  1.00  0.00    -0.026 A 
HETATM   13  C4  UNL     1      25.504  -0.113  55.078  1.00  0.00     0.015 A 
HETATM   14  C3  UNL     1      26.872  -0.105  55.157  1.00  0.00     0.037 A 
HETATM   15  C2  UNL     1      27.658  -0.193  54.015  1.00  0.00     0.068 A 
HETATM   16  C17 UNL     1      27.056  -0.293  52.757  1.00  0.00     0.037 A 
HETATM   17  C16 UNL     1      25.670  -0.301  52.677  1.00  0.00     0.015 A 
BRANCH  15  18
HETATM   18  O1  UNL     1      29.011  -0.170  54.281  1.00  0.00    -0.356 OA
HETATM   19  C1  UNL     1      30.004  -0.689  53.414  1.00  0.00     0.210 C 
ENDBRANCH  15  18
ENDBRANCH   1  12
BRANCH  10  20
HETATM   20  C15 UNL     1      18.319  -1.540  53.373  1.00  0.00     0.378 C 
HETATM   21  O2  UNL     1      18.148  -2.619  53.986  1.00  0.00    -0.406 OA
ENDBRANCH  10  20
TORSDOF 3
ENDMDL
MODEL 6
REMARK VINA RESULT:      -7.7      4.666      5.539
REMARK  3 active torsions:
REMARK  status: ('A' for Active; 'I' for Inactive)
REMARK    1  A    between atoms: O1_2  and  C2_3 
REMARK    2  A    between atoms: C5_6  and  C6_7 
REMARK    3  A    between atoms: C14_16  and  C15_17 
ROOT
HETATM    1  C6  UNL     1      25.194   2.652  51.112  1.00  0.00    -0.024 A 
HETATM    2  C7  UNL     1      26.355   2.557  50.372  1.00  0.00     0.013 A 
HETATM    3  C8  UNL     1      26.785   3.604  49.584  1.00  0.00     0.015 A 
HETATM    4  C9  UNL     1      26.009   4.741  49.569  1.00  0.00    -0.002 A 
HETATM    5  C10 UNL     1      24.840   4.901  50.284  1.00  0.00     0.040 A 
HETATM    6  C11 UNL     1      24.432   3.821  51.072  1.00  0.00     0.042 A 
HETATM    7  N1  UNL     1      24.283   6.208  50.041  1.00  0.00    -0.385 N 
HETATM    8  C12 UNL     1      24.935   6.705  48.833  1.00  0.00     0.159 C 
HETATM    9  C13 UNL     1      26.217   5.979  48.839  1.00  0.00    -0.026 C 
HETATM   10  C14 UNL     1      27.285   6.476  48.251  1.00  0.00     0.036 C 
HETATM   11  H9  UNL     1      23.554   6.635  50.667  1.00  0.00     0.160 HD
ENDROOT
BRANCH   1  12
HETATM   12  C5  UNL     1      24.613   1.646  51.986  1.00  0.00    -0.026 A 
HETATM   13  C4  UNL     1      25.280   0.558  52.506  1.00  0.00     0.015 A 
HETATM   14  C3  UNL     1      24.608  -0.319  53.316  1.00  0.00     0.037 A 
HETATM   15  C2  UNL     1      23.267  -0.128  53.623  1.00  0.00     0.068 A 
HETATM   16  C17 UNL     1      22.578   0.972  53.102  1.00  0.00     0.037 A 
HETATM   17  C16 UNL     1      23.260   1.860  52.279  1.00  0.00     0.015 A 
BRANCH  15  18
HETATM   18  O1  UNL     1      22.752  -1.104  54.450  1.00  0.00    -0.356 OA
HETATM   19  C1  UNL     1      21.433  -1.613  54.359  1.00  0.00     0.210 C 
ENDBRANCH  15  18
ENDBRANCH   1  12
BRANCH  10  20
HETATM   20  C15 UNL     1      28.514   5.705  48.298  1.00  0.00     0.378 C 
HETATM   21  O2  UNL     1      29.651   5.216  48.494  1.00  0.00    -0.406 OA
ENDBRANCH  10  20
TORSDOF 3
ENDMDL
MODEL 7
REMARK VINA RESULT:      -7.4      5.095      7.485
REMARK  3 active torsions:
REMARK  status: ('A' for Active; 'I' for Inactive)
REMARK    1  A    between atoms: O1_2  and  C2_3 
REMARK    2  A    between atoms: C5_6  and  C6_7 
REMARK    3  A    between atoms: C14_16  and  C15_17 
ROOT
HETATM    1  C6  UNL     1      25.604   3.280  50.462  1.00  0.00    -0.024 A 
HETATM    2  C7  UNL     1      24.288   2.927  50.673  1.00  0.00     0.013 A 
HETATM    3  C8  UNL     1      23.959   1.845  51.463  1.00  0.00     0.015 A 
HETATM    4  C9  UNL     1      24.997   1.138  52.027  1.00  0.00    -0.002 A 
HETATM    5  C10 UNL     1      26.332   1.438  51.856  1.00  0.00     0.040 A 
HETATM    6  C11 UNL     1      26.631   2.539  51.050  1.00  0.00     0.042 A 
HETATM    7  N1  UNL     1      27.150   0.500  52.584  1.00  0.00    -0.385 N 
HETATM    8  C12 UNL     1      26.285  -0.637  52.886  1.00  0.00     0.159 C 
HETATM    9  C13 UNL     1      24.944  -0.029  52.890  1.00  0.00    -0.026 C 
HETATM   10  C14 UNL     1      23.961  -0.549  53.594  1.00  0.00     0.036 C 
HETATM   11  H9  UNL     1      28.160   0.688  52.807  1.00  0.00     0.160 HD
ENDROOT
BRANCH   1  12
HETATM   12  C5  UNL     1      26.110   4.385  49.663  1.00  0.00    -0.026 A 
HETATM   13  C4  UNL     1      27.347   4.430  49.056  1.00  0.00     0.015 A 
HETATM   14  C3  UNL     1      27.700   5.540  48.333  1.00  0.00     0.037 A 
HETATM   15  C2  UNL     1      26.833   6.616  48.201  1.00  0.00     0.068 A 
HETATM   16  C17 UNL     1      25.575   6.581  48.811  1.00  0.00     0.037 A 
HETATM   17  C16 UNL     1      25.218   5.458  49.545  1.00  0.00     0.015 A 
BRANCH  15  18
HETATM   18  O1  UNL     1      27.350   7.643  47.440  1.00  0.00    -0.356 OA
HETATM   19  C1  UNL     1      26.567   8.639  46.804  1.00  0.00     0.210 C 
ENDBRANCH  15  18
ENDBRANCH   1  12
BRANCH  10  20
HETATM   20  C15 UNL     1      22.666   0.105  53.551  1.00  0.00     0.378 C 
HETATM   21  O2  UNL     1      21.510   0.555  53.729  1.00  0.00    -0.406 OA
ENDBRANCH  10  20
TORSDOF 3
ENDMDL
MODEL 8
REMARK VINA RESULT:      -7.4      1.861      3.019
REMARK  3 active torsions:
REMARK  status: ('A' for Active; 'I' for Inactive)
REMARK    1  A    between atoms: O1_2  and  C2_3 
REMARK    2  A    between atoms: C5_6  and  C6_7 
REMARK    3  A    between atoms: C14_16  and  C15_17 
ROOT
HETATM    1  C6  UNL     1      22.316   0.227  52.540  1.00  0.00    -0.024 A 
HETATM    2  C7  UNL     1      23.225  -0.486  53.294  1.00  0.00     0.013 A 
HETATM    3  C8  UNL     1      24.565  -0.158  53.290  1.00  0.00     0.015 A 
HETATM    4  C9  UNL     1      24.951   0.905  52.506  1.00  0.00    -0.002 A 
HETATM    5  C10 UNL     1      24.095   1.658  51.730  1.00  0.00     0.040 A 
HETATM    6  C11 UNL     1      22.744   1.300  51.756  1.00  0.00     0.042 A 
HETATM    7  N1  UNL     1      24.826   2.691  51.039  1.00  0.00    -0.385 N 
HETATM    8  C12 UNL     1      26.230   2.297  51.100  1.00  0.00     0.159 C 
HETATM    9  C13 UNL     1      26.279   1.463  52.313  1.00  0.00    -0.026 C 
HETATM   10  C14 UNL     1      27.389   1.331  53.007  1.00  0.00     0.036 C 
HETATM   11  H9  UNL     1      24.353   3.525  50.609  1.00  0.00     0.160 HD
ENDROOT
BRANCH   1  12
HETATM   12  C5  UNL     1      20.881   0.010  52.438  1.00  0.00    -0.026 A 
HETATM   13  C4  UNL     1      20.100  -0.619  53.384  1.00  0.00     0.015 A 
HETATM   14  C3  UNL     1      18.756  -0.761  53.158  1.00  0.00     0.037 A 
HETATM   15  C2  UNL     1      18.169  -0.282  51.995  1.00  0.00     0.068 A 
HETATM   16  C17 UNL     1      18.951   0.358  51.028  1.00  0.00     0.037 A 
HETATM   17  C16 UNL     1      20.313   0.501  51.256  1.00  0.00     0.015 A 
BRANCH  15  18
HETATM   18  O1  UNL     1      16.811  -0.510  51.935  1.00  0.00    -0.356 OA
HETATM   19  C1  UNL     1      15.950   0.042  50.954  1.00  0.00     0.210 C 
ENDBRANCH  15  18
ENDBRANCH   1  12
BRANCH  10  20
HETATM   20  C15 UNL     1      27.361   0.494  54.193  1.00  0.00     0.378 C 
HETATM   21  O2  UNL     1      27.103  -0.152  55.235  1.00  0.00    -0.406 OA
ENDBRANCH  10  20
TORSDOF 3
ENDMDL
MODEL 9
REMARK VINA RESULT:      -7.2      5.276      7.496
REMARK  3 active torsions:
REMARK  status: ('A' for Active; 'I' for Inactive)
REMARK    1  A    between atoms: O1_2  and  C2_3 
REMARK    2  A    between atoms: C5_6  and  C6_7 
REMARK    3  A    between atoms: C14_16  and  C15_17 
ROOT
HETATM    1  C6  UNL     1      25.918   3.481  50.462  1.00  0.00    -0.024 A 
HETATM    2  C7  UNL     1      26.727   2.726  51.284  1.00  0.00     0.013 A 
HETATM    3  C8  UNL     1      26.204   1.710  52.058  1.00  0.00     0.015 A 
HETATM    4  C9  UNL     1      24.849   1.486  51.972  1.00  0.00    -0.002 A 
HETATM    5  C10 UNL     1      23.986   2.204  51.171  1.00  0.00     0.040 A 
HETATM    6  C11 UNL     1      24.547   3.226  50.400  1.00  0.00     0.042 A 
HETATM    7  N1  UNL     1      22.640   1.709  51.320  1.00  0.00    -0.385 N 
HETATM    8  C12 UNL     1      22.636   0.922  52.549  1.00  0.00     0.159 C 
HETATM    9  C13 UNL     1      24.041   0.496  52.664  1.00  0.00    -0.026 C 
HETATM   10  C14 UNL     1      24.371  -0.605  53.305  1.00  0.00     0.036 C 
HETATM   11  H9  UNL     1      21.880   1.927  50.627  1.00  0.00     0.160 HD
ENDROOT
BRANCH   1  12
HETATM   12  C5  UNL     1      26.313   4.577  49.591  1.00  0.00    -0.026 A 
HETATM   13  C4  UNL     1      27.546   4.715  48.990  1.00  0.00     0.015 A 
HETATM   14  C3  UNL     1      27.787   5.803  48.192  1.00  0.00     0.037 A 
HETATM   15  C2  UNL     1      26.811   6.766  47.979  1.00  0.00     0.068 A 
HETATM   16  C17 UNL     1      25.556   6.638  48.583  1.00  0.00     0.037 A 
HETATM   17  C16 UNL     1      25.312   5.536  49.392  1.00  0.00     0.015 A 
BRANCH  15  18
HETATM   18  O1  UNL     1      27.225   7.789  47.152  1.00  0.00    -0.356 OA
HETATM   19  C1  UNL     1      28.549   7.937  46.668  1.00  0.00     0.210 C 
ENDBRANCH  15  18
ENDBRANCH   1  12
BRANCH  10  20
HETATM   20  C15 UNL     1      25.776  -0.962  53.376  1.00  0.00     0.378 C 
HETATM   21  O2  UNL     1      26.907  -1.500  53.405  1.00  0.00    -0.406 OA
ENDBRANCH  10  20
TORSDOF 3
ENDMDL
