MODEL 1
REMARK VINA RESULT:      -8.7      0.000      0.000
REMARK  10 active torsions:
REMARK  status: ('A' for Active; 'I' for Inactive)
REMARK    1  A    between atoms: N1_1  and  C1_2 
REMARK    2  A    between atoms: C1_2  and  C2_3 
REMARK    3  A    between atoms: C2_3  and  O1_4 
REMARK    4  A    between atoms: C2_3  and  C3_5 
REMARK    5  A    between atoms: C3_5  and  O2_6 
REMARK    6  A    between atoms: O2_6  and  C4_7 
REMARK    7  A    between atoms: C4_7  and  C5_8 
REMARK    8  A    between atoms: C8_11  and  N2_12 
REMARK    9  A    between atoms: N2_12  and  C9_13 
REMARK   10  A    between atoms: C19_27  and  O3_28 
ROOT
HETATM    1  C5  UNL     1      23.971  -0.522  54.003  1.00  0.00    -0.000 A 
HETATM    2  C6  UNL     1      23.503   0.092  52.866  1.00  0.00     0.029 A 
HETATM    3  C7  UNL     1      22.182   0.133  52.565  1.00  0.00     0.039 A 
HETATM    4  C8  UNL     1      21.800   0.769  51.405  1.00  0.00     0.138 A 
HETATM    5  N3  UNL     1      20.489   0.781  51.153  1.00  0.00    -0.224 NA
HETATM    6  C16 UNL     1      19.548   0.235  51.925  1.00  0.00     0.235 A 
HETATM    7  N4  UNL     1      19.913  -0.379  53.044  1.00  0.00    -0.241 NA
HETATM    8  C17 UNL     1      21.227  -0.443  53.386  1.00  0.00     0.074 A 
HETATM    9  C18 UNL     1      21.653  -1.067  54.532  1.00  0.00     0.069 A 
HETATM   10  C19 UNL     1      23.013  -1.098  54.822  1.00  0.00     0.076 A 
ENDROOT
BRANCH   4  11
HETATM   11  N2  UNL     1      22.720   1.387  50.514  1.00  0.00    -0.363 N 
HETATM   12  H12 UNL     1      23.363   0.920  49.865  1.00  0.00     0.162 HD
BRANCH  11  13
HETATM   13  C9  UNL     1      22.795   2.854  50.487  1.00  0.00     0.131 C 
HETATM   14  C10 UNL     1      22.581   3.439  51.807  1.00  0.00     0.002 C 
HETATM   15  C11 UNL     1      22.874   4.567  52.425  1.00  0.00     0.001 C 
HETATM   16  C12 UNL     1      23.608   5.636  51.765  1.00  0.00     0.044 C 
HETATM   17  C13 UNL     1      24.434   5.603  50.725  1.00  0.00     0.137 C 
HETATM   18  F1  UNL     1      24.983   6.790  50.322  1.00  0.00    -0.204 F 
HETATM   19  C14 UNL     1      24.792   4.377  49.986  1.00  0.00     0.071 C 
HETATM   20 CL1  UNL     1      26.345   4.531  49.146  1.00  0.00    -0.081 Cl
HETATM   21  C15 UNL     1      24.103   3.226  49.887  1.00  0.00     0.029 C 
ENDBRANCH  11  13
ENDBRANCH   4  11
BRANCH   1  22
HETATM   22  C4  UNL     1      25.338  -0.703  54.563  1.00  0.00     0.209 C 
BRANCH  22  23
HETATM   23  O2  UNL     1      26.105  -1.446  53.728  1.00  0.00    -0.384 OA
BRANCH  23  24
HETATM   24  C3  UNL     1      27.059  -0.828  52.985  1.00  0.00     0.201 C 
BRANCH  24  25
HETATM   25  C2  UNL     1      28.438  -0.727  53.550  1.00  0.00     0.169 C 
BRANCH  25  26
HETATM   26  C1  UNL     1      29.250  -1.953  53.212  1.00  0.00     0.300 C 
BRANCH  26  27
HETATM   27  N1  UNL     1      28.379  -3.091  53.146  1.00  0.00     0.080 N 
HETATM   28  H1  UNL     1      28.641  -3.781  53.870  1.00  0.00     0.312 HD
HETATM   29  H2  UNL     1      28.446  -3.517  52.210  1.00  0.00     0.312 HD
ENDBRANCH  26  27
ENDBRANCH  25  26
BRANCH  25  30
HETATM   30  O1  UNL     1      28.419  -0.447  54.890  1.00  0.00    -0.392 OA
HETATM   31  H6  UNL     1      29.269  -0.140  55.261  1.00  0.00     0.210 HD
ENDBRANCH  25  30
ENDBRANCH  24  25
ENDBRANCH  23  24
ENDBRANCH  22  23
ENDBRANCH   1  22
BRANCH  10  32
HETATM   32  O3  UNL     1      23.269  -1.777  56.031  1.00  0.00    -0.360 OA
HETATM   33  H20 UNL     1      23.252  -1.337  56.924  1.00  0.00     0.217 HD
ENDBRANCH  10  32
TORSDOF 10
ENDMDL
MODEL 2
REMARK VINA RESULT:      -8.6      3.547      5.916
REMARK  10 active torsions:
REMARK  status: ('A' for Active; 'I' for Inactive)
REMARK    1  A    between atoms: N1_1  and  C1_2 
REMARK    2  A    between atoms: C1_2  and  C2_3 
REMARK    3  A    between atoms: C2_3  and  O1_4 
REMARK    4  A    between atoms: C2_3  and  C3_5 
REMARK    5  A    between atoms: C3_5  and  O2_6 
REMARK    6  A    between atoms: O2_6  and  C4_7 
REMARK    7  A    between atoms: C4_7  and  C5_8 
REMARK    8  A    between atoms: C8_11  and  N2_12 
REMARK    9  A    between atoms: N2_12  and  C9_13 
REMARK   10  A    between atoms: C19_27  and  O3_28 
ROOT
HETATM    1  C5  UNL     1      22.215   1.474  52.429  1.00  0.00    -0.000 A 
HETATM    2  C6  UNL     1      23.516   1.914  52.453  1.00  0.00     0.029 A 
HETATM    3  C7  UNL     1      24.087   2.519  51.383  1.00  0.00     0.039 A 
HETATM    4  C8  UNL     1      25.397   2.928  51.492  1.00  0.00     0.138 A 
HETATM    5  N3  UNL     1      25.914   3.517  50.411  1.00  0.00    -0.224 NA
HETATM    6  C16 UNL     1      25.268   3.733  49.264  1.00  0.00     0.235 A 
HETATM    7  N4  UNL     1      24.005   3.340  49.156  1.00  0.00    -0.241 NA
HETATM    8  C17 UNL     1      23.391   2.729  50.204  1.00  0.00     0.074 A 
HETATM    9  C18 UNL     1      22.088   2.304  50.140  1.00  0.00     0.069 A 
HETATM   10  C19 UNL     1      21.521   1.685  51.249  1.00  0.00     0.076 A 
ENDROOT
BRANCH   4  11
HETATM   11  N2  UNL     1      26.175   2.751  52.668  1.00  0.00    -0.363 N 
HETATM   12  H12 UNL     1      25.996   3.149  53.596  1.00  0.00     0.162 HD
BRANCH  11  13
HETATM   13  C9  UNL     1      27.381   1.913  52.595  1.00  0.00     0.131 C 
HETATM   14  C10 UNL     1      28.273   2.136  53.728  1.00  0.00     0.002 C 
HETATM   15  C11 UNL     1      29.230   1.475  54.351  1.00  0.00     0.001 C 
HETATM   16  C12 UNL     1      29.641   0.143  53.935  1.00  0.00     0.044 C 
HETATM   17  C13 UNL     1      28.986  -0.788  53.250  1.00  0.00     0.137 C 
HETATM   18  F1  UNL     1      29.642  -1.964  53.004  1.00  0.00    -0.204 F 
HETATM   19  C14 UNL     1      27.608  -0.634  52.743  1.00  0.00     0.071 C 
HETATM   20 CL1  UNL     1      26.809  -2.195  52.488  1.00  0.00    -0.081 Cl
HETATM   21  C15 UNL     1      26.938   0.499  52.469  1.00  0.00     0.029 C 
ENDBRANCH  11  13
ENDBRANCH   4  11
BRANCH   1  22
HETATM   22  C4  UNL     1      21.359   0.798  53.443  1.00  0.00     0.209 C 
BRANCH  22  23
HETATM   23  O2  UNL     1      21.337  -0.541  53.237  1.00  0.00    -0.384 OA
BRANCH  23  24
HETATM   24  C3  UNL     1      22.434  -1.275  53.557  1.00  0.00     0.201 C 
BRANCH  24  25
HETATM   25  C2  UNL     1      23.027  -1.103  54.917  1.00  0.00     0.169 C 
BRANCH  25  26
HETATM   26  C1  UNL     1      24.511  -0.849  54.830  1.00  0.00     0.300 C 
BRANCH  26  27
HETATM   27  N1  UNL     1      25.151  -1.384  55.997  1.00  0.00     0.080 N 
HETATM   28  H1  UNL     1      24.552  -1.239  56.827  1.00  0.00     0.312 HD
HETATM   29  H2  UNL     1      26.060  -0.917  56.130  1.00  0.00     0.312 HD
ENDBRANCH  26  27
ENDBRANCH  25  26
BRANCH  25  30
HETATM   30  O1  UNL     1      22.707  -2.146  55.745  1.00  0.00    -0.392 OA
HETATM   31  H6  UNL     1      23.436  -2.773  55.922  1.00  0.00     0.210 HD
ENDBRANCH  25  30
ENDBRANCH  24  25
ENDBRANCH  23  24
ENDBRANCH  22  23
ENDBRANCH   1  22
BRANCH  10  32
HETATM   32  O3  UNL     1      20.182   1.316  51.007  1.00  0.00    -0.360 OA
HETATM   33  H20 UNL     1      19.402   1.891  51.236  1.00  0.00     0.217 HD
ENDBRANCH  10  32
TORSDOF 10
ENDMDL
MODEL 3
REMARK VINA RESULT:      -8.3      3.992      7.116
REMARK  10 active torsions:
REMARK  status: ('A' for Active; 'I' for Inactive)
REMARK    1  A    between atoms: N1_1  and  C1_2 
REMARK    2  A    between atoms: C1_2  and  C2_3 
REMARK    3  A    between atoms: C2_3  and  O1_4 
REMARK    4  A    between atoms: C2_3  and  C3_5 
REMARK    5  A    between atoms: C3_5  and  O2_6 
REMARK    6  A    between atoms: O2_6  and  C4_7 
REMARK    7  A    between atoms: C4_7  and  C5_8 
REMARK    8  A    between atoms: C8_11  and  N2_12 
REMARK    9  A    between atoms: N2_12  and  C9_13 
REMARK   10  A    between atoms: C19_27  and  O3_28 
ROOT
HETATM    1  C5  UNL     1      22.367   0.861  51.679  1.00  0.00    -0.000 A 
HETATM    2  C6  UNL     1      23.569   1.472  51.941  1.00  0.00     0.029 A 
HETATM    3  C7  UNL     1      24.118   2.368  51.086  1.00  0.00     0.039 A 
HETATM    4  C8  UNL     1      25.327   2.934  51.426  1.00  0.00     0.138 A 
HETATM    5  N3  UNL     1      25.826   3.809  50.551  1.00  0.00    -0.224 NA
HETATM    6  C16 UNL     1      25.252   4.167  49.401  1.00  0.00     0.235 A 
HETATM    7  N4  UNL     1      24.087   3.625  49.071  1.00  0.00    -0.241 NA
HETATM    8  C17 UNL     1      23.499   2.721  49.898  1.00  0.00     0.074 A 
HETATM    9  C18 UNL     1      22.295   2.132  49.600  1.00  0.00     0.069 A 
HETATM   10  C19 UNL     1      21.749   1.214  50.490  1.00  0.00     0.076 A 
ENDROOT
BRANCH   4  11
HETATM   11  N2  UNL     1      26.022   2.626  52.628  1.00  0.00    -0.363 N 
HETATM   12  H12 UNL     1      25.754   2.886  53.583  1.00  0.00     0.162 HD
BRANCH  11  13
HETATM   13  C9  UNL     1      27.268   1.852  52.541  1.00  0.00     0.131 C 
HETATM   14  C10 UNL     1      28.190   2.173  53.626  1.00  0.00     0.002 C 
HETATM   15  C11 UNL     1      29.205   1.593  54.238  1.00  0.00     0.001 C 
HETATM   16  C12 UNL     1      29.673   0.268  53.862  1.00  0.00     0.044 C 
HETATM   17  C13 UNL     1      29.044  -0.726  53.244  1.00  0.00     0.137 C 
HETATM   18  F1  UNL     1      29.755  -1.875  53.021  1.00  0.00    -0.204 F 
HETATM   19  C14 UNL     1      27.642  -0.670  52.788  1.00  0.00     0.071 C 
HETATM   20 CL1  UNL     1      26.922  -2.282  52.632  1.00  0.00    -0.081 Cl
HETATM   21  C15 UNL     1      26.900   0.412  52.493  1.00  0.00     0.029 C 
ENDBRANCH  11  13
ENDBRANCH   4  11
BRANCH   1  22
HETATM   22  C4  UNL     1      21.555  -0.134  52.432  1.00  0.00     0.209 C 
BRANCH  22  23
HETATM   23  O2  UNL     1      20.337   0.376  52.742  1.00  0.00    -0.384 OA
BRANCH  23  24
HETATM   24  C3  UNL     1      19.369  -0.461  53.197  1.00  0.00     0.201 C 
BRANCH  24  25
HETATM   25  C2  UNL     1      18.047  -0.456  52.502  1.00  0.00     0.169 C 
BRANCH  25  26
HETATM   26  C1  UNL     1      17.209  -1.636  52.928  1.00  0.00     0.300 C 
BRANCH  26  27
HETATM   27  N1  UNL     1      17.856  -2.303  54.022  1.00  0.00     0.080 N 
HETATM   28  H1  UNL     1      18.533  -2.996  53.664  1.00  0.00     0.312 HD
HETATM   29  H2  UNL     1      17.145  -2.769  54.604  1.00  0.00     0.312 HD
ENDBRANCH  26  27
ENDBRANCH  25  26
BRANCH  25  30
HETATM   30  O1  UNL     1      18.189  -0.360  51.143  1.00  0.00    -0.392 OA
HETATM   31  H6  UNL     1      18.934  -0.870  50.768  1.00  0.00     0.210 HD
ENDBRANCH  25  30
ENDBRANCH  24  25
ENDBRANCH  23  24
ENDBRANCH  22  23
ENDBRANCH   1  22
BRANCH  10  32
HETATM   32  O3  UNL     1      20.517   0.712  50.025  1.00  0.00    -0.360 OA
HETATM   33  H20 UNL     1      19.632   1.069  50.312  1.00  0.00     0.217 HD
ENDBRANCH  10  32
TORSDOF 10
ENDMDL
MODEL 4
REMARK VINA RESULT:      -8.2      2.483      5.453
REMARK  10 active torsions:
REMARK  status: ('A' for Active; 'I' for Inactive)
REMARK    1  A    between atoms: N1_1  and  C1_2 
REMARK    2  A    between atoms: C1_2  and  C2_3 
REMARK    3  A    between atoms: C2_3  and  O1_4 
REMARK    4  A    between atoms: C2_3  and  C3_5 
REMARK    5  A    between atoms: C3_5  and  O2_6 
REMARK    6  A    between atoms: O2_6  and  C4_7 
REMARK    7  A    between atoms: C4_7  and  C5_8 
REMARK    8  A    between atoms: C8_11  and  N2_12 
REMARK    9  A    between atoms: N2_12  and  C9_13 
REMARK   10  A    between atoms: C19_27  and  O3_28 
ROOT
HETATM    1  C5  UNL     1      24.470  -0.352  53.719  1.00  0.00    -0.000 A 
HETATM    2  C6  UNL     1      25.116   0.464  52.822  1.00  0.00     0.029 A 
HETATM    3  C7  UNL     1      26.321   1.019  53.099  1.00  0.00     0.039 A 
HETATM    4  C8  UNL     1      26.899   1.826  52.143  1.00  0.00     0.138 A 
HETATM    5  N3  UNL     1      28.084   2.350  52.464  1.00  0.00    -0.224 NA
HETATM    6  C16 UNL     1      28.732   2.152  53.613  1.00  0.00     0.235 A 
HETATM    7  N4  UNL     1      28.178   1.376  54.536  1.00  0.00    -0.241 NA
HETATM    8  C17 UNL     1      26.970   0.797  54.302  1.00  0.00     0.074 A 
HETATM    9  C18 UNL     1      26.358  -0.013  55.225  1.00  0.00     0.069 A 
HETATM   10  C19 UNL     1      25.121  -0.573  54.922  1.00  0.00     0.076 A 
ENDROOT
BRANCH   4  11
HETATM   11  N2  UNL     1      26.296   2.099  50.885  1.00  0.00    -0.363 N 
HETATM   12  H12 UNL     1      26.124   1.435  50.122  1.00  0.00     0.162 HD
BRANCH  11  13
HETATM   13  C9  UNL     1      25.857   3.472  50.599  1.00  0.00     0.131 C 
HETATM   14  C10 UNL     1      26.769   4.161  49.690  1.00  0.00     0.002 C 
HETATM   15  C11 UNL     1      26.714   5.178  48.852  1.00  0.00     0.001 C 
HETATM   16  C12 UNL     1      25.492   5.940  48.647  1.00  0.00     0.044 C 
HETATM   17  C13 UNL     1      24.222   5.605  48.846  1.00  0.00     0.137 C 
HETATM   18  F1  UNL     1      23.272   6.548  48.560  1.00  0.00    -0.204 F 
HETATM   19  C14 UNL     1      23.777   4.292  49.351  1.00  0.00     0.071 C 
HETATM   20 CL1  UNL     1      22.106   3.926  48.884  1.00  0.00    -0.081 Cl
HETATM   21  C15 UNL     1      24.463   3.400  50.086  1.00  0.00     0.029 C 
ENDBRANCH  11  13
ENDBRANCH   4  11
BRANCH   1  22
HETATM   22  C4  UNL     1      23.172  -1.080  53.668  1.00  0.00     0.209 C 
BRANCH  22  23
HETATM   23  O2  UNL     1      22.357  -0.679  54.674  1.00  0.00    -0.384 OA
BRANCH  23  24
HETATM   24  C3  UNL     1      21.252   0.053  54.375  1.00  0.00     0.201 C 
BRANCH  24  25
HETATM   25  C2  UNL     1      20.311  -0.480  53.344  1.00  0.00     0.169 C 
BRANCH  25  26
HETATM   26  C1  UNL     1      19.981   0.577  52.319  1.00  0.00     0.300 C 
BRANCH  26  27
HETATM   27  N1  UNL     1      20.990   0.576  51.299  1.00  0.00     0.080 N 
HETATM   28  H1  UNL     1      20.842   1.369  50.654  1.00  0.00     0.312 HD
HETATM   29  H2  UNL     1      20.950  -0.315  50.783  1.00  0.00     0.312 HD
ENDBRANCH  26  27
ENDBRANCH  25  26
BRANCH  25  30
HETATM   30  O1  UNL     1      19.199  -1.043  53.914  1.00  0.00    -0.392 OA
HETATM   31  H6  UNL     1      18.611  -1.516  53.294  1.00  0.00     0.210 HD
ENDBRANCH  25  30
ENDBRANCH  24  25
ENDBRANCH  23  24
ENDBRANCH  22  23
ENDBRANCH   1  22
BRANCH  10  32
HETATM   32  O3  UNL     1      24.642  -1.372  55.980  1.00  0.00    -0.360 OA
HETATM   33  H20 UNL     1      24.577  -2.365  55.935  1.00  0.00     0.217 HD
ENDBRANCH  10  32
TORSDOF 10
ENDMDL
MODEL 5
REMARK VINA RESULT:      -8.0      2.207      3.035
REMARK  10 active torsions:
REMARK  status: ('A' for Active; 'I' for Inactive)
REMARK    1  A    between atoms: N1_1  and  C1_2 
REMARK    2  A    between atoms: C1_2  and  C2_3 
REMARK    3  A    between atoms: C2_3  and  O1_4 
REMARK    4  A    between atoms: C2_3  and  C3_5 
REMARK    5  A    between atoms: C3_5  and  O2_6 
REMARK    6  A    between atoms: O2_6  and  C4_7 
REMARK    7  A    between atoms: C4_7  and  C5_8 
REMARK    8  A    between atoms: C8_11  and  N2_12 
REMARK    9  A    between atoms: N2_12  and  C9_13 
REMARK   10  A    between atoms: C19_27  and  O3_28 
ROOT
HETATM    1  C5  UNL     1      24.546   1.060  52.770  1.00  0.00    -0.000 A 
HETATM    2  C6  UNL     1      24.347   2.388  52.480  1.00  0.00     0.029 A 
HETATM    3  C7  UNL     1      23.106   2.912  52.339  1.00  0.00     0.039 A 
HETATM    4  C8  UNL     1      22.997   4.254  52.048  1.00  0.00     0.138 A 
HETATM    5  N3  UNL     1      21.754   4.722  51.917  1.00  0.00    -0.224 NA
HETATM    6  C16 UNL     1      20.638   4.001  52.046  1.00  0.00     0.235 A 
HETATM    7  N4  UNL     1      20.739   2.708  52.327  1.00  0.00    -0.241 NA
HETATM    8  C17 UNL     1      21.965   2.139  52.478  1.00  0.00     0.074 A 
HETATM    9  C18 UNL     1      22.120   0.807  52.768  1.00  0.00     0.069 A 
HETATM   10  C19 UNL     1      23.403   0.288  52.909  1.00  0.00     0.076 A 
ENDROOT
BRANCH   4  11
HETATM   11  N2  UNL     1      24.120   5.113  51.893  1.00  0.00    -0.363 N 
HETATM   12  H12 UNL     1      24.852   5.305  52.584  1.00  0.00     0.162 HD
BRANCH  11  13
HETATM   13  C9  UNL     1      24.289   5.825  50.619  1.00  0.00     0.131 C 
HETATM   14  C10 UNL     1      24.273   7.275  50.796  1.00  0.00     0.002 C 
HETATM   15  C11 UNL     1      24.713   8.334  50.144  1.00  0.00     0.001 C 
HETATM   16  C12 UNL     1      25.434   8.217  48.885  1.00  0.00     0.044 C 
HETATM   17  C13 UNL     1      26.127   7.204  48.379  1.00  0.00     0.137 C 
HETATM   18  F1  UNL     1      26.704   7.390  47.151  1.00  0.00    -0.204 F 
HETATM   19  C14 UNL     1      26.312   5.903  49.050  1.00  0.00     0.071 C 
HETATM   20 CL1  UNL     1      27.762   5.055  48.483  1.00  0.00    -0.081 Cl
HETATM   21  C15 UNL     1      25.540   5.327  49.988  1.00  0.00     0.029 C 
ENDBRANCH  11  13
ENDBRANCH   4  11
BRANCH   1  22
HETATM   22  C4  UNL     1      25.774   0.245  52.980  1.00  0.00     0.209 C 
BRANCH  22  23
HETATM   23  O2  UNL     1      25.913  -0.087  54.287  1.00  0.00    -0.384 OA
BRANCH  23  24
HETATM   24  C3  UNL     1      27.063   0.242  54.931  1.00  0.00     0.201 C 
BRANCH  24  25
HETATM   25  C2  UNL     1      28.235   0.669  54.111  1.00  0.00     0.169 C 
BRANCH  25  26
HETATM   26  C1  UNL     1      29.291  -0.408  54.078  1.00  0.00     0.300 C 
BRANCH  26  27
HETATM   27  N1  UNL     1      28.711  -1.622  53.579  1.00  0.00     0.080 N 
HETATM   28  H1  UNL     1      29.357  -2.413  53.734  1.00  0.00     0.312 HD
HETATM   29  H2  UNL     1      28.515  -1.516  52.573  1.00  0.00     0.312 HD
ENDBRANCH  26  27
ENDBRANCH  25  26
BRANCH  25  30
HETATM   30  O1  UNL     1      28.719   1.886  54.512  1.00  0.00    -0.392 OA
HETATM   31  H6  UNL     1      28.107   2.637  54.386  1.00  0.00     0.210 HD
ENDBRANCH  25  30
ENDBRANCH  24  25
ENDBRANCH  23  24
ENDBRANCH  22  23
ENDBRANCH   1  22
BRANCH  10  32
HETATM   32  O3  UNL     1      23.375  -1.090  53.204  1.00  0.00    -0.360 OA
HETATM   33  H20 UNL     1      22.864  -1.757  52.670  1.00  0.00     0.217 HD
ENDBRANCH  10  32
TORSDOF 10
ENDMDL
MODEL 6
REMARK VINA RESULT:      -7.8      2.748      5.386
REMARK  10 active torsions:
REMARK  status: ('A' for Active; 'I' for Inactive)
REMARK    1  A    between atoms: N1_1  and  C1_2 
REMARK    2  A    between atoms: C1_2  and  C2_3 
REMARK    3  A    between atoms: C2_3  and  O1_4 
REMARK    4  A    between atoms: C2_3  and  C3_5 
REMARK    5  A    between atoms: C3_5  and  O2_6 
REMARK    6  A    between atoms: O2_6  and  C4_7 
REMARK    7  A    between atoms: C4_7  and  C5_8 
REMARK    8  A    between atoms: C8_11  and  N2_12 
REMARK    9  A    between atoms: N2_12  and  C9_13 
REMARK   10  A    between atoms: C19_27  and  O3_28 
ROOT
HETATM    1  C5  UNL     1      21.341  -0.130  53.156  1.00  0.00    -0.000 A 
HETATM    2  C6  UNL     1      22.373   0.532  52.536  1.00  0.00     0.029 A 
HETATM    3  C7  UNL     1      23.662   0.368  52.920  1.00  0.00     0.039 A 
HETATM    4  C8  UNL     1      24.634   1.072  52.244  1.00  0.00     0.138 A 
HETATM    5  N3  UNL     1      25.888   0.877  52.660  1.00  0.00    -0.224 NA
HETATM    6  C16 UNL     1      26.255   0.071  53.657  1.00  0.00     0.235 A 
HETATM    7  N4  UNL     1      25.321  -0.608  54.310  1.00  0.00    -0.241 NA
HETATM    8  C17 UNL     1      24.014  -0.476  53.959  1.00  0.00     0.074 A 
HETATM    9  C18 UNL     1      23.013  -1.156  54.605  1.00  0.00     0.069 A 
HETATM   10  C19 UNL     1      21.696  -0.974  54.196  1.00  0.00     0.076 A 
ENDROOT
BRANCH   4  11
HETATM   11  N2  UNL     1      24.352   1.954  51.165  1.00  0.00    -0.363 N 
HETATM   12  H12 UNL     1      23.894   1.721  50.277  1.00  0.00     0.162 HD
BRANCH  11  13
HETATM   13  C9  UNL     1      24.743   3.365  51.290  1.00  0.00     0.131 C 
HETATM   14  C10 UNL     1      25.610   3.793  50.196  1.00  0.00     0.002 C 
HETATM   15  C11 UNL     1      25.944   4.928  49.614  1.00  0.00     0.001 C 
HETATM   16  C12 UNL     1      25.398   6.205  50.048  1.00  0.00     0.044 C 
HETATM   17  C13 UNL     1      24.278   6.486  50.705  1.00  0.00     0.137 C 
HETATM   18  F1  UNL     1      24.025   7.803  50.980  1.00  0.00    -0.204 F 
HETATM   19  C14 UNL     1      23.300   5.476  51.153  1.00  0.00     0.071 C 
HETATM   20 CL1  UNL     1      21.681   6.163  51.374  1.00  0.00    -0.081 Cl
HETATM   21  C15 UNL     1      23.497   4.169  51.398  1.00  0.00     0.029 C 
ENDBRANCH  11  13
ENDBRANCH   4  11
BRANCH   1  22
HETATM   22  C4  UNL     1      19.868  -0.137  52.935  1.00  0.00     0.209 C 
BRANCH  22  23
HETATM   23  O2  UNL     1      19.564   0.351  51.708  1.00  0.00    -0.384 OA
BRANCH  23  24
HETATM   24  C3  UNL     1      18.741   1.427  51.613  1.00  0.00     0.201 C 
BRANCH  24  25
HETATM   25  C2  UNL     1      19.345   2.750  51.270  1.00  0.00     0.169 C 
BRANCH  25  26
HETATM   26  C1  UNL     1      20.308   2.620  50.116  1.00  0.00     0.300 C 
BRANCH  26  27
HETATM   27  N1  UNL     1      19.743   1.748  49.127  1.00  0.00     0.080 N 
HETATM   28  H1  UNL     1      20.288   1.806  48.251  1.00  0.00     0.312 HD
HETATM   29  H2  UNL     1      18.764   2.019  48.954  1.00  0.00     0.312 HD
ENDBRANCH  26  27
ENDBRANCH  25  26
BRANCH  25  30
HETATM   30  O1  UNL     1      19.898   3.354  52.368  1.00  0.00    -0.392 OA
HETATM   31  H6  UNL     1      20.497   2.789  52.893  1.00  0.00     0.210 HD
ENDBRANCH  25  30
ENDBRANCH  24  25
ENDBRANCH  23  24
ENDBRANCH  22  23
ENDBRANCH   1  22
BRANCH  10  32
HETATM   32  O3  UNL     1      20.803  -1.747  54.966  1.00  0.00    -0.360 OA
HETATM   33  H20 UNL     1      20.858  -2.739  55.044  1.00  0.00     0.217 HD
ENDBRANCH  10  32
TORSDOF 10
ENDMDL
MODEL 7
REMARK VINA RESULT:      -7.7      5.121      7.129
REMARK  10 active torsions:
REMARK  status: ('A' for Active; 'I' for Inactive)
REMARK    1  A    between atoms: N1_1  and  C1_2 
REMARK    2  A    between atoms: C1_2  and  C2_3 
REMARK    3  A    between atoms: C2_3  and  O1_4 
REMARK    4  A    between atoms: C2_3  and  C3_5 
REMARK    5  A    between atoms: C3_5  and  O2_6 
REMARK    6  A    between atoms: O2_6  and  C4_7 
REMARK    7  A    between atoms: C4_7  and  C5_8 
REMARK    8  A    between atoms: C8_11  and  N2_12 
REMARK    9  A    between atoms: N2_12  and  C9_13 
REMARK   10  A    between atoms: C19_27  and  O3_28 
ROOT
HETATM    1  C5  UNL     1      26.001   3.138  50.450  1.00  0.00    -0.000 A 
HETATM    2  C6  UNL     1      26.669   4.221  49.932  1.00  0.00     0.029 A 
HETATM    3  C7  UNL     1      26.033   5.179  49.215  1.00  0.00     0.039 A 
HETATM    4  C8  UNL     1      26.778   6.231  48.732  1.00  0.00     0.138 A 
HETATM    5  N3  UNL     1      26.106   7.147  48.031  1.00  0.00    -0.224 NA
HETATM    6  C16 UNL     1      24.797   7.117  47.774  1.00  0.00     0.235 A 
HETATM    7  N4  UNL     1      24.076   6.105  48.238  1.00  0.00    -0.241 NA
HETATM    8  C17 UNL     1      24.672   5.121  48.963  1.00  0.00     0.074 A 
HETATM    9  C18 UNL     1      23.968   4.054  49.463  1.00  0.00     0.069 A 
HETATM   10  C19 UNL     1      24.640   3.082  50.196  1.00  0.00     0.076 A 
ENDROOT
BRANCH   4  11
HETATM   11  N2  UNL     1      28.177   6.362  48.951  1.00  0.00    -0.363 N 
HETATM   12  H12 UNL     1      28.658   6.444  49.853  1.00  0.00     0.162 HD
BRANCH  11  13
HETATM   13  C9  UNL     1      29.072   6.389  47.786  1.00  0.00     0.131 C 
HETATM   14  C10 UNL     1      29.575   7.732  47.513  1.00  0.00     0.002 C 
HETATM   15  C11 UNL     1      30.608   8.271  46.894  1.00  0.00     0.001 C 
HETATM   16  C12 UNL     1      31.628   7.458  46.249  1.00  0.00     0.044 C 
HETATM   17  C13 UNL     1      31.989   6.197  46.461  1.00  0.00     0.137 C 
HETATM   18  F1  UNL     1      32.997   5.694  45.685  1.00  0.00    -0.204 F 
HETATM   19  C14 UNL     1      31.376   5.315  47.473  1.00  0.00     0.071 C 
HETATM   20 CL1  UNL     1      32.461   4.002  47.963  1.00  0.00    -0.081 Cl
HETATM   21  C15 UNL     1      30.153   5.397  48.026  1.00  0.00     0.029 C 
ENDBRANCH  11  13
ENDBRANCH   4  11
BRANCH   1  22
HETATM   22  C4  UNL     1      26.446   1.970  51.260  1.00  0.00     0.209 C 
BRANCH  22  23
HETATM   23  O2  UNL     1      27.560   2.275  51.970  1.00  0.00    -0.384 OA
BRANCH  23  24
HETATM   24  C3  UNL     1      27.612   1.948  53.287  1.00  0.00     0.201 C 
BRANCH  24  25
HETATM   25  C2  UNL     1      28.916   1.485  53.849  1.00  0.00     0.169 C 
BRANCH  25  26
HETATM   26  C1  UNL     1      28.735   0.231  54.667  1.00  0.00     0.300 C 
BRANCH  26  27
HETATM   27  N1  UNL     1      27.344  -0.115  54.699  1.00  0.00     0.080 N 
HETATM   28  H1  UNL     1      27.215  -1.097  54.403  1.00  0.00     0.312 HD
HETATM   29  H2  UNL     1      26.822   0.515  54.073  1.00  0.00     0.312 HD
ENDBRANCH  26  27
ENDBRANCH  25  26
BRANCH  25  30
HETATM   30  O1  UNL     1      29.558   2.485  54.531  1.00  0.00    -0.392 OA
HETATM   31  H6  UNL     1      30.533   2.451  54.494  1.00  0.00     0.210 HD
ENDBRANCH  25  30
ENDBRANCH  24  25
ENDBRANCH  23  24
ENDBRANCH  22  23
ENDBRANCH   1  22
BRANCH  10  32
HETATM   32  O3  UNL     1      23.766   2.065  50.630  1.00  0.00    -0.360 OA
HETATM   33  H20 UNL     1      23.938   1.093  50.491  1.00  0.00     0.217 HD
ENDBRANCH  10  32
TORSDOF 10
ENDMDL
MODEL 8
REMARK VINA RESULT:      -7.6      1.396      1.555
REMARK  10 active torsions:
REMARK  status: ('A' for Active; 'I' for Inactive)
REMARK    1  A    between atoms: N1_1  and  C1_2 
REMARK    2  A    between atoms: C1_2  and  C2_3 
REMARK    3  A    between atoms: C2_3  and  O1_4 
REMARK    4  A    between atoms: C2_3  and  C3_5 
REMARK    5  A    between atoms: C3_5  and  O2_6 
REMARK    6  A    between atoms: O2_6  and  C4_7 
REMARK    7  A    between atoms: C4_7  and  C5_8 
REMARK    8  A    between atoms: C8_11  and  N2_12 
REMARK    9  A    between atoms: N2_12  and  C9_13 
REMARK   10  A    between atoms: C19_27  and  O3_28 
ROOT
HETATM    1  C5  UNL     1      24.336   0.307  52.742  1.00  0.00    -0.000 A 
HETATM    2  C6  UNL     1      23.767   1.068  51.749  1.00  0.00     0.029 A 
HETATM    3  C7  UNL     1      22.442   1.351  51.735  1.00  0.00     0.039 A 
HETATM    4  C8  UNL     1      21.954   2.121  50.702  1.00  0.00     0.138 A 
HETATM    5  N3  UNL     1      20.643   2.371  50.731  1.00  0.00    -0.224 NA
HETATM    6  C16 UNL     1      19.795   1.940  51.666  1.00  0.00     0.235 A 
HETATM    7  N4  UNL     1      20.261   1.199  52.663  1.00  0.00    -0.241 NA
HETATM    8  C17 UNL     1      21.584   0.890  52.719  1.00  0.00     0.074 A 
HETATM    9  C18 UNL     1      22.113   0.127  53.729  1.00  0.00     0.069 A 
HETATM   10  C19 UNL     1      23.476  -0.153  53.726  1.00  0.00     0.076 A 
ENDROOT
BRANCH   4  11
HETATM   11  N2  UNL     1      22.771   2.633  49.657  1.00  0.00    -0.363 N 
HETATM   12  H12 UNL     1      23.134   2.122  48.845  1.00  0.00     0.162 HD
BRANCH  11  13
HETATM   13  C9  UNL     1      23.167   4.048  49.704  1.00  0.00     0.131 C 
HETATM   14  C10 UNL     1      22.929   4.640  51.017  1.00  0.00     0.002 C 
HETATM   15  C11 UNL     1      23.384   5.663  51.714  1.00  0.00     0.001 C 
HETATM   16  C12 UNL     1      24.408   6.555  51.190  1.00  0.00     0.044 C 
HETATM   17  C13 UNL     1      25.326   6.359  50.250  1.00  0.00     0.137 C 
HETATM   18  F1  UNL     1      26.165   7.401  49.966  1.00  0.00    -0.204 F 
HETATM   19  C14 UNL     1      25.494   5.098  49.502  1.00  0.00     0.071 C 
HETATM   20 CL1  UNL     1      27.133   4.919  48.851  1.00  0.00    -0.081 Cl
HETATM   21  C15 UNL     1      24.588   4.132  49.273  1.00  0.00     0.029 C 
ENDBRANCH  11  13
ENDBRANCH   4  11
BRANCH   1  22
HETATM   22  C4  UNL     1      25.733  -0.139  52.996  1.00  0.00     0.209 C 
BRANCH  22  23
HETATM   23  O2  UNL     1      26.269   0.534  54.044  1.00  0.00    -0.384 OA
BRANCH  23  24
HETATM   24  C3  UNL     1      27.446   0.105  54.570  1.00  0.00     0.201 C 
BRANCH  24  25
HETATM   25  C2  UNL     1      28.714   0.667  54.014  1.00  0.00     0.169 C 
BRANCH  25  26
HETATM   26  C1  UNL     1      29.697  -0.433  53.698  1.00  0.00     0.300 C 
BRANCH  26  27
HETATM   27  N1  UNL     1      28.987  -1.670  53.543  1.00  0.00     0.080 N 
HETATM   28  H1  UNL     1      28.983  -1.954  52.550  1.00  0.00     0.312 HD
HETATM   29  H2  UNL     1      28.022  -1.553  53.883  1.00  0.00     0.312 HD
ENDBRANCH  26  27
ENDBRANCH  25  26
BRANCH  25  30
HETATM   30  O1  UNL     1      29.236   1.639  54.825  1.00  0.00    -0.392 OA
HETATM   31  H6  UNL     1      29.833   1.316  55.527  1.00  0.00     0.210 HD
ENDBRANCH  25  30
ENDBRANCH  24  25
ENDBRANCH  23  24
ENDBRANCH  22  23
ENDBRANCH   1  22
BRANCH  10  32
HETATM   32  O3  UNL     1      23.844  -0.946  54.832  1.00  0.00    -0.360 OA
HETATM   33  H20 UNL     1      23.445  -1.837  55.029  1.00  0.00     0.217 HD
ENDBRANCH  10  32
TORSDOF 10
ENDMDL
MODEL 9
REMARK VINA RESULT:      -7.5      3.895      6.598
REMARK  10 active torsions:
REMARK  status: ('A' for Active; 'I' for Inactive)
REMARK    1  A    between atoms: N1_1  and  C1_2 
REMARK    2  A    between atoms: C1_2  and  C2_3 
REMARK    3  A    between atoms: C2_3  and  O1_4 
REMARK    4  A    between atoms: C2_3  and  C3_5 
REMARK    5  A    between atoms: C3_5  and  O2_6 
REMARK    6  A    between atoms: O2_6  and  C4_7 
REMARK    7  A    between atoms: C4_7  and  C5_8 
REMARK    8  A    between atoms: C8_11  and  N2_12 
REMARK    9  A    between atoms: N2_12  and  C9_13 
REMARK   10  A    between atoms: C19_27  and  O3_28 
ROOT
HETATM    1  C5  UNL     1      24.092   1.632  51.775  1.00  0.00    -0.000 A 
HETATM    2  C6  UNL     1      22.948   1.239  52.427  1.00  0.00     0.029 A 
HETATM    3  C7  UNL     1      22.972   0.327  53.428  1.00  0.00     0.039 A 
HETATM    4  C8  UNL     1      21.778  -0.010  54.028  1.00  0.00     0.138 A 
HETATM    5  N3  UNL     1      21.854  -0.913  55.008  1.00  0.00    -0.224 NA
HETATM    6  C16 UNL     1      22.975  -1.497  55.437  1.00  0.00     0.235 A 
HETATM    7  N4  UNL     1      24.126  -1.174  54.862  1.00  0.00    -0.241 NA
HETATM    8  C17 UNL     1      24.151  -0.263  53.853  1.00  0.00     0.074 A 
HETATM    9  C18 UNL     1      25.316   0.102  53.227  1.00  0.00     0.069 A 
HETATM   10  C19 UNL     1      25.271   1.040  52.201  1.00  0.00     0.076 A 
ENDROOT
BRANCH   4  11
HETATM   11  N2  UNL     1      20.529   0.554  53.650  1.00  0.00    -0.363 N 
HETATM   12  H12 UNL     1      20.118   1.431  53.986  1.00  0.00     0.162 HD
BRANCH  11  13
HETATM   13  C9  UNL     1      19.699  -0.166  52.675  1.00  0.00     0.131 C 
HETATM   14  C10 UNL     1      18.510  -0.749  53.290  1.00  0.00     0.002 C 
HETATM   15  C11 UNL     1      17.315  -1.148  52.900  1.00  0.00     0.001 C 
HETATM   16  C12 UNL     1      16.890  -1.056  51.511  1.00  0.00     0.044 C 
HETATM   17  C13 UNL     1      17.316  -0.271  50.528  1.00  0.00     0.137 C 
HETATM   18  F1  UNL     1      16.716  -0.416  49.306  1.00  0.00    -0.204 F 
HETATM   19  C14 UNL     1      18.384   0.736  50.670  1.00  0.00     0.071 C 
HETATM   20 CL1  UNL     1      18.262   2.020  49.454  1.00  0.00    -0.081 Cl
HETATM   21  C15 UNL     1      19.383   0.778  51.570  1.00  0.00     0.029 C 
ENDBRANCH  11  13
ENDBRANCH   4  11
BRANCH   1  22
HETATM   22  C4  UNL     1      24.344   2.597  50.670  1.00  0.00     0.209 C 
BRANCH  22  23
HETATM   23  O2  UNL     1      24.762   3.790  51.161  1.00  0.00    -0.384 OA
BRANCH  23  24
HETATM   24  C3  UNL     1      23.845   4.766  51.390  1.00  0.00     0.201 C 
BRANCH  24  25
HETATM   25  C2  UNL     1      24.215   6.174  51.058  1.00  0.00     0.169 C 
BRANCH  25  26
HETATM   26  C1  UNL     1      25.360   6.214  50.076  1.00  0.00     0.300 C 
BRANCH  26  27
HETATM   27  N1  UNL     1      24.908   5.728  48.804  1.00  0.00     0.080 N 
HETATM   28  H1  UNL     1      23.896   5.909  48.695  1.00  0.00     0.312 HD
HETATM   29  H2  UNL     1      25.096   4.717  48.739  1.00  0.00     0.312 HD
ENDBRANCH  26  27
ENDBRANCH  25  26
BRANCH  25  30
HETATM   30  O1  UNL     1      24.446   6.917  52.185  1.00  0.00    -0.392 OA
HETATM   31  H6  UNL     1      23.895   6.681  52.956  1.00  0.00     0.210 HD
ENDBRANCH  25  30
ENDBRANCH  24  25
ENDBRANCH  23  24
ENDBRANCH  22  23
ENDBRANCH   1  22
BRANCH  10  32
HETATM   32  O3  UNL     1      26.553   1.294  51.675  1.00  0.00    -0.360 OA
HETATM   33  H20 UNL     1      27.398   1.113  52.170  1.00  0.00     0.217 HD
ENDBRANCH  10  32
TORSDOF 10
ENDMDL
