MODEL 1
REMARK VINA RESULT:      -8.5      0.000      0.000
REMARK  4 active torsions:
REMARK  status: ('A' for Active; 'I' for Inactive)
REMARK    1  A    between atoms: C1_2  and  C2_3 
REMARK       I    between atoms: C1_2  and  N1_10 
REMARK    2  A    between atoms: C2_3  and  C3_4 
REMARK    3  A    between atoms: N1_10  and  C9_11 
REMARK    4  A    between atoms: C13_15  and  C14_16 
ROOT
HETATM    1  C9  UNL     1      23.790   1.750  51.751  1.00  0.00     0.035 A 
HETATM    2  C10 UNL     1      22.665   0.957  51.864  1.00  0.00     0.029 A 
HETATM    3  C11 UNL     1      22.365  -0.120  52.609  1.00  0.00     0.003 A 
HETATM    4  C12 UNL     1      23.475  -0.437  53.401  1.00  0.00     0.011 A 
HETATM    5  C13 UNL     1      24.688   0.212  53.448  1.00  0.00    -0.012 A 
HETATM    6  C18 UNL     1      24.796   1.323  52.585  1.00  0.00     0.040 A 
ENDROOT
BRANCH   1   7
HETATM    7  N1  UNL     1      23.866   2.848  50.879  1.00  0.00    -0.327 N 
HETATM    8  C1  UNL     1      23.927   4.255  50.779  1.00  0.00     0.226 C 
HETATM    9  O1  UNL     1      23.895   4.969  51.814  1.00  0.00    -0.273 OA
HETATM   10  H8  UNL     1      23.859   2.182  50.042  1.00  0.00     0.169 HD
BRANCH   8  11
HETATM   11  C2  UNL     1      24.031   4.643  49.322  1.00  0.00     0.141 C 
BRANCH  11  12
HETATM   12  C3  UNL     1      25.362   5.125  48.993  1.00  0.00    -0.050 A 
HETATM   13  C4  UNL     1      26.568   4.501  49.014  1.00  0.00     0.007 A 
HETATM   14  C5  UNL     1      27.842   4.843  48.720  1.00  0.00     0.001 A 
HETATM   15  C6  UNL     1      27.848   6.142  48.306  1.00  0.00     0.000 A 
HETATM   16  C7  UNL     1      26.786   7.057  48.170  1.00  0.00     0.001 A 
HETATM   17  C8  UNL     1      25.561   6.447  48.543  1.00  0.00     0.007 A 
ENDBRANCH  11  12
ENDBRANCH   8  11
ENDBRANCH   1   7
BRANCH   5  18
HETATM   18  C14 UNL     1      25.751  -0.259  54.360  1.00  0.00     0.251 A 
HETATM   19  N2  UNL     1      26.387   0.850  55.098  1.00  0.00    -0.235 NA
HETATM   20  C15 UNL     1      27.489   0.452  54.563  1.00  0.00     0.172 A 
HETATM   21  S1  UNL     1      29.288   0.509  54.243  1.00  0.00    -0.063 SA
HETATM   22  N3  UNL     1      26.983  -0.682  53.807  1.00  0.00    -0.308 N 
HETATM   23  C16 UNL     1      29.236  -0.954  53.164  1.00  0.00     0.070 A 
HETATM   24  C17 UNL     1      28.002  -1.346  53.114  1.00  0.00     0.103 A 
ENDBRANCH   5  18
TORSDOF 4
ENDMDL
MODEL 2
REMARK VINA RESULT:      -8.2      3.231      7.450
REMARK  4 active torsions:
REMARK  status: ('A' for Active; 'I' for Inactive)
REMARK    1  A    between atoms: C1_2  and  C2_3 
REMARK       I    between atoms: C1_2  and  N1_10 
REMARK    2  A    between atoms: C2_3  and  C3_4 
REMARK    3  A    between atoms: N1_10  and  C9_11 
REMARK    4  A    between atoms: C13_15  and  C14_16 
ROOT
HETATM    1  C9  UNL     1      26.135   3.929  49.997  1.00  0.00     0.035 A 
HETATM    2  C10 UNL     1      25.104   4.831  49.821  1.00  0.00     0.029 A 
HETATM    3  C11 UNL     1      24.999   5.997  49.162  1.00  0.00     0.003 A 
HETATM    4  C12 UNL     1      26.232   6.284  48.565  1.00  0.00     0.011 A 
HETATM    5  C13 UNL     1      27.385   5.532  48.612  1.00  0.00    -0.012 A 
HETATM    6  C18 UNL     1      27.281   4.338  49.357  1.00  0.00     0.040 A 
ENDROOT
BRANCH   1   7
HETATM    7  N1  UNL     1      25.999   2.750  50.749  1.00  0.00    -0.327 N 
HETATM    8  C1  UNL     1      25.503   2.179  51.941  1.00  0.00     0.226 C 
HETATM    9  O1  UNL     1      24.928   2.896  52.799  1.00  0.00    -0.273 OA
HETATM   10  H8  UNL     1      26.523   2.208  49.990  1.00  0.00     0.169 HD
BRANCH   8  11
HETATM   11  C2  UNL     1      25.787   0.694  51.933  1.00  0.00     0.141 C 
BRANCH  11  12
HETATM   12  C3  UNL     1      27.049   0.390  52.584  1.00  0.00    -0.050 A 
HETATM   13  C4  UNL     1      27.675  -0.794  52.812  1.00  0.00     0.007 A 
HETATM   14  C5  UNL     1      28.835  -1.183  53.385  1.00  0.00     0.001 A 
HETATM   15  C6  UNL     1      29.491  -0.069  53.816  1.00  0.00     0.000 A 
HETATM   16  C7  UNL     1      29.124   1.289  53.735  1.00  0.00     0.001 A 
HETATM   17  C8  UNL     1      27.866   1.421  53.092  1.00  0.00     0.007 A 
ENDBRANCH  11  12
ENDBRANCH   8  11
ENDBRANCH   1   7
BRANCH   5  18
HETATM   18  C14 UNL     1      28.601   5.987  47.907  1.00  0.00     0.251 A 
HETATM   19  N2  UNL     1      29.769   5.134  48.199  1.00  0.00    -0.235 NA
HETATM   20  C15 UNL     1      30.332   6.210  48.628  1.00  0.00     0.172 A 
HETATM   21  S1  UNL     1      31.697   7.188  49.353  1.00  0.00    -0.063 SA
HETATM   22  N3  UNL     1      29.258   7.153  48.367  1.00  0.00    -0.308 N 
HETATM   23  C16 UNL     1      30.763   8.745  49.242  1.00  0.00     0.070 A 
HETATM   24  C17 UNL     1      29.607   8.459  48.729  1.00  0.00     0.103 A 
ENDBRANCH   5  18
TORSDOF 4
ENDMDL
MODEL 3
REMARK VINA RESULT:      -8.2      4.073      6.859
REMARK  4 active torsions:
REMARK  status: ('A' for Active; 'I' for Inactive)
REMARK    1  A    between atoms: C1_2  and  C2_3 
REMARK       I    between atoms: C1_2  and  N1_10 
REMARK    2  A    between atoms: C2_3  and  C3_4 
REMARK    3  A    between atoms: N1_10  and  C9_11 
REMARK    4  A    between atoms: C13_15  and  C14_16 
ROOT
HETATM    1  C9  UNL     1      22.765  -0.357  53.249  1.00  0.00     0.035 A 
HETATM    2  C10 UNL     1      21.822  -1.216  53.778  1.00  0.00     0.029 A 
HETATM    3  C11 UNL     1      20.504  -1.107  54.018  1.00  0.00     0.003 A 
HETATM    4  C12 UNL     1      20.084   0.169  53.626  1.00  0.00     0.011 A 
HETATM    5  C13 UNL     1      20.849   1.176  53.080  1.00  0.00    -0.012 A 
HETATM    6  C18 UNL     1      22.212   0.855  52.908  1.00  0.00     0.040 A 
ENDROOT
BRANCH   1   7
HETATM    7  N1  UNL     1      24.116  -0.707  53.095  1.00  0.00    -0.327 N 
HETATM    8  C1  UNL     1      25.324  -1.014  53.760  1.00  0.00     0.226 C 
HETATM    9  O1  UNL     1      25.382  -0.995  55.016  1.00  0.00    -0.273 OA
HETATM   10  H8  UNL     1      24.002  -0.675  52.032  1.00  0.00     0.169 HD
BRANCH   8  11
HETATM   11  C2  UNL     1      26.386  -1.333  52.732  1.00  0.00     0.141 C 
BRANCH  11  12
HETATM   12  C3  UNL     1      27.665  -0.741  53.088  1.00  0.00    -0.050 A 
HETATM   13  C4  UNL     1      28.867  -1.310  53.363  1.00  0.00     0.007 A 
HETATM   14  C5  UNL     1      30.100  -0.863  53.685  1.00  0.00     0.001 A 
HETATM   15  C6  UNL     1      30.061   0.499  53.723  1.00  0.00     0.000 A 
HETATM   16  C7  UNL     1      28.991   1.384  53.489  1.00  0.00     0.001 A 
HETATM   17  C8  UNL     1      27.814   0.659  53.173  1.00  0.00     0.007 A 
ENDBRANCH  11  12
ENDBRANCH   8  11
ENDBRANCH   1   7
BRANCH   5  18
HETATM   18  C14 UNL     1      20.230   2.466  52.712  1.00  0.00     0.251 A 
HETATM   19  N2  UNL     1      19.528   2.401  51.417  1.00  0.00    -0.235 NA
HETATM   20  C15 UNL     1      20.317   3.349  51.045  1.00  0.00     0.172 A 
HETATM   21  S1  UNL     1      20.994   4.572  49.867  1.00  0.00    -0.063 SA
HETATM   22  N3  UNL     1      21.066   3.522  52.279  1.00  0.00    -0.308 N 
HETATM   23  C16 UNL     1      22.185   5.218  51.080  1.00  0.00     0.070 A 
HETATM   24  C17 UNL     1      22.020   4.540  52.173  1.00  0.00     0.103 A 
ENDBRANCH   5  18
TORSDOF 4
ENDMDL
MODEL 4
REMARK VINA RESULT:      -8.1      3.336      5.108
REMARK  4 active torsions:
REMARK  status: ('A' for Active; 'I' for Inactive)
REMARK    1  A    between atoms: C1_2  and  C2_3 
REMARK       I    between atoms: C1_2  and  N1_10 
REMARK    2  A    between atoms: C2_3  and  C3_4 
REMARK    3  A    between atoms: N1_10  and  C9_11 
REMARK    4  A    between atoms: C13_15  and  C14_16 
ROOT
HETATM    1  C9  UNL     1      24.578   1.081  52.151  1.00  0.00     0.035 A 
HETATM    2  C10 UNL     1      25.160   0.126  52.963  1.00  0.00     0.029 A 
HETATM    3  C11 UNL     1      24.692  -0.661  53.946  1.00  0.00     0.003 A 
HETATM    4  C12 UNL     1      23.329  -0.392  54.120  1.00  0.00     0.011 A 
HETATM    5  C13 UNL     1      22.555   0.512  53.429  1.00  0.00    -0.012 A 
HETATM    6  C18 UNL     1      23.242   1.238  52.433  1.00  0.00     0.040 A 
ENDROOT
BRANCH   1   7
HETATM    7  N1  UNL     1      25.293   1.789  51.172  1.00  0.00    -0.327 N 
HETATM    8  C1  UNL     1      26.473   2.508  50.882  1.00  0.00     0.226 C 
HETATM    9  O1  UNL     1      27.342   2.691  51.772  1.00  0.00    -0.273 OA
HETATM   10  H8  UNL     1      24.500   1.621  50.474  1.00  0.00     0.169 HD
BRANCH   8  11
HETATM   11  C2  UNL     1      26.444   2.942  49.433  1.00  0.00     0.141 C 
BRANCH  11  12
HETATM   12  C3  UNL     1      26.542   4.386  49.308  1.00  0.00    -0.050 A 
HETATM   13  C4  UNL     1      25.758   5.380  49.801  1.00  0.00     0.007 A 
HETATM   14  C5  UNL     1      25.766   6.731  49.759  1.00  0.00     0.001 A 
HETATM   15  C6  UNL     1      26.848   7.128  49.032  1.00  0.00     0.000 A 
HETATM   16  C7  UNL     1      27.844   6.363  48.395  1.00  0.00     0.001 A 
HETATM   17  C8  UNL     1      27.602   4.979  48.592  1.00  0.00     0.007 A 
ENDBRANCH  11  12
ENDBRANCH   8  11
ENDBRANCH   1   7
BRANCH   5  18
HETATM   18  C14 UNL     1      21.118   0.656  53.742  1.00  0.00     0.251 A 
HETATM   19  N2  UNL     1      20.397  -0.629  53.669  1.00  0.00    -0.235 NA
HETATM   20  C15 UNL     1      19.655  -0.058  52.785  1.00  0.00     0.172 A 
HETATM   21  S1  UNL     1      18.289   0.020  51.572  1.00  0.00    -0.063 SA
HETATM   22  N3  UNL     1      20.270   1.259  52.783  1.00  0.00    -0.308 N 
HETATM   23  C16 UNL     1      18.622   1.764  51.173  1.00  0.00     0.070 A 
HETATM   24  C17 UNL     1      19.633   2.133  51.894  1.00  0.00     0.103 A 
ENDBRANCH   5  18
TORSDOF 4
ENDMDL
MODEL 5
REMARK VINA RESULT:      -8.0      4.379      7.067
REMARK  4 active torsions:
REMARK  status: ('A' for Active; 'I' for Inactive)
REMARK    1  A    between atoms: C1_2  and  C2_3 
REMARK       I    between atoms: C1_2  and  N1_10 
REMARK    2  A    between atoms: C2_3  and  C3_4 
REMARK    3  A    between atoms: N1_10  and  C9_11 
REMARK    4  A    between atoms: C13_15  and  C14_16 
ROOT
HETATM    1  C9  UNL     1      23.337   0.209  53.536  1.00  0.00     0.035 A 
HETATM    2  C10 UNL     1      22.966  -0.864  54.324  1.00  0.00     0.029 A 
HETATM    3  C11 UNL     1      21.787  -1.445  54.599  1.00  0.00     0.003 A 
HETATM    4  C12 UNL     1      20.781  -0.759  53.907  1.00  0.00     0.011 A 
HETATM    5  C13 UNL     1      20.923   0.327  53.074  1.00  0.00    -0.012 A 
HETATM    6  C18 UNL     1      22.250   0.782  52.918  1.00  0.00     0.040 A 
ENDROOT
BRANCH   1   7
HETATM    7  N1  UNL     1      24.667   0.638  53.406  1.00  0.00    -0.327 N 
HETATM    8  C1  UNL     1      25.625   1.220  52.547  1.00  0.00     0.226 C 
HETATM    9  O1  UNL     1      25.319   1.528  51.367  1.00  0.00    -0.273 OA
HETATM   10  H8  UNL     1      24.865   0.324  54.409  1.00  0.00     0.169 HD
BRANCH   8  11
HETATM   11  C2  UNL     1      26.932   1.369  53.293  1.00  0.00     0.141 C 
BRANCH  11  12
HETATM   12  C3  UNL     1      27.702   0.137  53.269  1.00  0.00    -0.050 A 
HETATM   13  C4  UNL     1      27.350  -1.130  52.927  1.00  0.00     0.007 A 
HETATM   14  C5  UNL     1      27.978  -2.324  52.855  1.00  0.00     0.001 A 
HETATM   15  C6  UNL     1      29.277  -2.145  53.226  1.00  0.00     0.000 A 
HETATM   16  C7  UNL     1      29.953  -0.977  53.631  1.00  0.00     0.001 A 
HETATM   17  C8  UNL     1      29.068   0.131  53.620  1.00  0.00     0.007 A 
ENDBRANCH  11  12
ENDBRANCH   8  11
ENDBRANCH   1   7
BRANCH   5  18
HETATM   18  C14 UNL     1      19.742   0.920  52.413  1.00  0.00     0.251 A 
HETATM   19  N2  UNL     1      19.523   0.371  51.061  1.00  0.00    -0.235 NA
HETATM   20  C15 UNL     1      19.626   1.588  50.651  1.00  0.00     0.172 A 
HETATM   21  S1  UNL     1      19.647   2.913  49.390  1.00  0.00    -0.063 SA
HETATM   22  N3  UNL     1      19.828   2.247  51.930  1.00  0.00    -0.308 N 
HETATM   23  C16 UNL     1      19.903   4.216  50.633  1.00  0.00     0.070 A 
HETATM   24  C17 UNL     1      19.957   3.634  51.789  1.00  0.00     0.103 A 
ENDBRANCH   5  18
TORSDOF 4
ENDMDL
MODEL 6
REMARK VINA RESULT:      -7.8      4.248      6.845
REMARK  4 active torsions:
REMARK  status: ('A' for Active; 'I' for Inactive)
REMARK    1  A    between atoms: C1_2  and  C2_3 
REMARK       I    between atoms: C1_2  and  N1_10 
REMARK    2  A    between atoms: C2_3  and  C3_4 
REMARK    3  A    between atoms: N1_10  and  C9_11 
REMARK    4  A    between atoms: C13_15  and  C14_16 
ROOT
HETATM    1  C9  UNL     1      28.161   5.778  48.293  1.00  0.00     0.035 A 
HETATM    2  C10 UNL     1      27.254   6.816  48.202  1.00  0.00     0.029 A 
HETATM    3  C11 UNL     1      25.949   6.931  48.500  1.00  0.00     0.003 A 
HETATM    4  C12 UNL     1      25.495   5.703  48.994  1.00  0.00     0.011 A 
HETATM    5  C13 UNL     1      26.220   4.546  49.166  1.00  0.00    -0.012 A 
HETATM    6  C18 UNL     1      27.577   4.638  48.794  1.00  0.00     0.040 A 
ENDROOT
BRANCH   1   7
HETATM    7  N1  UNL     1      29.506   5.903  47.909  1.00  0.00    -0.327 N 
HETATM    8  C1  UNL     1      30.850   5.836  48.335  1.00  0.00     0.226 C 
HETATM    9  O1  UNL     1      31.126   5.582  49.536  1.00  0.00    -0.273 OA
HETATM   10  H8  UNL     1      29.198   6.143  46.913  1.00  0.00     0.169 HD
BRANCH   8  11
HETATM   11  C2  UNL     1      31.757   6.102  47.155  1.00  0.00     0.141 C 
BRANCH  11  12
HETATM   12  C3  UNL     1      32.656   4.987  46.912  1.00  0.00    -0.050 A 
HETATM   13  C4  UNL     1      33.979   4.958  46.602  1.00  0.00     0.007 A 
HETATM   14  C5  UNL     1      34.899   3.995  46.374  1.00  0.00     0.001 A 
HETATM   15  C6  UNL     1      34.288   2.784  46.504  1.00  0.00     0.000 A 
HETATM   16  C7  UNL     1      32.952   2.469  46.816  1.00  0.00     0.001 A 
HETATM   17  C8  UNL     1      32.199   3.657  47.006  1.00  0.00     0.007 A 
ENDBRANCH  11  12
ENDBRANCH   8  11
ENDBRANCH   1   7
BRANCH   5  18
HETATM   18  C14 UNL     1      25.574   3.335  49.716  1.00  0.00     0.251 A 
HETATM   19  N2  UNL     1      24.274   3.632  50.348  1.00  0.00    -0.235 NA
HETATM   20  C15 UNL     1      24.782   3.126  51.417  1.00  0.00     0.172 A 
HETATM   21  S1  UNL     1      24.770   2.611  53.172  1.00  0.00    -0.063 SA
HETATM   22  N3  UNL     1      26.093   2.766  50.902  1.00  0.00    -0.308 N 
HETATM   23  C16 UNL     1      26.466   1.957  53.086  1.00  0.00     0.070 A 
HETATM   24  C17 UNL     1      26.888   2.153  51.877  1.00  0.00     0.103 A 
ENDBRANCH   5  18
TORSDOF 4
ENDMDL
MODEL 7
REMARK VINA RESULT:      -7.8      3.133      7.453
REMARK  4 active torsions:
REMARK  status: ('A' for Active; 'I' for Inactive)
REMARK    1  A    between atoms: C1_2  and  C2_3 
REMARK       I    between atoms: C1_2  and  N1_10 
REMARK    2  A    between atoms: C2_3  and  C3_4 
REMARK    3  A    between atoms: N1_10  and  C9_11 
REMARK    4  A    between atoms: C13_15  and  C14_16 
ROOT
HETATM    1  C9  UNL     1      25.493   5.118  49.992  1.00  0.00     0.035 A 
HETATM    2  C10 UNL     1      24.977   6.384  50.197  1.00  0.00     0.029 A 
HETATM    3  C11 UNL     1      25.378   7.614  49.836  1.00  0.00     0.003 A 
HETATM    4  C12 UNL     1      26.571   7.499  49.112  1.00  0.00     0.011 A 
HETATM    5  C13 UNL     1      27.256   6.348  48.796  1.00  0.00    -0.012 A 
HETATM    6  C18 UNL     1      26.661   5.159  49.269  1.00  0.00     0.040 A 
ENDROOT
BRANCH   1   7
HETATM    7  N1  UNL     1      24.877   3.955  50.481  1.00  0.00    -0.327 N 
HETATM    8  C1  UNL     1      24.102   3.395  51.520  1.00  0.00     0.226 C 
HETATM    9  O1  UNL     1      23.742   4.100  52.497  1.00  0.00    -0.273 OA
HETATM   10  H8  UNL     1      25.243   3.409  49.637  1.00  0.00     0.169 HD
BRANCH   8  11
HETATM   11  C2  UNL     1      23.839   1.938  51.210  1.00  0.00     0.141 C 
BRANCH  11  12
HETATM   12  C3  UNL     1      24.688   1.064  52.000  1.00  0.00    -0.050 A 
HETATM   13  C4  UNL     1      26.023   0.818  51.936  1.00  0.00     0.007 A 
HETATM   14  C5  UNL     1      26.901   0.051  52.618  1.00  0.00     0.001 A 
HETATM   15  C6  UNL     1      26.218  -0.610  53.595  1.00  0.00     0.000 A 
HETATM   16  C7  UNL     1      24.850  -0.577  53.928  1.00  0.00     0.001 A 
HETATM   17  C8  UNL     1      24.154   0.302  53.060  1.00  0.00     0.007 A 
ENDBRANCH  11  12
ENDBRANCH   8  11
ENDBRANCH   1   7
BRANCH   5  18
HETATM   18  C14 UNL     1      28.504   6.415  48.008  1.00  0.00     0.251 A 
HETATM   19  N2  UNL     1      29.313   5.188  48.136  1.00  0.00    -0.235 NA
HETATM   20  C15 UNL     1      30.247   5.959  48.575  1.00  0.00     0.172 A 
HETATM   21  S1  UNL     1      31.914   6.334  49.225  1.00  0.00    -0.063 SA
HETATM   22  N3  UNL     1      29.559   7.235  48.473  1.00  0.00    -0.308 N 
HETATM   23  C16 UNL     1      31.583   8.122  49.298  1.00  0.00     0.070 A 
HETATM   24  C17 UNL     1      30.370   8.301  48.880  1.00  0.00     0.103 A 
ENDBRANCH   5  18
TORSDOF 4
ENDMDL
MODEL 8
REMARK VINA RESULT:      -7.8      2.074      2.793
REMARK  4 active torsions:
REMARK  status: ('A' for Active; 'I' for Inactive)
REMARK    1  A    between atoms: C1_2  and  C2_3 
REMARK       I    between atoms: C1_2  and  N1_10 
REMARK    2  A    between atoms: C2_3  and  C3_4 
REMARK    3  A    between atoms: N1_10  and  C9_11 
REMARK    4  A    between atoms: C13_15  and  C14_16 
ROOT
HETATM    1  C9  UNL     1      22.070   1.040  52.879  1.00  0.00     0.035 A 
HETATM    2  C10 UNL     1      21.216   0.444  53.786  1.00  0.00     0.029 A 
HETATM    3  C11 UNL     1      21.379  -0.504  54.723  1.00  0.00     0.003 A 
HETATM    4  C12 UNL     1      22.715  -0.920  54.709  1.00  0.00     0.011 A 
HETATM    5  C13 UNL     1      23.728  -0.466  53.896  1.00  0.00    -0.012 A 
HETATM    6  C18 UNL     1      23.346   0.536  52.979  1.00  0.00     0.040 A 
ENDROOT
BRANCH   1   7
HETATM    7  N1  UNL     1      21.656   2.033  51.977  1.00  0.00    -0.327 N 
HETATM    8  C1  UNL     1      20.760   3.102  51.751  1.00  0.00     0.226 C 
HETATM    9  O1  UNL     1      19.904   3.410  52.619  1.00  0.00    -0.273 OA
HETATM   10  H8  UNL     1      22.388   1.697  51.273  1.00  0.00     0.169 HD
BRANCH   8  11
HETATM   11  C2  UNL     1      21.047   3.707  50.395  1.00  0.00     0.141 C 
BRANCH  11  12
HETATM   12  C3  UNL     1      22.335   4.379  50.373  1.00  0.00    -0.050 A 
HETATM   13  C4  UNL     1      22.837   5.372  51.152  1.00  0.00     0.007 A 
HETATM   14  C5  UNL     1      24.005   6.048  51.227  1.00  0.00     0.001 A 
HETATM   15  C6  UNL     1      24.838   5.566  50.262  1.00  0.00     0.000 A 
HETATM   16  C7  UNL     1      24.629   4.554  49.305  1.00  0.00     0.001 A 
HETATM   17  C8  UNL     1      23.327   4.010  49.441  1.00  0.00     0.007 A 
ENDBRANCH  11  12
ENDBRANCH   8  11
ENDBRANCH   1   7
BRANCH   5  18
HETATM   18  C14 UNL     1      25.094  -1.015  54.028  1.00  0.00     0.251 A 
HETATM   19  N2  UNL     1      25.661  -0.788  55.371  1.00  0.00    -0.235 NA
HETATM   20  C15 UNL     1      26.610  -0.163  54.763  1.00  0.00     0.172 A 
HETATM   21  S1  UNL     1      28.169   0.788  54.667  1.00  0.00    -0.063 SA
HETATM   22  N3  UNL     1      26.163  -0.341  53.392  1.00  0.00    -0.308 N 
HETATM   23  C16 UNL     1      28.118   0.863  52.851  1.00  0.00     0.070 A 
HETATM   24  C17 UNL     1      27.045   0.241  52.474  1.00  0.00     0.103 A 
ENDBRANCH   5  18
TORSDOF 4
ENDMDL
MODEL 9
REMARK VINA RESULT:      -7.7      3.218      7.729
REMARK  4 active torsions:
REMARK  status: ('A' for Active; 'I' for Inactive)
REMARK    1  A    between atoms: C1_2  and  C2_3 
REMARK       I    between atoms: C1_2  and  N1_10 
REMARK    2  A    between atoms: C2_3  and  C3_4 
REMARK    3  A    between atoms: N1_10  and  C9_11 
REMARK    4  A    between atoms: C13_15  and  C14_16 
ROOT
HETATM    1  C9  UNL     1      25.383   2.540  50.792  1.00  0.00     0.035 A 
HETATM    2  C10 UNL     1      26.587   3.076  50.378  1.00  0.00     0.029 A 
HETATM    3  C11 UNL     1      26.915   4.089  49.559  1.00  0.00     0.003 A 
HETATM    4  C12 UNL     1      25.737   4.661  49.064  1.00  0.00     0.011 A 
HETATM    5  C13 UNL     1      24.441   4.288  49.339  1.00  0.00    -0.012 A 
HETATM    6  C18 UNL     1      24.315   3.200  50.229  1.00  0.00     0.040 A 
ENDROOT
BRANCH   1   7
HETATM    7  N1  UNL     1      25.293   1.453  51.676  1.00  0.00    -0.327 N 
HETATM    8  C1  UNL     1      24.656   0.934  52.823  1.00  0.00     0.226 C 
HETATM    9  O1  UNL     1      23.791   1.613  53.434  1.00  0.00    -0.273 OA
HETATM   10  H8  UNL     1      26.057   0.945  51.126  1.00  0.00     0.169 HD
BRANCH   8  11
HETATM   11  C2  UNL     1      25.190  -0.454  53.100  1.00  0.00     0.141 C 
BRANCH  11  12
HETATM   12  C3  UNL     1      26.595  -0.420  53.467  1.00  0.00    -0.050 A 
HETATM   13  C4  UNL     1      27.267   0.354  54.359  1.00  0.00     0.007 A 
HETATM   14  C5  UNL     1      28.546   0.458  54.781  1.00  0.00     0.001 A 
HETATM   15  C6  UNL     1      29.290  -0.468  54.114  1.00  0.00     0.000 A 
HETATM   16  C7  UNL     1      28.907  -1.412  53.142  1.00  0.00     0.001 A 
HETATM   17  C8  UNL     1      27.517  -1.310  52.879  1.00  0.00     0.007 A 
ENDBRANCH  11  12
ENDBRANCH   8  11
ENDBRANCH   1   7
BRANCH   5  18
HETATM   18  C14 UNL     1      23.309   5.018  48.731  1.00  0.00     0.251 A 
HETATM   19  N2  UNL     1      23.756   6.162  47.913  1.00  0.00    -0.235 NA
HETATM   20  C15 UNL     1      23.032   6.886  48.694  1.00  0.00     0.172 A 
HETATM   21  S1  UNL     1      22.307   8.451  49.300  1.00  0.00    -0.063 SA
HETATM   22  N3  UNL     1      22.507   5.840  49.557  1.00  0.00    -0.308 N 
HETATM   23  C16 UNL     1      21.370   7.615  50.615  1.00  0.00     0.070 A 
HETATM   24  C17 UNL     1      21.639   6.350  50.529  1.00  0.00     0.103 A 
ENDBRANCH   5  18
TORSDOF 4
ENDMDL
