MODEL 1
REMARK VINA RESULT:      -8.4      0.000      0.000
REMARK  8 active torsions:
REMARK  status: ('A' for Active; 'I' for Inactive)
REMARK    1  A    between atoms: C2_2  and  N1_3 
REMARK    2  A    between atoms: N1_3  and  C3_4 
REMARK    3  A    between atoms: N1_3  and  C5_6 
REMARK    4  A    between atoms: C5_6  and  C6_7 
REMARK    5  A    between atoms: C7_8  and  C8_9 
REMARK       I    between atoms: C8_9  and  N2_11 
REMARK    6  A    between atoms: N2_11  and  C9_12 
REMARK    7  A    between atoms: C14_19  and  N5_20 
REMARK    8  A    between atoms: N5_20  and  C15_21 
ROOT
HETATM    1  C9  UNL     1      24.174  -0.448  53.468  1.00  0.00     0.124 A 
HETATM    2  C10 UNL     1      24.832   0.404  52.705  1.00  0.00     0.069 A 
HETATM    3  C11 UNL     1      26.149   0.976  53.034  1.00  0.00     0.061 A 
HETATM    4  C12 UNL     1      26.706   0.567  54.236  1.00  0.00     0.157 A 
HETATM    5  N3  UNL     1      27.914   1.066  54.587  1.00  0.00    -0.222 NA
HETATM    6  C13 UNL     1      28.540   1.946  53.751  1.00  0.00     0.237 A 
HETATM    7  N4  UNL     1      27.988   2.345  52.569  1.00  0.00    -0.223 NA
HETATM    8  C14 UNL     1      26.786   1.869  52.188  1.00  0.00     0.143 A 
HETATM    9  N6  UNL     1      26.051  -0.347  55.103  1.00  0.00    -0.282 N 
HETATM   10  N7  UNL     1      24.804  -0.837  54.708  1.00  0.00    -0.284 N 
HETATM   11  H20 UNL     1      26.434  -0.674  56.006  1.00  0.00     0.188 HD
HETATM   12  H21 UNL     1      24.292  -1.515  55.328  1.00  0.00     0.188 HD
ENDROOT
BRANCH   1  13
HETATM   13  N2  UNL     1      22.882  -0.983  53.106  1.00  0.00    -0.301 N 
HETATM   14  C8  UNL     1      21.868  -0.829  54.121  1.00  0.00     0.302 C 
HETATM   15  O1  UNL     1      22.102  -0.263  55.243  1.00  0.00    -0.258 OA
HETATM   16  H13 UNL     1      22.525  -1.484  52.236  1.00  0.00     0.171 HD
BRANCH  14  17
HETATM   17  C7  UNL     1      20.523  -1.310  53.918  1.00  0.00    -0.004 C 
HETATM   18  C6  UNL     1      19.372  -1.708  53.760  1.00  0.00    -0.077 C 
BRANCH  18  19
HETATM   19  C5  UNL     1      18.000  -2.162  53.591  1.00  0.00     0.212 C 
BRANCH  19  20
HETATM   20  N1  UNL     1      17.210  -1.209  52.927  1.00  0.00    -0.403 N 
BRANCH  20  21
HETATM   21  C2  UNL     1      17.803  -0.191  52.159  1.00  0.00     0.113 C 
HETATM   22  C1  UNL     1      17.371  -0.256  50.721  1.00  0.00     0.026 C 
ENDBRANCH  20  21
BRANCH  20  23
HETATM   23  C3  UNL     1      16.000  -1.757  52.336  1.00  0.00     0.113 C 
HETATM   24  C4  UNL     1      15.738  -3.181  52.694  1.00  0.00     0.026 C 
ENDBRANCH  20  23
ENDBRANCH  19  20
ENDBRANCH  18  19
ENDBRANCH  14  17
ENDBRANCH   1  13
BRANCH   8  25
HETATM   25  N5  UNL     1      26.074   2.179  50.998  1.00  0.00    -0.340 N 
HETATM   26  H16 UNL     1      25.588   1.347  50.584  1.00  0.00     0.167 HD
BRANCH  25  27
HETATM   27  C15 UNL     1      26.007   3.465  50.402  1.00  0.00     0.035 A 
HETATM   28  C16 UNL     1      26.886   3.832  49.415  1.00  0.00     0.032 A 
HETATM   29  C17 UNL     1      26.852   5.067  48.812  1.00  0.00     0.046 A 
HETATM   30  C18 UNL     1      25.876   5.961  49.239  1.00  0.00     0.138 A 
HETATM   31  F1  UNL     1      25.820   7.188  48.658  1.00  0.00    -0.204 F 
HETATM   32  C19 UNL     1      25.008   5.569  50.230  1.00  0.00     0.074 A 
HETATM   33 CL1  UNL     1      23.770   6.678  50.783  1.00  0.00    -0.081 Cl
HETATM   34  C20 UNL     1      25.023   4.332  50.851  1.00  0.00     0.056 A 
ENDBRANCH  25  27
ENDBRANCH   8  25
TORSDOF 8
ENDMDL
MODEL 2
REMARK VINA RESULT:      -8.2      1.098      1.628
REMARK  8 active torsions:
REMARK  status: ('A' for Active; 'I' for Inactive)
REMARK    1  A    between atoms: C2_2  and  N1_3 
REMARK    2  A    between atoms: N1_3  and  C3_4 
REMARK    3  A    between atoms: N1_3  and  C5_6 
REMARK    4  A    between atoms: C5_6  and  C6_7 
REMARK    5  A    between atoms: C7_8  and  C8_9 
REMARK       I    between atoms: C8_9  and  N2_11 
REMARK    6  A    between atoms: N2_11  and  C9_12 
REMARK    7  A    between atoms: C14_19  and  N5_20 
REMARK    8  A    between atoms: N5_20  and  C15_21 
ROOT
HETATM    1  C9  UNL     1      23.510  -0.743  53.623  1.00  0.00     0.124 A 
HETATM    2  C10 UNL     1      24.384  -0.069  52.900  1.00  0.00     0.069 A 
HETATM    3  C11 UNL     1      25.743   0.283  53.348  1.00  0.00     0.061 A 
HETATM    4  C12 UNL     1      26.093  -0.142  54.619  1.00  0.00     0.157 A 
HETATM    5  N3  UNL     1      27.331   0.158  55.079  1.00  0.00    -0.222 NA
HETATM    6  C13 UNL     1      28.186   0.862  54.280  1.00  0.00     0.237 A 
HETATM    7  N4  UNL     1      27.836   1.277  53.028  1.00  0.00    -0.223 NA
HETATM    8  C14 UNL     1      26.612   0.997  52.538  1.00  0.00     0.143 A 
HETATM    9  N6  UNL     1      25.200  -0.872  55.448  1.00  0.00    -0.282 N 
HETATM   10  N7  UNL     1      23.931  -1.159  54.940  1.00  0.00    -0.284 N 
HETATM   11  H20 UNL     1      25.425  -1.205  56.401  1.00  0.00     0.188 HD
HETATM   12  H21 UNL     1      23.245  -1.698  55.528  1.00  0.00     0.188 HD
ENDROOT
BRANCH   1  13
HETATM   13  N2  UNL     1      22.185  -1.065  53.144  1.00  0.00    -0.301 N 
HETATM   14  C8  UNL     1      21.115  -0.529  53.949  1.00  0.00     0.302 C 
HETATM   15  O1  UNL     1      21.330   0.172  54.996  1.00  0.00    -0.258 OA
HETATM   16  H13 UNL     1      21.835  -1.633  52.314  1.00  0.00     0.171 HD
BRANCH  14  17
HETATM   17  C7  UNL     1      19.732  -0.760  53.609  1.00  0.00    -0.004 C 
HETATM   18  C6  UNL     1      18.559  -0.954  53.299  1.00  0.00    -0.077 C 
BRANCH  18  19
HETATM   19  C5  UNL     1      17.177  -1.186  52.908  1.00  0.00     0.212 C 
BRANCH  19  20
HETATM   20  N1  UNL     1      16.886  -2.555  52.792  1.00  0.00    -0.403 N 
BRANCH  20  21
HETATM   21  C2  UNL     1      17.439  -3.486  53.689  1.00  0.00     0.113 C 
HETATM   22  C1  UNL     1      16.575  -4.709  53.824  1.00  0.00     0.026 C 
ENDBRANCH  20  21
BRANCH  20  23
HETATM   23  C3  UNL     1      15.504  -2.834  52.436  1.00  0.00     0.113 C 
HETATM   24  C4  UNL     1      15.008  -2.057  51.264  1.00  0.00     0.026 C 
ENDBRANCH  20  23
ENDBRANCH  19  20
ENDBRANCH  18  19
ENDBRANCH  14  17
ENDBRANCH   1  13
BRANCH   8  25
HETATM   25  N5  UNL     1      26.092   1.352  51.266  1.00  0.00    -0.340 N 
HETATM   26  H16 UNL     1      25.923   0.523  50.646  1.00  0.00     0.167 HD
BRANCH  25  27
HETATM   27  C15 UNL     1      25.816   2.679  50.841  1.00  0.00     0.035 A 
HETATM   28  C16 UNL     1      26.584   3.284  49.879  1.00  0.00     0.032 A 
HETATM   29  C17 UNL     1      26.349   4.565  49.438  1.00  0.00     0.046 A 
HETATM   30  C18 UNL     1      25.284   5.252  50.009  1.00  0.00     0.138 A 
HETATM   31  F1  UNL     1      25.028   6.520  49.591  1.00  0.00    -0.204 F 
HETATM   32  C19 UNL     1      24.530   4.622  50.972  1.00  0.00     0.074 A 
HETATM   33 CL1  UNL     1      23.182   5.468  51.704  1.00  0.00    -0.081 Cl
HETATM   34  C20 UNL     1      24.748   3.335  51.430  1.00  0.00     0.056 A 
ENDBRANCH  25  27
ENDBRANCH   8  25
TORSDOF 8
ENDMDL
MODEL 3
REMARK VINA RESULT:      -8.2      4.938     10.639
REMARK  8 active torsions:
REMARK  status: ('A' for Active; 'I' for Inactive)
REMARK    1  A    between atoms: C2_2  and  N1_3 
REMARK    2  A    between atoms: N1_3  and  C3_4 
REMARK    3  A    between atoms: N1_3  and  C5_6 
REMARK    4  A    between atoms: C5_6  and  C6_7 
REMARK    5  A    between atoms: C7_8  and  C8_9 
REMARK       I    between atoms: C8_9  and  N2_11 
REMARK    6  A    between atoms: N2_11  and  C9_12 
REMARK    7  A    between atoms: C14_19  and  N5_20 
REMARK    8  A    between atoms: N5_20  and  C15_21 
ROOT
HETATM    1  C9  UNL     1      26.167   3.922  49.574  1.00  0.00     0.124 A 
HETATM    2  C10 UNL     1      26.155   3.413  50.792  1.00  0.00     0.069 A 
HETATM    3  C11 UNL     1      24.963   2.849  51.450  1.00  0.00     0.061 A 
HETATM    4  C12 UNL     1      23.793   2.870  50.709  1.00  0.00     0.157 A 
HETATM    5  N3  UNL     1      22.668   2.367  51.269  1.00  0.00    -0.222 NA
HETATM    6  C13 UNL     1      22.725   1.857  52.536  1.00  0.00     0.237 A 
HETATM    7  N4  UNL     1      23.880   1.839  53.261  1.00  0.00    -0.223 NA
HETATM    8  C14 UNL     1      25.019   2.332  52.734  1.00  0.00     0.143 A 
HETATM    9  N6  UNL     1      23.737   3.403  49.394  1.00  0.00    -0.282 N 
HETATM   10  N7  UNL     1      24.917   3.916  48.851  1.00  0.00    -0.284 N 
HETATM   11  H20 UNL     1      22.884   3.436  48.811  1.00  0.00     0.188 HD
HETATM   12  H21 UNL     1      24.910   4.319  47.879  1.00  0.00     0.188 HD
ENDROOT
BRANCH   1  13
HETATM   13  N2  UNL     1      27.360   4.466  48.968  1.00  0.00    -0.301 N 
HETATM   14  C8  UNL     1      27.258   5.857  48.599  1.00  0.00     0.302 C 
HETATM   15  O1  UNL     1      26.198   6.543  48.797  1.00  0.00    -0.258 OA
HETATM   16  H13 UNL     1      28.306   4.041  48.726  1.00  0.00     0.171 HD
BRANCH  14  17
HETATM   17  C7  UNL     1      28.361   6.552  47.981  1.00  0.00    -0.004 C 
HETATM   18  C6  UNL     1      29.313   7.138  47.470  1.00  0.00    -0.077 C 
BRANCH  18  19
HETATM   19  C5  UNL     1      30.455   7.821  46.884  1.00  0.00     0.212 C 
BRANCH  19  20
HETATM   20  N1  UNL     1      30.939   8.845  47.715  1.00  0.00    -0.403 N 
BRANCH  20  21
HETATM   21  C2  UNL     1      30.234  10.054  47.852  1.00  0.00     0.113 C 
HETATM   22  C1  UNL     1      30.565  10.747  49.144  1.00  0.00     0.026 C 
ENDBRANCH  20  21
BRANCH  20  23
HETATM   23  C3  UNL     1      31.525   8.366  48.956  1.00  0.00     0.113 C 
HETATM   24  C4  UNL     1      32.856   7.713  48.789  1.00  0.00     0.026 C 
ENDBRANCH  20  23
ENDBRANCH  19  20
ENDBRANCH  18  19
ENDBRANCH  14  17
ENDBRANCH   1  13
BRANCH   8  25
HETATM   25  N5  UNL     1      26.298   2.389  53.349  1.00  0.00    -0.340 N 
HETATM   26  H16 UNL     1      26.502   3.322  53.784  1.00  0.00     0.167 HD
BRANCH  25  27
HETATM   27  C15 UNL     1      27.230   1.319  53.391  1.00  0.00     0.035 A 
HETATM   28  C16 UNL     1      28.513   1.518  53.833  1.00  0.00     0.032 A 
HETATM   29  C17 UNL     1      29.443   0.508  53.890  1.00  0.00     0.046 A 
HETATM   30  C18 UNL     1      29.041  -0.757  53.477  1.00  0.00     0.138 A 
HETATM   31  F1  UNL     1      29.941  -1.775  53.525  1.00  0.00    -0.204 F 
HETATM   32  C19 UNL     1      27.749  -0.930  53.038  1.00  0.00     0.074 A 
HETATM   33 CL1  UNL     1      27.219  -2.515  52.514  1.00  0.00    -0.081 Cl
HETATM   34  C20 UNL     1      26.796   0.071  52.971  1.00  0.00     0.056 A 
ENDBRANCH  25  27
ENDBRANCH   8  25
TORSDOF 8
ENDMDL
MODEL 4
REMARK VINA RESULT:      -8.1      4.506     10.281
REMARK  8 active torsions:
REMARK  status: ('A' for Active; 'I' for Inactive)
REMARK    1  A    between atoms: C2_2  and  N1_3 
REMARK    2  A    between atoms: N1_3  and  C3_4 
REMARK    3  A    between atoms: N1_3  and  C5_6 
REMARK    4  A    between atoms: C5_6  and  C6_7 
REMARK    5  A    between atoms: C7_8  and  C8_9 
REMARK       I    between atoms: C8_9  and  N2_11 
REMARK    6  A    between atoms: N2_11  and  C9_12 
REMARK    7  A    between atoms: C14_19  and  N5_20 
REMARK    8  A    between atoms: N5_20  and  C15_21 
ROOT
HETATM    1  C9  UNL     1      25.534   3.167  49.864  1.00  0.00     0.124 A 
HETATM    2  C10 UNL     1      25.429   2.574  51.038  1.00  0.00     0.069 A 
HETATM    3  C11 UNL     1      24.168   2.064  51.605  1.00  0.00     0.061 A 
HETATM    4  C12 UNL     1      23.036   2.236  50.823  1.00  0.00     0.157 A 
HETATM    5  N3  UNL     1      21.851   1.788  51.300  1.00  0.00    -0.222 NA
HETATM    6  C13 UNL     1      21.811   1.184  52.525  1.00  0.00     0.237 A 
HETATM    7  N4  UNL     1      22.928   1.017  53.290  1.00  0.00    -0.223 NA
HETATM    8  C14 UNL     1      24.125   1.452  52.847  1.00  0.00     0.143 A 
HETATM    9  N6  UNL     1      23.082   2.866  49.551  1.00  0.00    -0.282 N 
HETATM   10  N7  UNL     1      24.322   3.318  49.094  1.00  0.00    -0.284 N 
HETATM   11  H20 UNL     1      22.260   3.012  48.941  1.00  0.00     0.188 HD
HETATM   12  H21 UNL     1      24.390   3.789  48.156  1.00  0.00     0.188 HD
ENDROOT
BRANCH   1  13
HETATM   13  N2  UNL     1      26.793   3.653  49.347  1.00  0.00    -0.301 N 
HETATM   14  C8  UNL     1      26.780   5.043  48.958  1.00  0.00     0.302 C 
HETATM   15  O1  UNL     1      25.738   5.775  49.067  1.00  0.00    -0.258 OA
HETATM   16  H13 UNL     1      27.736   3.186  49.182  1.00  0.00     0.171 HD
BRANCH  14  17
HETATM   17  C7  UNL     1      27.956   5.683  48.421  1.00  0.00    -0.004 C 
HETATM   18  C6  UNL     1      28.969   6.218  47.978  1.00  0.00    -0.077 C 
BRANCH  18  19
HETATM   19  C5  UNL     1      30.183   6.836  47.467  1.00  0.00     0.212 C 
BRANCH  19  20
HETATM   20  N1  UNL     1      31.339   6.196  47.945  1.00  0.00    -0.403 N 
BRANCH  20  21
HETATM   21  C2  UNL     1      32.358   5.799  47.061  1.00  0.00     0.113 C 
HETATM   22  C1  UNL     1      32.286   4.329  46.754  1.00  0.00     0.026 C 
ENDBRANCH  20  21
BRANCH  20  23
HETATM   23  C3  UNL     1      31.830   6.732  49.203  1.00  0.00     0.113 C 
HETATM   24  C4  UNL     1      31.753   8.218  49.304  1.00  0.00     0.026 C 
ENDBRANCH  20  23
ENDBRANCH  19  20
ENDBRANCH  18  19
ENDBRANCH  14  17
ENDBRANCH   1  13
BRANCH   8  25
HETATM   25  N5  UNL     1      25.376   1.358  53.513  1.00  0.00    -0.340 N 
HETATM   26  H16 UNL     1      25.549   2.154  54.173  1.00  0.00     0.167 HD
BRANCH  25  27
HETATM   27  C15 UNL     1      26.319   0.312  53.329  1.00  0.00     0.035 A 
HETATM   28  C16 UNL     1      25.918  -0.933  52.917  1.00  0.00     0.032 A 
HETATM   29  C17 UNL     1      26.799  -1.971  52.726  1.00  0.00     0.046 A 
HETATM   30  C18 UNL     1      28.145  -1.720  52.967  1.00  0.00     0.138 A 
HETATM   31  F1  UNL     1      29.038  -2.728  52.785  1.00  0.00    -0.204 F 
HETATM   32  C19 UNL     1      28.520  -0.463  53.380  1.00  0.00     0.074 A 
HETATM   33 CL1  UNL     1      30.211  -0.123  53.688  1.00  0.00    -0.081 Cl
HETATM   34  C20 UNL     1      27.652   0.596  53.579  1.00  0.00     0.056 A 
ENDBRANCH  25  27
ENDBRANCH   8  25
TORSDOF 8
ENDMDL
MODEL 5
REMARK VINA RESULT:      -7.9      4.393     10.127
REMARK  8 active torsions:
REMARK  status: ('A' for Active; 'I' for Inactive)
REMARK    1  A    between atoms: C2_2  and  N1_3 
REMARK    2  A    between atoms: N1_3  and  C3_4 
REMARK    3  A    between atoms: N1_3  and  C5_6 
REMARK    4  A    between atoms: C5_6  and  C6_7 
REMARK    5  A    between atoms: C7_8  and  C8_9 
REMARK       I    between atoms: C8_9  and  N2_11 
REMARK    6  A    between atoms: N2_11  and  C9_12 
REMARK    7  A    between atoms: C14_19  and  N5_20 
REMARK    8  A    between atoms: N5_20  and  C15_21 
ROOT
HETATM    1  C9  UNL     1      24.121   5.246  51.150  1.00  0.00     0.124 A 
HETATM    2  C10 UNL     1      23.970   3.950  51.352  1.00  0.00     0.069 A 
HETATM    3  C11 UNL     1      22.728   3.320  51.832  1.00  0.00     0.061 A 
HETATM    4  C12 UNL     1      21.666   4.176  52.078  1.00  0.00     0.157 A 
HETATM    5  N3  UNL     1      20.503   3.647  52.524  1.00  0.00    -0.222 NA
HETATM    6  C13 UNL     1      20.414   2.297  52.713  1.00  0.00     0.237 A 
HETATM    7  N4  UNL     1      21.462   1.458  52.469  1.00  0.00    -0.223 NA
HETATM    8  C14 UNL     1      22.636   1.950  52.024  1.00  0.00     0.143 A 
HETATM    9  N6  UNL     1      21.764   5.579  51.882  1.00  0.00    -0.282 N 
HETATM   10  N7  UNL     1      22.981   6.089  51.424  1.00  0.00    -0.284 N 
HETATM   11  H20 UNL     1      20.995   6.249  52.055  1.00  0.00     0.188 HD
HETATM   12  H21 UNL     1      23.086   7.124  51.269  1.00  0.00     0.188 HD
ENDROOT
BRANCH   1  13
HETATM   13  N2  UNL     1      25.359   5.822  50.679  1.00  0.00    -0.301 N 
HETATM   14  C8  UNL     1      25.419   6.019  49.251  1.00  0.00     0.302 C 
HETATM   15  O1  UNL     1      24.451   5.707  48.476  1.00  0.00    -0.258 OA
HETATM   16  H13 UNL     1      26.251   6.124  51.176  1.00  0.00     0.171 HD
BRANCH  14  17
HETATM   17  C7  UNL     1      26.586   6.583  48.619  1.00  0.00    -0.004 C 
HETATM   18  C6  UNL     1      27.588   7.044  48.077  1.00  0.00    -0.077 C 
BRANCH  18  19
HETATM   19  C5  UNL     1      28.781   7.566  47.429  1.00  0.00     0.212 C 
BRANCH  19  20
HETATM   20  N1  UNL     1      29.801   7.845  48.353  1.00  0.00    -0.403 N 
BRANCH  20  21
HETATM   21  C2  UNL     1      31.154   7.685  48.002  1.00  0.00     0.113 C 
HETATM   22  C1  UNL     1      31.444   6.286  47.534  1.00  0.00     0.026 C 
ENDBRANCH  20  21
BRANCH  20  23
HETATM   23  C3  UNL     1      29.545   9.015  49.176  1.00  0.00     0.113 C 
HETATM   24  C4  UNL     1      30.716   9.927  49.321  1.00  0.00     0.026 C 
ENDBRANCH  20  23
ENDBRANCH  19  20
ENDBRANCH  18  19
ENDBRANCH  14  17
ENDBRANCH   1  13
BRANCH   8  25
HETATM   25  N5  UNL     1      23.817   1.222  51.723  1.00  0.00    -0.340 N 
HETATM   26  H16 UNL     1      23.869   0.923  50.720  1.00  0.00     0.167 HD
BRANCH  25  27
HETATM   27  C15 UNL     1      24.841   0.911  52.656  1.00  0.00     0.035 A 
HETATM   28  C16 UNL     1      24.684  -0.107  53.562  1.00  0.00     0.032 A 
HETATM   29  C17 UNL     1      25.652  -0.441  54.479  1.00  0.00     0.046 A 
HETATM   30  C18 UNL     1      26.828   0.300  54.466  1.00  0.00     0.138 A 
HETATM   31  F1  UNL     1      27.802  -0.009  55.362  1.00  0.00    -0.204 F 
HETATM   32  C19 UNL     1      26.960   1.316  53.549  1.00  0.00     0.074 A 
HETATM   33 CL1  UNL     1      28.433   2.262  53.513  1.00  0.00    -0.081 Cl
HETATM   34  C20 UNL     1      26.000   1.669  52.617  1.00  0.00     0.056 A 
ENDBRANCH  25  27
ENDBRANCH   8  25
TORSDOF 8
ENDMDL
MODEL 6
REMARK VINA RESULT:      -7.7      4.799     10.463
REMARK  8 active torsions:
REMARK  status: ('A' for Active; 'I' for Inactive)
REMARK    1  A    between atoms: C2_2  and  N1_3 
REMARK    2  A    between atoms: N1_3  and  C3_4 
REMARK    3  A    between atoms: N1_3  and  C5_6 
REMARK    4  A    between atoms: C5_6  and  C6_7 
REMARK    5  A    between atoms: C7_8  and  C8_9 
REMARK       I    between atoms: C8_9  and  N2_11 
REMARK    6  A    between atoms: N2_11  and  C9_12 
REMARK    7  A    between atoms: C14_19  and  N5_20 
REMARK    8  A    between atoms: N5_20  and  C15_21 
ROOT
HETATM    1  C9  UNL     1      25.178   5.324  49.287  1.00  0.00     0.124 A 
HETATM    2  C10 UNL     1      25.088   4.613  50.395  1.00  0.00     0.069 A 
HETATM    3  C11 UNL     1      23.864   3.930  50.850  1.00  0.00     0.061 A 
HETATM    4  C12 UNL     1      22.752   4.065  50.034  1.00  0.00     0.157 A 
HETATM    5  N3  UNL     1      21.602   3.459  50.410  1.00  0.00    -0.222 NA
HETATM    6  C13 UNL     1      21.576   2.739  51.570  1.00  0.00     0.237 A 
HETATM    7  N4  UNL     1      22.673   2.608  52.370  1.00  0.00    -0.223 NA
HETATM    8  C14 UNL     1      23.836   3.199  52.028  1.00  0.00     0.143 A 
HETATM    9  N6  UNL     1      22.784   4.816  48.830  1.00  0.00    -0.282 N 
HETATM   10  N7  UNL     1      23.988   5.430  48.477  1.00  0.00    -0.284 N 
HETATM   11  H20 UNL     1      21.976   4.940  48.196  1.00  0.00     0.188 HD
HETATM   12  H21 UNL     1      24.044   5.994  47.591  1.00  0.00     0.188 HD
ENDROOT
BRANCH   1  13
HETATM   13  N2  UNL     1      26.400   5.979  48.879  1.00  0.00    -0.301 N 
HETATM   14  C8  UNL     1      27.518   5.087  48.688  1.00  0.00     0.302 C 
HETATM   15  O1  UNL     1      27.425   3.825  48.867  1.00  0.00    -0.258 OA
HETATM   16  H13 UNL     1      26.648   6.999  48.699  1.00  0.00     0.171 HD
BRANCH  14  17
HETATM   17  C7  UNL     1      28.811   5.581  48.282  1.00  0.00    -0.004 C 
HETATM   18  C6  UNL     1      29.919   6.000  47.957  1.00  0.00    -0.077 C 
BRANCH  18  19
HETATM   19  C5  UNL     1      31.240   6.493  47.595  1.00  0.00     0.212 C 
BRANCH  19  20
HETATM   20  N1  UNL     1      31.930   5.588  46.771  1.00  0.00    -0.403 N 
BRANCH  20  21
HETATM   21  C2  UNL     1      32.927   6.036  45.886  1.00  0.00     0.113 C 
HETATM   22  C1  UNL     1      32.342   6.801  44.732  1.00  0.00     0.026 C 
ENDBRANCH  20  21
BRANCH  20  23
HETATM   23  C3  UNL     1      32.247   4.326  47.420  1.00  0.00     0.113 C 
HETATM   24  C4  UNL     1      32.002   3.125  46.571  1.00  0.00     0.026 C 
ENDBRANCH  20  23
ENDBRANCH  19  20
ENDBRANCH  18  19
ENDBRANCH  14  17
ENDBRANCH   1  13
BRANCH   8  25
HETATM   25  N5  UNL     1      25.063   3.164  52.742  1.00  0.00    -0.340 N 
HETATM   26  H16 UNL     1      25.273   4.063  53.238  1.00  0.00     0.167 HD
BRANCH  25  27
HETATM   27  C15 UNL     1      25.939   2.048  52.800  1.00  0.00     0.035 A 
HETATM   28  C16 UNL     1      25.697   0.923  52.053  1.00  0.00     0.032 A 
HETATM   29  C17 UNL     1      26.522  -0.177  52.079  1.00  0.00     0.046 A 
HETATM   30  C18 UNL     1      27.639  -0.119  52.905  1.00  0.00     0.138 A 
HETATM   31  F1  UNL     1      28.471  -1.193  52.950  1.00  0.00    -0.204 F 
HETATM   32  C19 UNL     1      27.857   1.020  53.644  1.00  0.00     0.074 A 
HETATM   33 CL1  UNL     1      29.258   1.115  54.691  1.00  0.00    -0.081 Cl
HETATM   34  C20 UNL     1      27.042   2.138  53.634  1.00  0.00     0.056 A 
ENDBRANCH  25  27
ENDBRANCH   8  25
TORSDOF 8
ENDMDL
MODEL 7
REMARK VINA RESULT:      -7.7      4.871     10.727
REMARK  8 active torsions:
REMARK  status: ('A' for Active; 'I' for Inactive)
REMARK    1  A    between atoms: C2_2  and  N1_3 
REMARK    2  A    between atoms: N1_3  and  C3_4 
REMARK    3  A    between atoms: N1_3  and  C5_6 
REMARK    4  A    between atoms: C5_6  and  C6_7 
REMARK    5  A    between atoms: C7_8  and  C8_9 
REMARK       I    between atoms: C8_9  and  N2_11 
REMARK    6  A    between atoms: N2_11  and  C9_12 
REMARK    7  A    between atoms: C14_19  and  N5_20 
REMARK    8  A    between atoms: N5_20  and  C15_21 
ROOT
HETATM    1  C9  UNL     1      25.625   4.988  50.060  1.00  0.00     0.124 A 
HETATM    2  C10 UNL     1      24.824   3.979  50.344  1.00  0.00     0.069 A 
HETATM    3  C11 UNL     1      23.400   4.116  50.698  1.00  0.00     0.061 A 
HETATM    4  C12 UNL     1      22.902   5.409  50.724  1.00  0.00     0.157 A 
HETATM    5  N3  UNL     1      21.600   5.590  51.047  1.00  0.00    -0.222 NA
HETATM    6  C13 UNL     1      20.826   4.501  51.332  1.00  0.00     0.237 A 
HETATM    7  N4  UNL     1      21.321   3.230  51.303  1.00  0.00    -0.223 NA
HETATM    8  C14 UNL     1      22.613   3.012  50.987  1.00  0.00     0.143 A 
HETATM    9  N6  UNL     1      23.711   6.539  50.430  1.00  0.00    -0.282 N 
HETATM   10  N7  UNL     1      25.050   6.312  50.104  1.00  0.00    -0.284 N 
HETATM   11  H20 UNL     1      23.375   7.517  50.440  1.00  0.00     0.188 HD
HETATM   12  H21 UNL     1      25.676   7.128  49.882  1.00  0.00     0.188 HD
ENDROOT
BRANCH   1  13
HETATM   13  N2  UNL     1      27.017   4.807  49.719  1.00  0.00    -0.301 N 
HETATM   14  C8  UNL     1      27.490   5.676  48.669  1.00  0.00     0.302 C 
HETATM   15  O1  UNL     1      26.734   6.533  48.096  1.00  0.00    -0.258 OA
HETATM   16  H13 UNL     1      27.770   4.147  50.082  1.00  0.00     0.171 HD
BRANCH  14  17
HETATM   17  C7  UNL     1      28.856   5.622  48.208  1.00  0.00    -0.004 C 
HETATM   18  C6  UNL     1      30.012   5.577  47.796  1.00  0.00    -0.077 C 
BRANCH  18  19
HETATM   19  C5  UNL     1      31.373   5.530  47.284  1.00  0.00     0.212 C 
BRANCH  19  20
HETATM   20  N1  UNL     1      32.242   4.861  48.162  1.00  0.00    -0.403 N 
BRANCH  20  21
HETATM   21  C2  UNL     1      32.949   3.719  47.745  1.00  0.00     0.113 C 
HETATM   22  C1  UNL     1      32.270   3.037  46.590  1.00  0.00     0.026 C 
ENDBRANCH  20  21
BRANCH  20  23
HETATM   23  C3  UNL     1      33.015   5.749  49.015  1.00  0.00     0.113 C 
HETATM   24  C4  UNL     1      33.965   6.630  48.275  1.00  0.00     0.026 C 
ENDBRANCH  20  23
ENDBRANCH  19  20
ENDBRANCH  18  19
ENDBRANCH  14  17
ENDBRANCH   1  13
BRANCH   8  25
HETATM   25  N5  UNL     1      23.283   1.762  50.912  1.00  0.00    -0.340 N 
HETATM   26  H16 UNL     1      23.497   1.471  49.927  1.00  0.00     0.167 HD
BRANCH  25  27
HETATM   27  C15 UNL     1      23.642   0.963  52.029  1.00  0.00     0.035 A 
HETATM   28  C16 UNL     1      22.705   0.206  52.684  1.00  0.00     0.032 A 
HETATM   29  C17 UNL     1      23.012  -0.582  53.767  1.00  0.00     0.046 A 
HETATM   30  C18 UNL     1      24.335  -0.593  54.196  1.00  0.00     0.138 A 
HETATM   31  F1  UNL     1      24.666  -1.364  55.265  1.00  0.00    -0.204 F 
HETATM   32  C19 UNL     1      25.255   0.176  53.523  1.00  0.00     0.074 A 
HETATM   33 CL1  UNL     1      26.927   0.178  54.045  1.00  0.00    -0.081 Cl
HETATM   34  C20 UNL     1      24.969   0.976  52.431  1.00  0.00     0.056 A 
ENDBRANCH  25  27
ENDBRANCH   8  25
TORSDOF 8
ENDMDL
MODEL 8
REMARK VINA RESULT:      -7.6      5.363     11.102
REMARK  8 active torsions:
REMARK  status: ('A' for Active; 'I' for Inactive)
REMARK    1  A    between atoms: C2_2  and  N1_3 
REMARK    2  A    between atoms: N1_3  and  C3_4 
REMARK    3  A    between atoms: N1_3  and  C5_6 
REMARK    4  A    between atoms: C5_6  and  C6_7 
REMARK    5  A    between atoms: C7_8  and  C8_9 
REMARK       I    between atoms: C8_9  and  N2_11 
REMARK    6  A    between atoms: N2_11  and  C9_12 
REMARK    7  A    between atoms: C14_19  and  N5_20 
REMARK    8  A    between atoms: N5_20  and  C15_21 
ROOT
HETATM    1  C9  UNL     1      24.898   7.032  50.831  1.00  0.00     0.124 A 
HETATM    2  C10 UNL     1      24.624   5.765  50.581  1.00  0.00     0.069 A 
HETATM    3  C11 UNL     1      23.268   5.189  50.577  1.00  0.00     0.061 A 
HETATM    4  C12 UNL     1      22.234   6.067  50.859  1.00  0.00     0.157 A 
HETATM    5  N3  UNL     1      20.968   5.587  50.871  1.00  0.00    -0.222 NA
HETATM    6  C13 UNL     1      20.754   4.265  50.605  1.00  0.00     0.237 A 
HETATM    7  N4  UNL     1      21.776   3.404  50.328  1.00  0.00    -0.223 NA
HETATM    8  C14 UNL     1      23.049   3.848  50.308  1.00  0.00     0.143 A 
HETATM    9  N6  UNL     1      22.460   7.442  51.136  1.00  0.00    -0.282 N 
HETATM   10  N7  UNL     1      23.780   7.899  51.118  1.00  0.00    -0.284 N 
HETATM   11  H20 UNL     1      21.715   8.126  51.351  1.00  0.00     0.188 HD
HETATM   12  H21 UNL     1      23.982   8.911  51.320  1.00  0.00     0.188 HD
ENDROOT
BRANCH   1  13
HETATM   13  N2  UNL     1      26.245   7.554  50.825  1.00  0.00    -0.301 N 
HETATM   14  C8  UNL     1      26.531   8.450  49.731  1.00  0.00     0.302 C 
HETATM   15  O1  UNL     1      25.659   8.752  48.847  1.00  0.00    -0.258 OA
HETATM   16  H13 UNL     1      27.082   7.401  51.466  1.00  0.00     0.171 HD
BRANCH  14  17
HETATM   17  C7  UNL     1      27.831   9.057  49.579  1.00  0.00    -0.004 C 
HETATM   18  C6  UNL     1      28.944   9.566  49.468  1.00  0.00    -0.077 C 
BRANCH  18  19
HETATM   19  C5  UNL     1      30.269  10.155  49.356  1.00  0.00     0.212 C 
BRANCH  19  20
HETATM   20  N1  UNL     1      31.105   9.411  48.508  1.00  0.00    -0.403 N 
BRANCH  20  21
HETATM   21  C2  UNL     1      31.015   8.009  48.457  1.00  0.00     0.113 C 
HETATM   22  C1  UNL     1      31.895   7.358  49.488  1.00  0.00     0.026 C 
ENDBRANCH  20  21
BRANCH  20  23
HETATM   23  C3  UNL     1      31.328  10.031  47.211  1.00  0.00     0.113 C 
HETATM   24  C4  UNL     1      32.487  10.969  47.175  1.00  0.00     0.026 C 
ENDBRANCH  20  23
ENDBRANCH  19  20
ENDBRANCH  18  19
ENDBRANCH  14  17
ENDBRANCH   1  13
BRANCH   8  25
HETATM   25  N5  UNL     1      24.221   3.091  50.039  1.00  0.00    -0.340 N 
HETATM   26  H16 UNL     1      24.535   3.164  49.042  1.00  0.00     0.167 HD
BRANCH  25  27
HETATM   27  C15 UNL     1      24.920   2.307  50.995  1.00  0.00     0.035 A 
HETATM   28  C16 UNL     1      26.282   2.401  51.123  1.00  0.00     0.032 A 
HETATM   29  C17 UNL     1      26.995   1.662  52.037  1.00  0.00     0.046 A 
HETATM   30  C18 UNL     1      26.280   0.790  52.851  1.00  0.00     0.138 A 
HETATM   31  F1  UNL     1      26.960   0.047  53.763  1.00  0.00    -0.204 F 
HETATM   32  C19 UNL     1      24.915   0.714  52.702  1.00  0.00     0.074 A 
HETATM   33 CL1  UNL     1      23.995  -0.376  53.717  1.00  0.00    -0.081 Cl
HETATM   34  C20 UNL     1      24.177   1.448  51.790  1.00  0.00     0.056 A 
ENDBRANCH  25  27
ENDBRANCH   8  25
TORSDOF 8
ENDMDL
MODEL 9
REMARK VINA RESULT:      -7.5      2.149      2.644
REMARK  8 active torsions:
REMARK  status: ('A' for Active; 'I' for Inactive)
REMARK    1  A    between atoms: C2_2  and  N1_3 
REMARK    2  A    between atoms: N1_3  and  C3_4 
REMARK    3  A    between atoms: N1_3  and  C5_6 
REMARK    4  A    between atoms: C5_6  and  C6_7 
REMARK    5  A    between atoms: C7_8  and  C8_9 
REMARK       I    between atoms: C8_9  and  N2_11 
REMARK    6  A    between atoms: N2_11  and  C9_12 
REMARK    7  A    between atoms: C14_19  and  N5_20 
REMARK    8  A    between atoms: N5_20  and  C15_21 
ROOT
HETATM    1  C9  UNL     1      22.786  -1.325  54.360  1.00  0.00     0.124 A 
HETATM    2  C10 UNL     1      23.533  -0.557  53.590  1.00  0.00     0.069 A 
HETATM    3  C11 UNL     1      24.914  -0.150  53.905  1.00  0.00     0.061 A 
HETATM    4  C12 UNL     1      25.431  -0.625  55.100  1.00  0.00     0.157 A 
HETATM    5  N3  UNL     1      26.694  -0.277  55.437  1.00  0.00    -0.222 NA
HETATM    6  C13 UNL     1      27.413   0.522  54.595  1.00  0.00     0.237 A 
HETATM    7  N4  UNL     1      26.900   0.987  53.419  1.00  0.00    -0.223 NA
HETATM    8  C14 UNL     1      25.645   0.661  53.052  1.00  0.00     0.143 A 
HETATM    9  N6  UNL     1      24.679  -1.455  55.973  1.00  0.00    -0.282 N 
HETATM   10  N7  UNL     1      23.378  -1.790  55.593  1.00  0.00    -0.284 N 
HETATM   11  H20 UNL     1      25.030  -1.828  56.872  1.00  0.00     0.188 HD
HETATM   12  H21 UNL     1      22.794  -2.402  56.218  1.00  0.00     0.188 HD
ENDROOT
BRANCH   1  13
HETATM   13  N2  UNL     1      21.435  -1.699  54.012  1.00  0.00    -0.301 N 
HETATM   14  C8  UNL     1      20.554  -0.583  53.762  1.00  0.00     0.302 C 
HETATM   15  O1  UNL     1      20.947   0.631  53.842  1.00  0.00    -0.258 OA
HETATM   16  H13 UNL     1      20.948  -2.641  53.913  1.00  0.00     0.171 HD
BRANCH  14  17
HETATM   17  C7  UNL     1      19.171  -0.784  53.404  1.00  0.00    -0.004 C 
HETATM   18  C6  UNL     1      17.994  -0.973  53.110  1.00  0.00    -0.077 C 
BRANCH  18  19
HETATM   19  C5  UNL     1      16.599  -1.218  52.777  1.00  0.00     0.212 C 
BRANCH  19  20
HETATM   20  N1  UNL     1      16.202  -0.513  51.628  1.00  0.00    -0.403 N 
BRANCH  20  21
HETATM   21  C2  UNL     1      15.453  -1.145  50.619  1.00  0.00     0.113 C 
HETATM   22  C1  UNL     1      15.840  -0.655  49.252  1.00  0.00     0.026 C 
ENDBRANCH  20  21
BRANCH  20  23
HETATM   23  C3  UNL     1      15.791   0.856  51.891  1.00  0.00     0.113 C 
HETATM   24  C4  UNL     1      14.591   0.975  52.769  1.00  0.00     0.026 C 
ENDBRANCH  20  23
ENDBRANCH  19  20
ENDBRANCH  18  19
ENDBRANCH  14  17
ENDBRANCH   1  13
BRANCH   8  25
HETATM   25  N5  UNL     1      24.963   1.057  51.870  1.00  0.00    -0.340 N 
HETATM   26  H16 UNL     1      24.999   0.332  51.114  1.00  0.00     0.167 HD
BRANCH  25  27
HETATM   27  C15 UNL     1      24.291   2.296  51.695  1.00  0.00     0.035 A 
HETATM   28  C16 UNL     1      24.133   3.166  52.743  1.00  0.00     0.032 A 
HETATM   29  C17 UNL     1      23.491   4.375  52.614  1.00  0.00     0.046 A 
HETATM   30  C18 UNL     1      22.993   4.704  51.358  1.00  0.00     0.138 A 
HETATM   31  F1  UNL     1      22.355   5.894  51.202  1.00  0.00    -0.204 F 
HETATM   32  C19 UNL     1      23.165   3.814  50.324  1.00  0.00     0.074 A 
HETATM   33 CL1  UNL     1      22.546   4.207  48.734  1.00  0.00    -0.081 Cl
HETATM   34  C20 UNL     1      23.806   2.592  50.431  1.00  0.00     0.056 A 
ENDBRANCH  25  27
ENDBRANCH   8  25
TORSDOF 8
ENDMDL
