MODEL 1
REMARK VINA RESULT:      -8.1      0.000      0.000
REMARK  2 active torsions:
REMARK  status: ('A' for Active; 'I' for Inactive)
REMARK    1  A    between atoms: N1_1  and  N2_2 
REMARK    2  A    between atoms: C14_17  and  C15_18 
ROOT
HETATM    1  N2  UNL     1      33.551   7.767  46.462  1.00  0.00    -0.197 N 
HETATM    2  N3  UNL     1      33.545   8.312  47.855  1.00  0.00    -0.141 NA
HETATM    3  C1  UNL     1      32.463   7.946  48.632  1.00  0.00     0.148 C 
HETATM    4  C2  UNL     1      31.483   8.930  49.204  1.00  0.00     0.119 C 
HETATM    5  C3  UNL     1      30.267   8.121  48.782  1.00  0.00    -0.039 C 
HETATM    6  C4  UNL     1      28.984   8.427  48.724  1.00  0.00     0.006 C 
HETATM    7  C5  UNL     1      27.930   7.510  48.316  1.00  0.00    -0.004 C 
HETATM    8  C6  UNL     1      28.372   6.299  48.026  1.00  0.00    -0.024 C 
HETATM    9  C7  UNL     1      29.794   5.787  48.088  1.00  0.00     0.069 C 
HETATM   10  C8  UNL     1      30.808   6.862  48.185  1.00  0.00     0.102 C 
HETATM   11  C9  UNL     1      31.245   7.105  46.712  1.00  0.00     0.044 C 
HETATM   12  C10 UNL     1      32.468   6.820  46.121  1.00  0.00     0.070 C 
HETATM   13  C11 UNL     1      32.818   5.676  45.212  1.00  0.00     0.029 C 
HETATM   14  C12 UNL     1      33.106   4.363  45.109  1.00  0.00    -0.020 C 
HETATM   15  C13 UNL     1      33.187   3.354  46.247  1.00  0.00     0.072 C 
HETATM   16  C14 UNL     1      32.984   4.144  47.481  1.00  0.00     0.046 C 
HETATM   17  C16 UNL     1      32.274   4.523  48.506  1.00  0.00     0.119 C 
HETATM   18  N4  UNL     1      32.287   5.356  49.625  1.00  0.00    -0.306 N 
HETATM   19  N5  UNL     1      31.998   6.593  48.958  1.00  0.00    -0.258 N 
HETATM   20  H16 UNL     1      32.442   5.203  50.580  1.00  0.00     0.186 HD
ENDROOT
BRANCH  16  21
HETATM   21  C15 UNL     1      34.352   4.642  47.756  1.00  0.00     0.415 C 
HETATM   22  F1  UNL     1      35.090   4.958  46.642  1.00  0.00    -0.166 F 
HETATM   23  F2  UNL     1      35.063   3.561  48.376  1.00  0.00    -0.166 F 
HETATM   24  F3  UNL     1      34.456   5.688  48.632  1.00  0.00    -0.166 F 
ENDBRANCH  16  21
BRANCH   1  25
HETATM   25  N1  UNL     1      34.307   7.881  45.340  1.00  0.00    -0.226 NA
HETATM   26  H1  UNL     1      35.240   7.384  45.425  1.00  0.00     0.145 HD
HETATM   27  H2  UNL     1      33.832   7.442  44.538  1.00  0.00     0.145 HD
ENDBRANCH   1  25
TORSDOF 2
ENDMDL
MODEL 2
REMARK VINA RESULT:      -7.5     10.753     12.684
REMARK  2 active torsions:
REMARK  status: ('A' for Active; 'I' for Inactive)
REMARK    1  A    between atoms: N1_1  and  N2_2 
REMARK    2  A    between atoms: C14_17  and  C15_18 
ROOT
HETATM    1  N2  UNL     1      19.660   1.278  50.434  1.00  0.00    -0.197 N 
HETATM    2  N3  UNL     1      19.404   1.722  51.840  1.00  0.00    -0.141 NA
HETATM    3  C1  UNL     1      20.514   1.776  52.659  1.00  0.00     0.148 C 
HETATM    4  C2  UNL     1      20.668   0.947  53.902  1.00  0.00     0.119 C 
HETATM    5  C3  UNL     1      22.090   0.525  53.568  1.00  0.00    -0.039 C 
HETATM    6  C4  UNL     1      22.870  -0.412  54.075  1.00  0.00     0.006 C 
HETATM    7  C5  UNL     1      24.238  -0.671  53.650  1.00  0.00    -0.004 C 
HETATM    8  C6  UNL     1      24.660   0.154  52.708  1.00  0.00    -0.024 C 
HETATM    9  C7  UNL     1      23.906   1.297  52.065  1.00  0.00     0.069 C 
HETATM   10  C8  UNL     1      22.447   1.262  52.318  1.00  0.00     0.102 C 
HETATM   11  C9  UNL     1      21.864   0.533  51.074  1.00  0.00     0.044 C 
HETATM   12  C10 UNL     1      21.074   1.060  50.061  1.00  0.00     0.070 C 
HETATM   13  C11 UNL     1      21.483   1.445  48.667  1.00  0.00     0.029 C 
HETATM   14  C12 UNL     1      22.099   2.351  47.882  1.00  0.00    -0.020 C 
HETATM   15  C13 UNL     1      22.757   3.650  48.328  1.00  0.00     0.072 C 
HETATM   16  C14 UNL     1      22.483   3.745  49.778  1.00  0.00     0.046 C 
HETATM   17  C16 UNL     1      22.847   3.690  51.028  1.00  0.00     0.119 C 
HETATM   18  N4  UNL     1      22.374   3.816  52.335  1.00  0.00    -0.306 N 
HETATM   19  N5  UNL     1      21.758   2.525  52.450  1.00  0.00    -0.258 N 
HETATM   20  H16 UNL     1      22.414   4.531  53.002  1.00  0.00     0.186 HD
ENDROOT
BRANCH  16  21
HETATM   21  C15 UNL     1      21.136   4.360  49.797  1.00  0.00     0.415 C 
HETATM   22  F1  UNL     1      20.303   3.964  48.781  1.00  0.00    -0.166 F 
HETATM   23  F2  UNL     1      21.326   5.767  49.592  1.00  0.00    -0.166 F 
HETATM   24  F3  UNL     1      20.436   4.260  50.969  1.00  0.00    -0.166 F 
ENDBRANCH  16  21
BRANCH   1  25
HETATM   25  N1  UNL     1      18.939   1.002  49.318  1.00  0.00    -0.226 NA
HETATM   26  H1  UNL     1      18.816  -0.039  49.159  1.00  0.00     0.145 HD
HETATM   27  H2  UNL     1      17.986   1.385  49.399  1.00  0.00     0.145 HD
ENDBRANCH   1  25
TORSDOF 2
ENDMDL
MODEL 3
REMARK VINA RESULT:      -7.5      9.666     11.407
REMARK  2 active torsions:
REMARK  status: ('A' for Active; 'I' for Inactive)
REMARK    1  A    between atoms: N1_1  and  N2_2 
REMARK    2  A    between atoms: C14_17  and  C15_18 
ROOT
HETATM    1  N2  UNL     1      21.140   2.110  50.476  1.00  0.00    -0.197 N 
HETATM    2  N3  UNL     1      21.120   1.933  51.961  1.00  0.00    -0.141 NA
HETATM    3  C1  UNL     1      22.352   1.992  52.584  1.00  0.00     0.148 C 
HETATM    4  C2  UNL     1      22.944   0.849  53.358  1.00  0.00     0.119 C 
HETATM    5  C3  UNL     1      24.311   0.981  52.705  1.00  0.00    -0.039 C 
HETATM    6  C4  UNL     1      25.357   0.176  52.687  1.00  0.00     0.006 C 
HETATM    7  C5  UNL     1      26.619   0.471  52.024  1.00  0.00    -0.004 C 
HETATM    8  C6  UNL     1      26.643   1.660  51.447  1.00  0.00    -0.024 C 
HETATM    9  C7  UNL     1      25.549   2.705  51.421  1.00  0.00     0.069 C 
HETATM   10  C8  UNL     1      24.222   2.184  51.822  1.00  0.00     0.102 C 
HETATM   11  C9  UNL     1      23.535   1.818  50.476  1.00  0.00     0.044 C 
HETATM   12  C10 UNL     1      22.449   2.435  49.870  1.00  0.00     0.070 C 
HETATM   13  C11 UNL     1      22.449   3.389  48.709  1.00  0.00     0.029 C 
HETATM   14  C12 UNL     1      22.677   4.648  48.282  1.00  0.00    -0.020 C 
HETATM   15  C13 UNL     1      23.141   5.828  49.125  1.00  0.00     0.072 C 
HETATM   16  C14 UNL     1      23.186   5.320  50.513  1.00  0.00     0.046 C 
HETATM   17  C16 UNL     1      23.824   4.923  51.578  1.00  0.00     0.119 C 
HETATM   18  N4  UNL     1      23.640   4.438  52.874  1.00  0.00    -0.306 N 
HETATM   19  N5  UNL     1      23.339   3.076  52.538  1.00  0.00    -0.258 N 
HETATM   20  H16 UNL     1      23.682   4.849  53.762  1.00  0.00     0.186 HD
ENDROOT
BRANCH  16  21
HETATM   21  C15 UNL     1      21.781   5.493  50.950  1.00  0.00     0.415 C 
HETATM   22  F1  UNL     1      20.838   5.253  49.982  1.00  0.00    -0.166 F 
HETATM   23  F2  UNL     1      21.625   6.881  51.281  1.00  0.00    -0.166 F 
HETATM   24  F3  UNL     1      21.403   4.812  52.075  1.00  0.00    -0.166 F 
ENDBRANCH  16  21
BRANCH   1  25
HETATM   25  N1  UNL     1      20.258   2.066  49.445  1.00  0.00    -0.226 NA
HETATM   26  H1  UNL     1      19.262   2.261  49.753  1.00  0.00     0.145 HD
HETATM   27  H2  UNL     1      20.479   2.791  48.748  1.00  0.00     0.145 HD
ENDBRANCH   1  25
TORSDOF 2
ENDMDL
MODEL 4
REMARK VINA RESULT:      -7.5      2.110      3.893
REMARK  2 active torsions:
REMARK  status: ('A' for Active; 'I' for Inactive)
REMARK    1  A    between atoms: N1_1  and  N2_2 
REMARK    2  A    between atoms: C14_17  and  C15_18 
ROOT
HETATM    1  N2  UNL     1      31.384   6.317  49.431  1.00  0.00    -0.197 N 
HETATM    2  N3  UNL     1      30.213   6.801  48.636  1.00  0.00    -0.141 NA
HETATM    3  C1  UNL     1      30.500   7.738  47.663  1.00  0.00     0.148 C 
HETATM    4  C2  UNL     1      29.934   9.129  47.659  1.00  0.00     0.119 C 
HETATM    5  C3  UNL     1      31.274   9.784  47.366  1.00  0.00    -0.039 C 
HETATM    6  C4  UNL     1      31.669  11.042  47.429  1.00  0.00     0.006 C 
HETATM    7  C5  UNL     1      33.004  11.510  47.083  1.00  0.00    -0.004 C 
HETATM    8  C6  UNL     1      33.804  10.547  46.660  1.00  0.00    -0.024 C 
HETATM    9  C7  UNL     1      33.485   9.078  46.490  1.00  0.00     0.069 C 
HETATM   10  C8  UNL     1      32.240   8.659  47.173  1.00  0.00     0.102 C 
HETATM   11  C9  UNL     1      32.724   8.119  48.549  1.00  0.00     0.044 C 
HETATM   12  C10 UNL     1      32.713   6.810  49.010  1.00  0.00     0.070 C 
HETATM   13  C11 UNL     1      33.864   5.849  49.110  1.00  0.00     0.029 C 
HETATM   14  C12 UNL     1      34.695   5.011  48.457  1.00  0.00    -0.020 C 
HETATM   15  C13 UNL     1      34.697   4.705  46.966  1.00  0.00     0.072 C 
HETATM   16  C14 UNL     1      33.537   5.440  46.417  1.00  0.00     0.046 C 
HETATM   17  C16 UNL     1      33.005   6.411  45.730  1.00  0.00     0.119 C 
HETATM   18  N4  UNL     1      31.784   6.954  45.326  1.00  0.00    -0.306 N 
HETATM   19  N5  UNL     1      31.448   7.624  46.549  1.00  0.00    -0.258 N 
HETATM   20  H16 UNL     1      31.271   6.917  44.493  1.00  0.00     0.186 HD
ENDROOT
BRANCH  16  21
HETATM   21  C15 UNL     1      32.427   4.491  46.664  1.00  0.00     0.415 C 
HETATM   22  F1  UNL     1      32.606   3.654  47.737  1.00  0.00    -0.166 F 
HETATM   23  F2  UNL     1      32.372   3.622  45.523  1.00  0.00    -0.166 F 
HETATM   24  F3  UNL     1      31.173   5.031  46.765  1.00  0.00    -0.166 F 
ENDBRANCH  16  21
BRANCH   1  25
HETATM   25  N1  UNL     1      31.614   5.501  50.491  1.00  0.00    -0.226 NA
HETATM   26  H1  UNL     1      30.798   4.853  50.690  1.00  0.00     0.145 HD
HETATM   27  H2  UNL     1      32.418   4.885  50.306  1.00  0.00     0.145 HD
ENDBRANCH   1  25
TORSDOF 2
ENDMDL
MODEL 5
REMARK VINA RESULT:      -7.3      8.856     10.890
REMARK  2 active torsions:
REMARK  status: ('A' for Active; 'I' for Inactive)
REMARK    1  A    between atoms: N1_1  and  N2_2 
REMARK    2  A    between atoms: C14_17  and  C15_18 
ROOT
HETATM    1  N2  UNL     1      22.107   3.633  49.041  1.00  0.00    -0.197 N 
HETATM    2  N3  UNL     1      21.013   3.465  50.048  1.00  0.00    -0.141 NA
HETATM    3  C1  UNL     1      21.424   3.125  51.322  1.00  0.00     0.148 C 
HETATM    4  C2  UNL     1      21.027   1.850  52.008  1.00  0.00     0.119 C 
HETATM    5  C3  UNL     1      22.440   1.542  52.478  1.00  0.00    -0.039 C 
HETATM    6  C4  UNL     1      22.981   0.447  52.978  1.00  0.00     0.006 C 
HETATM    7  C5  UNL     1      24.366   0.328  53.408  1.00  0.00    -0.004 C 
HETATM    8  C6  UNL     1      25.053   1.451  53.282  1.00  0.00    -0.024 C 
HETATM    9  C7  UNL     1      24.564   2.789  52.774  1.00  0.00     0.069 C 
HETATM   10  C8  UNL     1      23.268   2.716  52.062  1.00  0.00     0.102 C 
HETATM   11  C9  UNL     1      23.664   2.595  50.563  1.00  0.00     0.044 C 
HETATM   12  C10 UNL     1      23.491   3.529  49.551  1.00  0.00     0.070 C 
HETATM   13  C11 UNL     1      24.518   4.439  48.939  1.00  0.00     0.029 C 
HETATM   14  C12 UNL     1      25.253   5.561  49.071  1.00  0.00    -0.020 C 
HETATM   15  C13 UNL     1      25.241   6.528  50.248  1.00  0.00     0.072 C 
HETATM   16  C14 UNL     1      24.185   6.025  51.152  1.00  0.00     0.046 C 
HETATM   17  C16 UNL     1      23.782   5.440  52.245  1.00  0.00     0.119 C 
HETATM   18  N4  UNL     1      22.640   5.033  52.937  1.00  0.00    -0.306 N 
HETATM   19  N5  UNL     1      22.368   3.839  52.189  1.00  0.00    -0.258 N 
HETATM   20  H16 UNL     1      22.139   5.404  53.692  1.00  0.00     0.186 HD
ENDROOT
BRANCH  16  21
HETATM   21  C15 UNL     1      22.966   6.634  50.571  1.00  0.00     0.415 C 
HETATM   22  F1  UNL     1      22.917   6.640  49.199  1.00  0.00    -0.166 F 
HETATM   23  F2  UNL     1      22.984   8.019  50.946  1.00  0.00    -0.166 F 
HETATM   24  F3  UNL     1      21.767   6.155  51.026  1.00  0.00    -0.166 F 
ENDBRANCH  16  21
BRANCH   1  25
HETATM   25  N1  UNL     1      22.223   3.878  47.711  1.00  0.00    -0.226 NA
HETATM   26  H1  UNL     1      23.168   3.591  47.325  1.00  0.00     0.145 HD
HETATM   27  H2  UNL     1      21.529   3.331  47.181  1.00  0.00     0.145 HD
ENDBRANCH   1  25
TORSDOF 2
ENDMDL
MODEL 6
REMARK VINA RESULT:      -7.3      2.342      4.913
REMARK  2 active torsions:
REMARK  status: ('A' for Active; 'I' for Inactive)
REMARK    1  A    between atoms: N1_1  and  N2_2 
REMARK    2  A    between atoms: C14_17  and  C15_18 
ROOT
HETATM    1  N2  UNL     1      32.179   7.736  49.240  1.00  0.00    -0.197 N 
HETATM    2  N3  UNL     1      33.644   7.704  48.939  1.00  0.00    -0.141 NA
HETATM    3  C1  UNL     1      34.050   6.717  48.062  1.00  0.00     0.148 C 
HETATM    4  C2  UNL     1      35.016   5.628  48.430  1.00  0.00     0.119 C 
HETATM    5  C3  UNL     1      34.168   4.526  47.813  1.00  0.00    -0.039 C 
HETATM    6  C4  UNL     1      34.226   3.211  47.916  1.00  0.00     0.006 C 
HETATM    7  C5  UNL     1      33.338   2.287  47.226  1.00  0.00    -0.004 C 
HETATM    8  C6  UNL     1      32.462   2.887  46.440  1.00  0.00    -0.024 C 
HETATM    9  C7  UNL     1      32.304   4.370  46.184  1.00  0.00     0.069 C 
HETATM   10  C8  UNL     1      33.012   5.221  47.168  1.00  0.00     0.102 C 
HETATM   11  C9  UNL     1      31.926   5.561  48.227  1.00  0.00     0.044 C 
HETATM   12  C10 UNL     1      31.331   6.790  48.484  1.00  0.00     0.070 C 
HETATM   13  C11 UNL     1      29.966   7.266  48.076  1.00  0.00     0.029 C 
HETATM   14  C12 UNL     1      29.185   7.737  47.083  1.00  0.00    -0.020 C 
HETATM   15  C13 UNL     1      29.602   8.007  45.644  1.00  0.00     0.072 C 
HETATM   16  C14 UNL     1      31.055   7.739  45.604  1.00  0.00     0.046 C 
HETATM   17  C16 UNL     1      32.089   7.021  45.264  1.00  0.00     0.119 C 
HETATM   18  N4  UNL     1      33.480   6.956  45.352  1.00  0.00    -0.306 N 
HETATM   19  N5  UNL     1      33.573   6.466  46.698  1.00  0.00    -0.258 N 
HETATM   20  H16 UNL     1      34.207   7.168  44.732  1.00  0.00     0.186 HD
ENDROOT
BRANCH  16  21
HETATM   21  C15 UNL     1      31.619   9.029  46.063  1.00  0.00     0.415 C 
HETATM   22  F1  UNL     1      30.874   9.684  47.012  1.00  0.00    -0.166 F 
HETATM   23  F2  UNL     1      31.617   9.904  44.925  1.00  0.00    -0.166 F 
HETATM   24  F3  UNL     1      32.917   9.009  46.497  1.00  0.00    -0.166 F 
ENDBRANCH  16  21
BRANCH   1  25
HETATM   25  N1  UNL     1      31.332   8.424  50.048  1.00  0.00    -0.226 NA
HETATM   26  H1  UNL     1      31.736   8.590  51.015  1.00  0.00     0.145 HD
HETATM   27  H2  UNL     1      31.143   9.360  49.662  1.00  0.00     0.145 HD
ENDBRANCH   1  25
TORSDOF 2
ENDMDL
MODEL 7
REMARK VINA RESULT:      -7.3      9.677     11.506
REMARK  2 active torsions:
REMARK  status: ('A' for Active; 'I' for Inactive)
REMARK    1  A    between atoms: N1_1  and  N2_2 
REMARK    2  A    between atoms: C14_17  and  C15_18 
ROOT
HETATM    1  N2  UNL     1      23.942   4.676  51.734  1.00  0.00    -0.197 N 
HETATM    2  N3  UNL     1      24.755   3.450  51.466  1.00  0.00    -0.141 NA
HETATM    3  C1  UNL     1      24.044   2.267  51.395  1.00  0.00     0.148 C 
HETATM    4  C2  UNL     1      24.259   1.114  52.332  1.00  0.00     0.119 C 
HETATM    5  C3  UNL     1      22.774   0.907  52.583  1.00  0.00    -0.039 C 
HETATM    6  C4  UNL     1      22.126   0.201  53.491  1.00  0.00     0.006 C 
HETATM    7  C5  UNL     1      20.677   0.088  53.575  1.00  0.00    -0.004 C 
HETATM    8  C6  UNL     1      20.043   0.747  52.620  1.00  0.00    -0.024 C 
HETATM    9  C7  UNL     1      20.643   1.555  51.491  1.00  0.00     0.069 C 
HETATM   10  C8  UNL     1      22.074   1.879  51.688  1.00  0.00     0.102 C 
HETATM   11  C9  UNL     1      22.058   3.294  52.334  1.00  0.00     0.044 C 
HETATM   12  C10 UNL     1      22.475   4.496  51.779  1.00  0.00     0.070 C 
HETATM   13  C11 UNL     1      21.630   5.603  51.213  1.00  0.00     0.029 C 
HETATM   14  C12 UNL     1      20.886   6.037  50.176  1.00  0.00    -0.020 C 
HETATM   15  C13 UNL     1      20.610   5.294  48.876  1.00  0.00     0.072 C 
HETATM   16  C14 UNL     1      21.411   4.055  48.959  1.00  0.00     0.046 C 
HETATM   17  C16 UNL     1      21.533   2.766  49.111  1.00  0.00     0.119 C 
HETATM   18  N4  UNL     1      22.469   1.732  49.168  1.00  0.00    -0.306 N 
HETATM   19  N5  UNL     1      22.916   1.941  50.516  1.00  0.00    -0.258 N 
HETATM   20  H16 UNL     1      22.770   1.057  48.527  1.00  0.00     0.186 HD
ENDROOT
BRANCH  16  21
HETATM   21  C15 UNL     1      22.735   4.511  48.478  1.00  0.00     0.415 C 
HETATM   22  F1  UNL     1      23.068   5.797  48.825  1.00  0.00    -0.166 F 
HETATM   23  F2  UNL     1      22.667   4.521  47.045  1.00  0.00    -0.166 F 
HETATM   24  F3  UNL     1      23.804   3.711  48.781  1.00  0.00    -0.166 F 
ENDBRANCH  16  21
BRANCH   1  25
HETATM   25  N1  UNL     1      24.157   5.998  51.956  1.00  0.00    -0.226 NA
HETATM   26  H1  UNL     1      23.843   6.604  51.144  1.00  0.00     0.145 HD
HETATM   27  H2  UNL     1      23.613   6.322  52.769  1.00  0.00     0.145 HD
ENDBRANCH   1  25
TORSDOF 2
ENDMDL
MODEL 8
REMARK VINA RESULT:      -7.1      4.709      5.855
REMARK  2 active torsions:
REMARK  status: ('A' for Active; 'I' for Inactive)
REMARK    1  A    between atoms: N1_1  and  N2_2 
REMARK    2  A    between atoms: C14_17  and  C15_18 
ROOT
HETATM    1  N2  UNL     1      27.507  10.650  46.673  1.00  0.00    -0.197 N 
HETATM    2  N3  UNL     1      26.793  10.574  47.986  1.00  0.00    -0.141 NA
HETATM    3  C1  UNL     1      27.127   9.497  48.784  1.00  0.00     0.148 C 
HETATM    4  C2  UNL     1      26.144   8.444  49.209  1.00  0.00     0.119 C 
HETATM    5  C3  UNL     1      27.077   7.292  48.872  1.00  0.00    -0.039 C 
HETATM    6  C4  UNL     1      26.864   5.995  48.753  1.00  0.00     0.006 C 
HETATM    7  C5  UNL     1      27.891   5.010  48.445  1.00  0.00    -0.004 C 
HETATM    8  C6  UNL     1      29.098   5.533  48.320  1.00  0.00    -0.024 C 
HETATM    9  C7  UNL     1      29.506   6.982  48.471  1.00  0.00     0.069 C 
HETATM   10  C8  UNL     1      28.364   7.925  48.449  1.00  0.00     0.102 C 
HETATM   11  C9  UNL     1      28.280   8.384  46.965  1.00  0.00     0.044 C 
HETATM   12  C10 UNL     1      28.557   9.637  46.437  1.00  0.00     0.070 C 
HETATM   13  C11 UNL     1      29.781  10.080  45.686  1.00  0.00     0.029 C 
HETATM   14  C12 UNL     1      31.076  10.451  45.756  1.00  0.00    -0.020 C 
HETATM   15  C13 UNL     1      31.926  10.565  47.014  1.00  0.00     0.072 C 
HETATM   16  C14 UNL     1      31.003  10.282  48.134  1.00  0.00     0.046 C 
HETATM   17  C16 UNL     1      30.544   9.524  49.089  1.00  0.00     0.119 C 
HETATM   18  N4  UNL     1      29.578   9.456  50.094  1.00  0.00    -0.306 N 
HETATM   19  N5  UNL     1      28.456   9.109  49.271  1.00  0.00    -0.258 N 
HETATM   20  H16 UNL     1      29.600   9.596  51.063  1.00  0.00     0.186 HD
ENDROOT
BRANCH  16  21
HETATM   21  C15 UNL     1      30.387  11.609  48.367  1.00  0.00     0.415 C 
HETATM   22  F1  UNL     1      30.173  12.357  47.237  1.00  0.00    -0.166 F 
HETATM   23  F2  UNL     1      31.330  12.366  49.139  1.00  0.00    -0.166 F 
HETATM   24  F3  UNL     1      29.230  11.625  49.099  1.00  0.00    -0.166 F 
ENDBRANCH  16  21
BRANCH   1  25
HETATM   25  N1  UNL     1      27.486  11.426  45.560  1.00  0.00    -0.226 NA
HETATM   26  H1  UNL     1      28.142  11.071  44.805  1.00  0.00     0.145 HD
HETATM   27  H2  UNL     1      26.548  11.425  45.134  1.00  0.00     0.145 HD
ENDBRANCH   1  25
TORSDOF 2
ENDMDL
MODEL 9
REMARK VINA RESULT:      -7.1      9.253     11.133
REMARK  2 active torsions:
REMARK  status: ('A' for Active; 'I' for Inactive)
REMARK    1  A    between atoms: N1_1  and  N2_2 
REMARK    2  A    between atoms: C14_17  and  C15_18 
ROOT
HETATM    1  N2  UNL     1      21.052   3.022  51.745  1.00  0.00    -0.197 N 
HETATM    2  N3  UNL     1      21.754   4.212  52.319  1.00  0.00    -0.141 NA
HETATM    3  C1  UNL     1      23.133   4.134  52.345  1.00  0.00     0.148 C 
HETATM    4  C2  UNL     1      23.941   4.172  53.610  1.00  0.00     0.119 C 
HETATM    5  C3  UNL     1      24.814   2.993  53.208  1.00  0.00    -0.039 C 
HETATM    6  C4  UNL     1      25.652   2.244  53.901  1.00  0.00     0.006 C 
HETATM    7  C5  UNL     1      26.441   1.153  53.347  1.00  0.00    -0.004 C 
HETATM    8  C6  UNL     1      26.267   0.987  52.047  1.00  0.00    -0.024 C 
HETATM    9  C7  UNL     1      25.384   1.788  51.116  1.00  0.00     0.069 C 
HETATM   10  C8  UNL     1      24.392   2.633  51.820  1.00  0.00     0.102 C 
HETATM   11  C9  UNL     1      23.106   1.761  51.853  1.00  0.00     0.044 C 
HETATM   12  C10 UNL     1      21.912   1.963  51.174  1.00  0.00     0.070 C 
HETATM   13  C11 UNL     1      21.412   1.263  49.942  1.00  0.00     0.029 C 
HETATM   14  C12 UNL     1      21.495   1.139  48.602  1.00  0.00    -0.020 C 
HETATM   15  C13 UNL     1      22.401   1.926  47.666  1.00  0.00     0.072 C 
HETATM   16  C14 UNL     1      23.085   2.914  48.529  1.00  0.00     0.046 C 
HETATM   17  C16 UNL     1      24.134   3.371  49.153  1.00  0.00     0.119 C 
HETATM   18  N4  UNL     1      24.576   4.401  49.985  1.00  0.00    -0.306 N 
HETATM   19  N5  UNL     1      24.047   3.902  51.222  1.00  0.00    -0.258 N 
HETATM   20  H16 UNL     1      25.082   5.225  49.829  1.00  0.00     0.186 HD
ENDROOT
BRANCH  16  21
HETATM   21  C15 UNL     1      22.096   4.014  48.581  1.00  0.00     0.415 C 
HETATM   22  F1  UNL     1      20.783   3.616  48.578  1.00  0.00    -0.166 F 
HETATM   23  F2  UNL     1      22.257   4.766  47.369  1.00  0.00    -0.166 F 
HETATM   24  F3  UNL     1      22.250   4.926  49.591  1.00  0.00    -0.166 F 
ENDBRANCH  16  21
BRANCH   1  25
HETATM   25  N1  UNL     1      19.776   2.593  51.569  1.00  0.00    -0.226 NA
HETATM   26  H1  UNL     1      19.719   1.718  50.973  1.00  0.00     0.145 HD
HETATM   27  H2  UNL     1      19.351   2.341  52.472  1.00  0.00     0.145 HD
ENDBRANCH   1  25
TORSDOF 2
ENDMDL
