MODEL 1
REMARK VINA RESULT:      -9.8      0.000      0.000
REMARK  1 active torsions:
REMARK  status: ('A' for Active; 'I' for Inactive)
REMARK    1  A    between atoms: N1_1  and  C1_2 
ROOT
HETATM    1  C1  UNL     1      21.652   4.269  50.360  1.00  0.00     0.357 C 
HETATM    2  C2  UNL     1      20.283   4.815  50.567  1.00  0.00     0.076 C 
HETATM    3  C3  UNL     1      20.072   6.075  49.750  1.00  0.00     0.006 C 
HETATM    4  C4  UNL     1      21.123   7.048  50.243  1.00  0.00     0.030 C 
HETATM    5  C5  UNL     1      22.497   6.512  49.939  1.00  0.00     0.276 C 
HETATM    6  N2  UNL     1      22.559   5.134  49.624  1.00  0.00     0.134 N 
HETATM    7  C6  UNL     1      23.601   4.396  50.337  1.00  0.00     0.237 C 
HETATM    8  C7  UNL     1      24.903   5.042  50.541  1.00  0.00     0.042 C 
HETATM    9  C8  UNL     1      26.064   4.320  49.889  1.00  0.00     0.083 C 
HETATM   10  C9  UNL     1      26.377   3.002  50.447  1.00  0.00     0.359 A 
HETATM   11  O1  UNL     1      25.846   2.536  51.480  1.00  0.00    -0.144 OA
HETATM   12  N3  UNL     1      26.763   1.685  50.908  1.00  0.00     0.135 N 
HETATM   13  C10 UNL     1      26.295   0.980  52.049  1.00  0.00     0.264 A 
HETATM   14  C11 UNL     1      25.056   0.505  52.338  1.00  0.00     0.077 A 
HETATM   15  C12 UNL     1      24.635  -0.136  53.471  1.00  0.00     0.027 A 
HETATM   16  C13 UNL     1      23.339  -0.557  53.658  1.00  0.00     0.070 A 
HETATM   17  N4  UNL     1      23.042  -1.162  54.818  1.00  0.00    -0.241 NA
HETATM   18  C14 UNL     1      24.010  -1.342  55.766  1.00  0.00     0.234 A 
HETATM   19  N5  UNL     1      25.297  -0.929  55.594  1.00  0.00    -0.240 NA
HETATM   20  C15 UNL     1      25.600  -0.321  54.434  1.00  0.00     0.088 A 
HETATM   21  C16 UNL     1      26.890   0.153  54.170  1.00  0.00     0.151 A 
HETATM   22  N6  UNL     1      27.221   0.787  53.005  1.00  0.00    -0.232 NA
HETATM   23  C17 UNL     1      22.283  -0.380  52.677  1.00  0.00     0.029 C 
HETATM   24  C18 UNL     1      21.944   0.792  52.106  1.00  0.00    -0.015 C 
HETATM   25  C19 UNL     1      22.072   2.230  51.893  1.00  0.00     0.138 C 
HETATM   26  C20 UNL     1      22.838   3.252  52.377  1.00  0.00     0.102 C 
HETATM   27  F1  UNL     1      23.827   3.870  53.173  1.00  0.00    -0.248 F 
HETATM   28  C21 UNL     1      22.619   4.443  51.509  1.00  0.00     0.124 C 
HETATM   29  H16 UNL     1      27.495   1.158  50.333  1.00  0.00     0.331 HD
ENDROOT
BRANCH   1  30
HETATM   30  N1  UNL     1      21.718   2.946  49.779  1.00  0.00     0.119 N 
HETATM   31  H1  UNL     1      22.270   2.942  48.883  1.00  0.00     0.316 HD
HETATM   32  H2  UNL     1      20.761   2.558  49.585  1.00  0.00     0.316 HD
ENDBRANCH   1  30
TORSDOF 1
ENDMDL
MODEL 2
REMARK VINA RESULT:      -9.4      1.631      7.030
REMARK  1 active torsions:
REMARK  status: ('A' for Active; 'I' for Inactive)
REMARK    1  A    between atoms: N1_1  and  C1_2 
ROOT
HETATM    1  C1  UNL     1      26.949   0.929  52.661  1.00  0.00     0.357 C 
HETATM    2  C2  UNL     1      28.332   1.397  52.950  1.00  0.00     0.076 C 
HETATM    3  C3  UNL     1      29.089   0.378  53.778  1.00  0.00     0.006 C 
HETATM    4  C4  UNL     1      28.288   0.233  55.056  1.00  0.00     0.030 C 
HETATM    5  C5  UNL     1      26.926  -0.328  54.745  1.00  0.00     0.276 C 
HETATM    6  N2  UNL     1      26.533  -0.259  53.387  1.00  0.00     0.134 N 
HETATM    7  C6  UNL     1      25.186   0.265  53.172  1.00  0.00     0.237 C 
HETATM    8  C7  UNL     1      24.122  -0.132  54.103  1.00  0.00     0.042 C 
HETATM    9  C8  UNL     1      22.982  -0.893  53.457  1.00  0.00     0.083 C 
HETATM   10  C9  UNL     1      22.174  -0.123  52.507  1.00  0.00     0.359 A 
HETATM   11  O1  UNL     1      22.291   1.109  52.326  1.00  0.00    -0.144 OA
HETATM   12  N3  UNL     1      21.320   0.533  51.540  1.00  0.00     0.135 N 
HETATM   13  C10 UNL     1      21.283   1.910  51.191  1.00  0.00     0.264 A 
HETATM   14  C11 UNL     1      22.225   2.689  50.599  1.00  0.00     0.077 A 
HETATM   15  C12 UNL     1      22.165   4.026  50.315  1.00  0.00     0.027 A 
HETATM   16  C13 UNL     1      23.199   4.716  49.726  1.00  0.00     0.070 A 
HETATM   17  N4  UNL     1      23.029   6.029  49.510  1.00  0.00    -0.241 NA
HETATM   18  C14 UNL     1      21.860   6.638  49.872  1.00  0.00     0.234 A 
HETATM   19  N5  UNL     1      20.828   5.968  50.457  1.00  0.00    -0.240 NA
HETATM   20  C15 UNL     1      20.994   4.652  50.677  1.00  0.00     0.088 A 
HETATM   21  C16 UNL     1      19.999   3.879  51.287  1.00  0.00     0.151 A 
HETATM   22  N6  UNL     1      20.148   2.543  51.534  1.00  0.00    -0.232 NA
HETATM   23  C17 UNL     1      24.456   4.105  49.333  1.00  0.00     0.029 C 
HETATM   24  C18 UNL     1      25.249   3.373  50.139  1.00  0.00    -0.015 C 
HETATM   25  C19 UNL     1      25.604   2.748  51.409  1.00  0.00     0.138 C 
HETATM   26  C20 UNL     1      25.084   2.671  52.669  1.00  0.00     0.102 C 
HETATM   27  F1  UNL     1      24.167   2.919  53.715  1.00  0.00    -0.248 F 
HETATM   28  C21 UNL     1      25.840   1.626  53.416  1.00  0.00     0.124 C 
HETATM   29  H16 UNL     1      20.618  -0.076  51.010  1.00  0.00     0.331 HD
ENDROOT
BRANCH   1  30
HETATM   30  N1  UNL     1      26.631   0.740  51.263  1.00  0.00     0.119 N 
HETATM   31  H1  UNL     1      26.261  -0.228  51.077  1.00  0.00     0.316 HD
HETATM   32  H2  UNL     1      27.466   0.904  50.647  1.00  0.00     0.316 HD
ENDBRANCH   1  30
TORSDOF 1
ENDMDL
MODEL 3
REMARK VINA RESULT:      -8.9      1.893      6.986
REMARK  1 active torsions:
REMARK  status: ('A' for Active; 'I' for Inactive)
REMARK    1  A    between atoms: N1_1  and  C1_2 
ROOT
HETATM    1  C1  UNL     1      24.850   0.112  53.268  1.00  0.00     0.357 C 
HETATM    2  C2  UNL     1      25.703   0.002  54.482  1.00  0.00     0.076 C 
HETATM    3  C3  UNL     1      25.255  -1.150  55.359  1.00  0.00     0.006 C 
HETATM    4  C4  UNL     1      23.822  -0.832  55.731  1.00  0.00     0.030 C 
HETATM    5  C5  UNL     1      22.964  -0.817  54.494  1.00  0.00     0.276 C 
HETATM    6  N2  UNL     1      23.663  -0.727  53.267  1.00  0.00     0.134 N 
HETATM    7  C6  UNL     1      23.138   0.276  52.342  1.00  0.00     0.237 C 
HETATM    8  C7  UNL     1      21.683   0.438  52.236  1.00  0.00     0.042 C 
HETATM    9  C8  UNL     1      21.123   0.149  50.859  1.00  0.00     0.083 C 
HETATM   10  C9  UNL     1      21.531   1.083  49.807  1.00  0.00     0.359 A 
HETATM   11  O1  UNL     1      22.171   2.138  50.017  1.00  0.00    -0.144 OA
HETATM   12  N3  UNL     1      21.882   1.933  48.688  1.00  0.00     0.135 N 
HETATM   13  C10 UNL     1      22.590   3.164  48.706  1.00  0.00     0.264 A 
HETATM   14  C11 UNL     1      23.874   3.431  49.060  1.00  0.00     0.077 A 
HETATM   15  C12 UNL     1      24.509   4.641  49.103  1.00  0.00     0.027 A 
HETATM   16  C13 UNL     1      25.817   4.790  49.500  1.00  0.00     0.070 A 
HETATM   17  N4  UNL     1      26.327   6.031  49.514  1.00  0.00    -0.241 NA
HETATM   18  C14 UNL     1      25.553   7.095  49.143  1.00  0.00     0.234 A 
HETATM   19  N5  UNL     1      24.256   6.963  48.749  1.00  0.00    -0.240 NA
HETATM   20  C15 UNL     1      23.740   5.722  48.733  1.00  0.00     0.088 A 
HETATM   21  C16 UNL     1      22.412   5.484  48.359  1.00  0.00     0.151 A 
HETATM   22  N6  UNL     1      21.859   4.234  48.349  1.00  0.00    -0.232 NA
HETATM   23  C17 UNL     1      26.668   3.686  49.905  1.00  0.00     0.029 C 
HETATM   24  C18 UNL     1      26.361   2.777  50.851  1.00  0.00    -0.015 C 
HETATM   25  C19 UNL     1      25.498   2.189  51.870  1.00  0.00     0.138 C 
HETATM   26  C20 UNL     1      24.280   2.454  52.428  1.00  0.00     0.102 C 
HETATM   27  F1  UNL     1      23.072   3.153  52.640  1.00  0.00    -0.248 F 
HETATM   28  C21 UNL     1      23.878   1.269  53.239  1.00  0.00     0.124 C 
HETATM   29  H16 UNL     1      21.576   1.613  47.713  1.00  0.00     0.331 HD
ENDROOT
BRANCH   1  30
HETATM   30  N1  UNL     1      25.531  -0.067  52.005  1.00  0.00     0.119 N 
HETATM   31  H1  UNL     1      24.913  -0.535  51.292  1.00  0.00     0.316 HD
HETATM   32  H2  UNL     1      26.408  -0.635  52.112  1.00  0.00     0.316 HD
ENDBRANCH   1  30
TORSDOF 1
ENDMDL
MODEL 4
REMARK VINA RESULT:      -8.8      2.874      5.083
REMARK  1 active torsions:
REMARK  status: ('A' for Active; 'I' for Inactive)
REMARK    1  A    between atoms: N1_1  and  C1_2 
ROOT
HETATM    1  C1  UNL     1      18.705   2.943  50.393  1.00  0.00     0.357 C 
HETATM    2  C2  UNL     1      18.309   3.765  49.216  1.00  0.00     0.076 C 
HETATM    3  C3  UNL     1      16.835   3.596  48.907  1.00  0.00     0.006 C 
HETATM    4  C4  UNL     1      16.658   2.119  48.620  1.00  0.00     0.030 C 
HETATM    5  C5  UNL     1      16.977   1.317  49.854  1.00  0.00     0.276 C 
HETATM    6  N2  UNL     1      17.699   2.004  50.858  1.00  0.00     0.134 N 
HETATM    7  C6  UNL     1      18.846   1.270  51.389  1.00  0.00     0.237 C 
HETATM    8  C7  UNL     1      18.716  -0.177  51.602  1.00  0.00     0.042 C 
HETATM    9  C8  UNL     1      18.885  -0.611  53.043  1.00  0.00     0.083 C 
HETATM   10  C9  UNL     1      20.226  -0.421  53.602  1.00  0.00     0.359 A 
HETATM   11  O1  UNL     1      21.221  -0.070  52.930  1.00  0.00    -0.144 OA
HETATM   12  N3  UNL     1      21.506  -0.264  54.262  1.00  0.00     0.135 N 
HETATM   13  C10 UNL     1      22.750   0.114  53.689  1.00  0.00     0.264 A 
HETATM   14  C11 UNL     1      23.126   1.281  53.105  1.00  0.00     0.077 A 
HETATM   15  C12 UNL     1      24.326   1.593  52.528  1.00  0.00     0.027 A 
HETATM   16  C13 UNL     1      24.586   2.813  51.947  1.00  0.00     0.070 A 
HETATM   17  N4  UNL     1      25.797   2.997  51.399  1.00  0.00    -0.241 NA
HETATM   18  C14 UNL     1      26.724   1.992  51.429  1.00  0.00     0.234 A 
HETATM   19  N5  UNL     1      26.480   0.780  52.000  1.00  0.00    -0.240 NA
HETATM   20  C15 UNL     1      25.268   0.589  52.550  1.00  0.00     0.088 A 
HETATM   21  C16 UNL     1      24.915  -0.627  53.146  1.00  0.00     0.151 A 
HETATM   22  N6  UNL     1      23.686  -0.851  53.699  1.00  0.00    -0.232 NA
HETATM   23  C17 UNL     1      23.626   3.901  51.891  1.00  0.00     0.029 C 
HETATM   24  C18 UNL     1      22.373   3.806  51.408  1.00  0.00    -0.015 C 
HETATM   25  C19 UNL     1      21.254   3.090  50.804  1.00  0.00     0.138 C 
HETATM   26  C20 UNL     1      21.001   1.830  50.340  1.00  0.00     0.102 C 
HETATM   27  F1  UNL     1      21.276   0.481  50.028  1.00  0.00    -0.248 F 
HETATM   28  C21 UNL     1      19.535   1.715  50.097  1.00  0.00     0.124 C 
HETATM   29  H16 UNL     1      21.543  -0.455  55.314  1.00  0.00     0.331 HD
ENDROOT
BRANCH   1  30
HETATM   30  N1  UNL     1      19.198   3.681  51.535  1.00  0.00     0.119 N 
HETATM   31  H1  UNL     1      18.456   4.304  51.945  1.00  0.00     0.316 HD
HETATM   32  H2  UNL     1      20.032   4.270  51.288  1.00  0.00     0.316 HD
ENDBRANCH   1  30
TORSDOF 1
ENDMDL
MODEL 5
REMARK VINA RESULT:      -8.6      2.339      6.827
REMARK  1 active torsions:
REMARK  status: ('A' for Active; 'I' for Inactive)
REMARK    1  A    between atoms: N1_1  and  C1_2 
ROOT
HETATM    1  C1  UNL     1      24.849   2.079  52.472  1.00  0.00     0.357 C 
HETATM    2  C2  UNL     1      24.520   0.892  53.308  1.00  0.00     0.076 C 
HETATM    3  C3  UNL     1      25.780   0.179  53.756  1.00  0.00     0.006 C 
HETATM    4  C4  UNL     1      26.477  -0.236  52.476  1.00  0.00     0.030 C 
HETATM    5  C5  UNL     1      26.878   0.986  51.694  1.00  0.00     0.276 C 
HETATM    6  N2  UNL     1      26.241   2.191  52.075  1.00  0.00     0.134 N 
HETATM    7  C6  UNL     1      25.706   2.971  50.961  1.00  0.00     0.237 C 
HETATM    8  C7  UNL     1      26.487   3.051  49.721  1.00  0.00     0.042 C 
HETATM    9  C8  UNL     1      26.920   4.454  49.348  1.00  0.00     0.083 C 
HETATM   10  C9  UNL     1      25.835   5.371  48.990  1.00  0.00     0.359 A 
HETATM   11  O1  UNL     1      24.642   5.023  48.847  1.00  0.00    -0.144 OA
HETATM   12  N3  UNL     1      24.845   6.367  48.635  1.00  0.00     0.135 N 
HETATM   13  C10 UNL     1      23.453   6.184  48.418  1.00  0.00     0.264 A 
HETATM   14  C11 UNL     1      22.475   5.799  49.278  1.00  0.00     0.077 A 
HETATM   15  C12 UNL     1      21.148   5.595  49.019  1.00  0.00     0.027 A 
HETATM   16  C13 UNL     1      20.250   5.184  49.977  1.00  0.00     0.070 A 
HETATM   17  N4  UNL     1      18.975   5.004  49.598  1.00  0.00    -0.241 NA
HETATM   18  C14 UNL     1      18.605   5.227  48.301  1.00  0.00     0.234 A 
HETATM   19  N5  UNL     1      19.484   5.633  47.343  1.00  0.00    -0.240 NA
HETATM   20  C15 UNL     1      20.763   5.814  47.716  1.00  0.00     0.088 A 
HETATM   21  C16 UNL     1      21.744   6.214  46.801  1.00  0.00     0.151 A 
HETATM   22  N6  UNL     1      23.053   6.392  47.151  1.00  0.00    -0.232 NA
HETATM   23  C17 UNL     1      20.605   4.933  51.361  1.00  0.00     0.029 C 
HETATM   24  C18 UNL     1      21.595   4.118  51.773  1.00  0.00    -0.015 C 
HETATM   25  C19 UNL     1      22.697   3.186  51.558  1.00  0.00     0.138 C 
HETATM   26  C20 UNL     1      23.319   2.594  50.495  1.00  0.00     0.102 C 
HETATM   27  F1  UNL     1      23.564   2.288  49.139  1.00  0.00    -0.248 F 
HETATM   28  C21 UNL     1      24.568   1.950  50.992  1.00  0.00     0.124 C 
HETATM   29  H16 UNL     1      25.183   7.374  48.513  1.00  0.00     0.331 HD
ENDROOT
BRANCH   1  30
HETATM   30  N1  UNL     1      24.426   3.356  53.004  1.00  0.00     0.119 N 
HETATM   31  H1  UNL     1      24.390   4.096  52.256  1.00  0.00     0.316 HD
HETATM   32  H2  UNL     1      25.060   3.688  53.773  1.00  0.00     0.316 HD
ENDBRANCH   1  30
TORSDOF 1
ENDMDL
MODEL 6
REMARK VINA RESULT:      -8.5      1.753      2.570
REMARK  1 active torsions:
REMARK  status: ('A' for Active; 'I' for Inactive)
REMARK    1  A    between atoms: N1_1  and  C1_2 
ROOT
HETATM    1  C1  UNL     1      21.458   6.494  49.239  1.00  0.00     0.357 C 
HETATM    2  C2  UNL     1      20.070   6.948  49.527  1.00  0.00     0.076 C 
HETATM    3  C3  UNL     1      19.816   8.323  48.944  1.00  0.00     0.006 C 
HETATM    4  C4  UNL     1      20.832   9.229  49.609  1.00  0.00     0.030 C 
HETATM    5  C5  UNL     1      22.224   8.804  49.228  1.00  0.00     0.276 C 
HETATM    6  N2  UNL     1      22.336   7.506  48.676  1.00  0.00     0.134 N 
HETATM    7  C6  UNL     1      23.401   6.690  49.256  1.00  0.00     0.237 C 
HETATM    8  C7  UNL     1      24.680   7.334  49.582  1.00  0.00     0.042 C 
HETATM    9  C8  UNL     1      25.867   6.779  48.824  1.00  0.00     0.083 C 
HETATM   10  C9  UNL     1      26.224   5.394  49.144  1.00  0.00     0.359 A 
HETATM   11  O1  UNL     1      25.708   4.735  50.073  1.00  0.00    -0.144 OA
HETATM   12  N3  UNL     1      26.656   4.031  49.368  1.00  0.00     0.135 N 
HETATM   13  C10 UNL     1      26.211   3.120  50.363  1.00  0.00     0.264 A 
HETATM   14  C11 UNL     1      24.988   2.559  50.552  1.00  0.00     0.077 A 
HETATM   15  C12 UNL     1      24.587   1.714  51.550  1.00  0.00     0.027 A 
HETATM   16  C13 UNL     1      23.306   1.222  51.648  1.00  0.00     0.070 A 
HETATM   17  N4  UNL     1      23.028   0.411  52.681  1.00  0.00    -0.241 NA
HETATM   18  C14 UNL     1      23.999   0.100  53.591  1.00  0.00     0.234 A 
HETATM   19  N5  UNL     1      25.271   0.581  53.506  1.00  0.00    -0.240 NA
HETATM   20  C15 UNL     1      25.556   1.394  52.474  1.00  0.00     0.088 A 
HETATM   21  C16 UNL     1      26.829   1.952  52.310  1.00  0.00     0.151 A 
HETATM   22  N6  UNL     1      27.140   2.793  51.278  1.00  0.00    -0.232 NA
HETATM   23  C17 UNL     1      22.247   1.533  50.705  1.00  0.00     0.029 C 
HETATM   24  C18 UNL     1      21.868   2.775  50.347  1.00  0.00    -0.015 C 
HETATM   25  C19 UNL     1      21.946   4.231  50.392  1.00  0.00     0.138 C 
HETATM   26  C20 UNL     1      22.674   5.177  51.056  1.00  0.00     0.102 C 
HETATM   27  F1  UNL     1      23.638   5.679  51.957  1.00  0.00    -0.248 F 
HETATM   28  C21 UNL     1      22.416   6.495  50.409  1.00  0.00     0.124 C 
HETATM   29  H16 UNL     1      27.408   3.639  48.715  1.00  0.00     0.331 HD
ENDROOT
BRANCH   1  30
HETATM   30  N1  UNL     1      21.573   5.298  48.435  1.00  0.00     0.119 N 
HETATM   31  H1  UNL     1      21.089   4.478  48.885  1.00  0.00     0.316 HD
HETATM   32  H2  UNL     1      22.576   5.040  48.260  1.00  0.00     0.316 HD
ENDBRANCH   1  30
TORSDOF 1
ENDMDL
MODEL 7
REMARK VINA RESULT:      -8.4      2.712      7.074
REMARK  1 active torsions:
REMARK  status: ('A' for Active; 'I' for Inactive)
REMARK    1  A    between atoms: N1_1  and  C1_2 
ROOT
HETATM    1  C1  UNL     1      22.380   1.180  51.987  1.00  0.00     0.357 C 
HETATM    2  C2  UNL     1      23.193   0.224  52.788  1.00  0.00     0.076 C 
HETATM    3  C3  UNL     1      22.313  -0.829  53.432  1.00  0.00     0.006 C 
HETATM    4  C4  UNL     1      21.355  -0.057  54.317  1.00  0.00     0.030 C 
HETATM    5  C5  UNL     1      20.484   0.834  53.472  1.00  0.00     0.276 C 
HETATM    6  N2  UNL     1      20.942   1.061  52.153  1.00  0.00     0.134 N 
HETATM    7  C6  UNL     1      20.930   2.463  51.740  1.00  0.00     0.237 C 
HETATM    8  C7  UNL     1      19.803   3.308  52.157  1.00  0.00     0.042 C 
HETATM    9  C8  UNL     1      18.993   3.874  51.009  1.00  0.00     0.083 C 
HETATM   10  C9  UNL     1      19.697   4.840  50.161  1.00  0.00     0.359 A 
HETATM   11  O1  UNL     1      20.831   5.301  50.418  1.00  0.00    -0.144 OA
HETATM   12  N3  UNL     1      20.296   5.791  49.249  1.00  0.00     0.135 N 
HETATM   13  C10 UNL     1      21.557   6.436  49.355  1.00  0.00     0.264 A 
HETATM   14  C11 UNL     1      22.812   5.917  49.332  1.00  0.00     0.077 A 
HETATM   15  C12 UNL     1      24.005   6.570  49.478  1.00  0.00     0.027 A 
HETATM   16  C13 UNL     1      25.221   5.927  49.455  1.00  0.00     0.070 A 
HETATM   17  N4  UNL     1      26.323   6.674  49.624  1.00  0.00    -0.241 NA
HETATM   18  C14 UNL     1      26.216   8.024  49.812  1.00  0.00     0.234 A 
HETATM   19  N5  UNL     1      25.018   8.673  49.839  1.00  0.00    -0.240 NA
HETATM   20  C15 UNL     1      23.910   7.929  49.670  1.00  0.00     0.088 A 
HETATM   21  C16 UNL     1      22.632   8.501  49.698  1.00  0.00     0.151 A 
HETATM   22  N6  UNL     1      21.491   7.766  49.544  1.00  0.00    -0.232 NA
HETATM   23  C17 UNL     1      25.375   4.497  49.263  1.00  0.00     0.029 C 
HETATM   24  C18 UNL     1      24.754   3.546  49.988  1.00  0.00    -0.015 C 
HETATM   25  C19 UNL     1      23.860   3.079  51.043  1.00  0.00     0.138 C 
HETATM   26  C20 UNL     1      23.076   3.635  52.013  1.00  0.00     0.102 C 
HETATM   27  F1  UNL     1      22.491   4.668  52.777  1.00  0.00    -0.248 F 
HETATM   28  C21 UNL     1      22.208   2.562  52.575  1.00  0.00     0.124 C 
HETATM   29  H16 UNL     1      19.735   6.058  48.378  1.00  0.00     0.331 HD
ENDROOT
BRANCH   1  30
HETATM   30  N1  UNL     1      22.671   1.216  50.571  1.00  0.00     0.119 N 
HETATM   31  H1  UNL     1      23.401   1.939  50.342  1.00  0.00     0.316 HD
HETATM   32  H2  UNL     1      21.811   1.415  50.001  1.00  0.00     0.316 HD
ENDBRANCH   1  30
TORSDOF 1
ENDMDL
MODEL 8
REMARK VINA RESULT:      -8.3      3.214      5.855
REMARK  1 active torsions:
REMARK  status: ('A' for Active; 'I' for Inactive)
REMARK    1  A    between atoms: N1_1  and  C1_2 
ROOT
HETATM    1  C1  UNL     1      24.444   2.609  51.607  1.00  0.00     0.357 C 
HETATM    2  C2  UNL     1      25.750   1.907  51.731  1.00  0.00     0.076 C 
HETATM    3  C3  UNL     1      26.869   2.732  51.126  1.00  0.00     0.006 C 
HETATM    4  C4  UNL     1      26.487   2.912  49.672  1.00  0.00     0.030 C 
HETATM    5  C5  UNL     1      25.209   3.703  49.573  1.00  0.00     0.276 C 
HETATM    6  N2  UNL     1      24.454   3.793  50.766  1.00  0.00     0.134 N 
HETATM    7  C6  UNL     1      23.030   3.508  50.605  1.00  0.00     0.237 C 
HETATM    8  C7  UNL     1      22.347   4.003  49.403  1.00  0.00     0.042 C 
HETATM    9  C8  UNL     1      21.223   4.979  49.684  1.00  0.00     0.083 C 
HETATM   10  C9  UNL     1      20.066   4.417  50.385  1.00  0.00     0.359 A 
HETATM   11  O1  UNL     1      19.913   3.198  50.620  1.00  0.00    -0.144 OA
HETATM   12  N3  UNL     1      18.879   3.976  51.088  1.00  0.00     0.135 N 
HETATM   13  C10 UNL     1      18.510   2.651  51.444  1.00  0.00     0.264 A 
HETATM   14  C11 UNL     1      19.105   1.775  52.295  1.00  0.00     0.077 A 
HETATM   15  C12 UNL     1      18.740   0.489  52.582  1.00  0.00     0.027 A 
HETATM   16  C13 UNL     1      19.438  -0.314  53.454  1.00  0.00     0.070 A 
HETATM   17  N4  UNL     1      18.990  -1.565  53.644  1.00  0.00    -0.241 NA
HETATM   18  C14 UNL     1      17.878  -2.004  52.981  1.00  0.00     0.234 A 
HETATM   19  N5  UNL     1      17.178  -1.220  52.114  1.00  0.00    -0.240 NA
HETATM   20  C15 UNL     1      17.622   0.034  51.919  1.00  0.00     0.088 A 
HETATM   21  C16 UNL     1      16.981   0.910  51.035  1.00  0.00     0.151 A 
HETATM   22  N6  UNL     1      17.421   2.184  50.809  1.00  0.00    -0.232 NA
HETATM   23  C17 UNL     1      20.625   0.115  54.172  1.00  0.00     0.029 C 
HETATM   24  C18 UNL     1      21.722   0.653  53.605  1.00  0.00    -0.015 C 
HETATM   25  C19 UNL     1      22.513   1.121  52.472  1.00  0.00     0.138 C 
HETATM   26  C20 UNL     1      22.380   1.190  51.115  1.00  0.00     0.102 C 
HETATM   27  F1  UNL     1      21.756   1.019  49.860  1.00  0.00    -0.248 F 
HETATM   28  C21 UNL     1      23.480   2.047  50.587  1.00  0.00     0.124 C 
HETATM   29  H16 UNL     1      18.175   4.725  51.384  1.00  0.00     0.331 HD
ENDROOT
BRANCH   1  30
HETATM   30  N1  UNL     1      23.792   2.945  52.854  1.00  0.00     0.119 N 
HETATM   31  H1  UNL     1      24.402   3.553  53.460  1.00  0.00     0.316 HD
HETATM   32  H2  UNL     1      23.527   2.087  53.399  1.00  0.00     0.316 HD
ENDBRANCH   1  30
TORSDOF 1
ENDMDL
MODEL 9
REMARK VINA RESULT:      -8.2      3.628      7.157
REMARK  1 active torsions:
REMARK  status: ('A' for Active; 'I' for Inactive)
REMARK    1  A    between atoms: N1_1  and  C1_2 
ROOT
HETATM    1  C1  UNL     1      22.778   0.431  53.141  1.00  0.00     0.357 C 
HETATM    2  C2  UNL     1      23.498  -0.833  53.457  1.00  0.00     0.076 C 
HETATM    3  C3  UNL     1      24.926  -0.552  53.881  1.00  0.00     0.006 C 
HETATM    4  C4  UNL     1      25.560   0.152  52.698  1.00  0.00     0.030 C 
HETATM    5  C5  UNL     1      24.870   1.468  52.458  1.00  0.00     0.276 C 
HETATM    6  N2  UNL     1      23.610   1.620  53.083  1.00  0.00     0.134 N 
HETATM    7  C6  UNL     1      22.557   2.132  52.208  1.00  0.00     0.237 C 
HETATM    8  C7  UNL     1      22.898   3.183  51.241  1.00  0.00     0.042 C 
HETATM    9  C8  UNL     1      22.147   4.482  51.445  1.00  0.00     0.083 C 
HETATM   10  C9  UNL     1      20.702   4.416  51.206  1.00  0.00     0.359 A 
HETATM   11  O1  UNL     1      20.118   3.420  50.725  1.00  0.00    -0.144 OA
HETATM   12  N3  UNL     1      19.268   4.463  51.013  1.00  0.00     0.135 N 
HETATM   13  C10 UNL     1      18.419   3.456  50.480  1.00  0.00     0.264 A 
HETATM   14  C11 UNL     1      18.120   2.220  50.956  1.00  0.00     0.077 A 
HETATM   15  C12 UNL     1      17.326   1.261  50.390  1.00  0.00     0.027 A 
HETATM   16  C13 UNL     1      17.111   0.028  50.963  1.00  0.00     0.070 A 
HETATM   17  N4  UNL     1      16.323  -0.835  50.306  1.00  0.00    -0.241 NA
HETATM   18  C14 UNL     1      15.765  -0.481  49.109  1.00  0.00     0.234 A 
HETATM   19  N5  UNL     1      15.970   0.734  48.530  1.00  0.00    -0.240 NA
HETATM   20  C15 UNL     1      16.759   1.604  49.184  1.00  0.00     0.088 A 
HETATM   21  C16 UNL     1      17.043   2.872  48.663  1.00  0.00     0.151 A 
HETATM   22  N6  UNL     1      17.854   3.768  49.301  1.00  0.00    -0.232 NA
HETATM   23  C17 UNL     1      17.690  -0.385  52.229  1.00  0.00     0.029 C 
HETATM   24  C18 UNL     1      19.002  -0.342  52.533  1.00  0.00    -0.015 C 
HETATM   25  C19 UNL     1      20.404  -0.062  52.241  1.00  0.00     0.138 C 
HETATM   26  C20 UNL     1      21.137   0.401  51.187  1.00  0.00     0.102 C 
HETATM   27  F1  UNL     1      21.374   0.884  49.881  1.00  0.00    -0.248 F 
HETATM   28  C21 UNL     1      22.513   0.698  51.677  1.00  0.00     0.124 C 
HETATM   29  H16 UNL     1      18.762   5.361  51.300  1.00  0.00     0.331 HD
ENDROOT
BRANCH   1  30
HETATM   30  N1  UNL     1      21.630   0.722  53.971  1.00  0.00     0.119 N 
HETATM   31  H1  UNL     1      21.278  -0.139  54.464  1.00  0.00     0.316 HD
HETATM   32  H2  UNL     1      20.841   1.135  53.414  1.00  0.00     0.316 HD
ENDBRANCH   1  30
TORSDOF 1
ENDMDL
