MODEL 1
REMARK VINA RESULT:      -8.4      0.000      0.000
REMARK  8 active torsions:
REMARK  status: ('A' for Active; 'I' for Inactive)
REMARK    1  A    between atoms: C2_2  and  C3_3 
REMARK    2  A    between atoms: C4_4  and  C6_6 
REMARK    3  A    between atoms: C7_7  and  N1_8 
REMARK    4  A    between atoms: C9_11  and  N3_12 
REMARK    5  A    between atoms: N3_12  and  C10_13 
REMARK    6  A    between atoms: C10_13  and  C11_14 
REMARK    7  A    between atoms: C15_18  and  O1_19 
REMARK    8  A    between atoms: O1_19  and  C16_20 
ROOT
HETATM    1  N1  UNL     1      26.826   1.339  51.860  1.00  0.00    -0.226 N 
HETATM    2  N2  UNL     1      26.368   0.045  51.661  1.00  0.00    -0.178 NA
HETATM    3  C8  UNL     1      26.678  -0.811  52.552  1.00  0.00     0.186 C 
HETATM    4  C9  UNL     1      27.351  -0.029  53.499  1.00  0.00     0.348 A 
HETATM    5  N4  UNL     1      28.122  -0.329  54.614  1.00  0.00    -0.229 NA
HETATM    6  C18 UNL     1      28.739   0.790  54.920  1.00  0.00     0.233 A 
HETATM    7  N5  UNL     1      28.426   1.837  53.972  1.00  0.00    -0.222 NA
HETATM    8  C19 UNL     1      27.633   1.325  53.061  1.00  0.00     0.195 A 
ENDROOT
BRANCH   4   9
HETATM    9  N3  UNL     1      26.017   0.367  54.441  1.00  0.00     0.132 N 
HETATM   10  H13 UNL     1      25.736   1.182  53.895  1.00  0.00     0.320 HD
BRANCH   9  11
HETATM   11  C10 UNL     1      25.168  -0.761  54.331  1.00  0.00     0.312 C 
BRANCH  11  12
HETATM   12  C11 UNL     1      23.740  -0.565  54.070  1.00  0.00    -0.028 A 
HETATM   13  C12 UNL     1      22.882  -1.281  54.905  1.00  0.00     0.009 A 
HETATM   14  C13 UNL     1      21.509  -1.274  54.808  1.00  0.00     0.003 A 
HETATM   15  C14 UNL     1      20.922  -0.512  53.821  1.00  0.00     0.037 A 
HETATM   16  C15 UNL     1      21.733   0.202  52.985  1.00  0.00     0.079 A 
HETATM   17  C17 UNL     1      23.108   0.200  53.077  1.00  0.00     0.046 A 
BRANCH  16  18
HETATM   18  O1  UNL     1      21.182   0.982  51.978  1.00  0.00    -0.286 OA
BRANCH  18  19
HETATM   19  C16 UNL     1      20.382   2.076  52.349  1.00  0.00     0.403 C 
HETATM   20  O2  UNL     1      20.178   3.249  52.745  1.00  0.00    -0.276 OA
ENDBRANCH  18  19
ENDBRANCH  16  18
ENDBRANCH  11  12
ENDBRANCH   9  11
ENDBRANCH   4   9
BRANCH   1  21
HETATM   21  C7  UNL     1      26.660   2.586  51.139  1.00  0.00     0.121 C 
HETATM   22  C6  UNL     1      25.661   3.407  50.895  1.00  0.00     0.025 C 
BRANCH  22  23
HETATM   23  C4  UNL     1      24.245   3.539  51.180  1.00  0.00    -0.064 C 
HETATM   24  C3  UNL     1      23.213   3.601  50.351  1.00  0.00    -0.020 C 
HETATM   25  C5  UNL     1      24.019   3.609  52.665  1.00  0.00     0.048 C 
BRANCH  24  26
HETATM   26  C2  UNL     1      23.206   3.551  48.870  1.00  0.00     0.023 C 
HETATM   27  C1  UNL     1      22.642   2.264  48.353  1.00  0.00     0.009 C 
ENDBRANCH  24  26
ENDBRANCH  22  23
ENDBRANCH   1  21
TORSDOF 8
ENDMDL
MODEL 2
REMARK VINA RESULT:      -8.3      4.297      7.751
REMARK  8 active torsions:
REMARK  status: ('A' for Active; 'I' for Inactive)
REMARK    1  A    between atoms: C2_2  and  C3_3 
REMARK    2  A    between atoms: C4_4  and  C6_6 
REMARK    3  A    between atoms: C7_7  and  N1_8 
REMARK    4  A    between atoms: C9_11  and  N3_12 
REMARK    5  A    between atoms: N3_12  and  C10_13 
REMARK    6  A    between atoms: C10_13  and  C11_14 
REMARK    7  A    between atoms: C15_18  and  O1_19 
REMARK    8  A    between atoms: O1_19  and  C16_20 
ROOT
HETATM    1  N1  UNL     1      23.653   1.618  51.980  1.00  0.00    -0.226 N 
HETATM    2  N2  UNL     1      23.252   1.567  50.653  1.00  0.00    -0.178 NA
HETATM    3  C8  UNL     1      23.067   2.685  50.071  1.00  0.00     0.186 C 
HETATM    4  C9  UNL     1      23.445   3.603  51.059  1.00  0.00     0.348 A 
HETATM    5  N4  UNL     1      23.314   4.980  51.186  1.00  0.00    -0.229 NA
HETATM    6  C18 UNL     1      23.571   5.237  52.449  1.00  0.00     0.233 A 
HETATM    7  N5  UNL     1      23.822   4.021  53.191  1.00  0.00    -0.222 NA
HETATM    8  C19 UNL     1      23.679   3.013  52.363  1.00  0.00     0.195 A 
ENDROOT
BRANCH   4   9
HETATM    9  N3  UNL     1      25.066   3.727  50.631  1.00  0.00     0.132 N 
HETATM   10  H13 UNL     1      25.247   2.723  50.600  1.00  0.00     0.320 HD
BRANCH   9  11
HETATM   11  C10 UNL     1      25.043   4.380  49.375  1.00  0.00     0.312 C 
BRANCH  11  12
HETATM   12  C11 UNL     1      26.222   5.128  48.932  1.00  0.00    -0.028 A 
HETATM   13  C12 UNL     1      25.975   6.444  48.540  1.00  0.00     0.009 A 
HETATM   14  C13 UNL     1      26.929   7.308  48.052  1.00  0.00     0.003 A 
HETATM   15  C14 UNL     1      28.227   6.859  47.935  1.00  0.00     0.037 A 
HETATM   16  C15 UNL     1      28.505   5.575  48.310  1.00  0.00     0.079 A 
HETATM   17  C17 UNL     1      27.554   4.705  48.799  1.00  0.00     0.046 A 
BRANCH  16  18
HETATM   18  O1  UNL     1      29.798   5.084  48.209  1.00  0.00    -0.286 OA
BRANCH  18  19
HETATM   19  C16 UNL     1      30.849   5.873  48.708  1.00  0.00     0.403 C 
HETATM   20  O2  UNL     1      31.655   6.264  49.587  1.00  0.00    -0.276 OA
ENDBRANCH  18  19
ENDBRANCH  16  18
ENDBRANCH  11  12
ENDBRANCH   9  11
ENDBRANCH   4   9
BRANCH   1  21
HETATM   21  C7  UNL     1      24.011   0.612  52.961  1.00  0.00     0.121 C 
HETATM   22  C6  UNL     1      25.081  -0.106  53.227  1.00  0.00     0.025 C 
BRANCH  22  23
HETATM   23  C4  UNL     1      26.430  -0.302  52.732  1.00  0.00    -0.064 C 
HETATM   24  C3  UNL     1      27.406   0.576  52.557  1.00  0.00    -0.020 C 
HETATM   25  C5  UNL     1      26.655  -1.750  52.396  1.00  0.00     0.048 C 
BRANCH  24  26
HETATM   26  C2  UNL     1      27.403   2.035  52.819  1.00  0.00     0.023 C 
HETATM   27  C1  UNL     1      28.603   2.468  53.605  1.00  0.00     0.009 C 
ENDBRANCH  24  26
ENDBRANCH  22  23
ENDBRANCH   1  21
TORSDOF 8
ENDMDL
MODEL 3
REMARK VINA RESULT:      -8.2      3.868      7.267
REMARK  8 active torsions:
REMARK  status: ('A' for Active; 'I' for Inactive)
REMARK    1  A    between atoms: C2_2  and  C3_3 
REMARK    2  A    between atoms: C4_4  and  C6_6 
REMARK    3  A    between atoms: C7_7  and  N1_8 
REMARK    4  A    between atoms: C9_11  and  N3_12 
REMARK    5  A    between atoms: N3_12  and  C10_13 
REMARK    6  A    between atoms: C10_13  and  C11_14 
REMARK    7  A    between atoms: C15_18  and  O1_19 
REMARK    8  A    between atoms: O1_19  and  C16_20 
ROOT
HETATM    1  N1  UNL     1      23.543   1.221  52.271  1.00  0.00    -0.226 N 
HETATM    2  N2  UNL     1      22.934   1.182  51.026  1.00  0.00    -0.178 NA
HETATM    3  C8  UNL     1      22.699   2.305  50.472  1.00  0.00     0.186 C 
HETATM    4  C9  UNL     1      23.261   3.211  51.380  1.00  0.00     0.348 A 
HETATM    5  N4  UNL     1      23.201   4.591  51.517  1.00  0.00    -0.229 NA
HETATM    6  C18 UNL     1      23.664   4.842  52.721  1.00  0.00     0.233 A 
HETATM    7  N5  UNL     1      23.987   3.618  53.423  1.00  0.00    -0.222 NA
HETATM    8  C19 UNL     1      23.679   2.614  52.636  1.00  0.00     0.195 A 
ENDROOT
BRANCH   4   9
HETATM    9  N3  UNL     1      24.796   3.276  50.700  1.00  0.00     0.132 N 
HETATM   10  H13 UNL     1      24.903   2.268  50.576  1.00  0.00     0.320 HD
BRANCH   9  11
HETATM   11  C10 UNL     1      24.615   4.019  49.507  1.00  0.00     0.312 C 
BRANCH  11  12
HETATM   12  C11 UNL     1      25.659   4.950  49.074  1.00  0.00    -0.028 A 
HETATM   13  C12 UNL     1      26.932   4.394  48.946  1.00  0.00     0.009 A 
HETATM   14  C13 UNL     1      28.061   5.097  48.592  1.00  0.00     0.003 A 
HETATM   15  C14 UNL     1      27.946   6.448  48.342  1.00  0.00     0.037 A 
HETATM   16  C15 UNL     1      26.713   7.025  48.457  1.00  0.00     0.079 A 
HETATM   17  C17 UNL     1      25.579   6.326  48.811  1.00  0.00     0.046 A 
BRANCH  16  18
HETATM   18  O1  UNL     1      26.553   8.381  48.213  1.00  0.00    -0.286 OA
BRANCH  18  19
HETATM   19  C16 UNL     1      26.479   9.249  49.317  1.00  0.00     0.403 C 
HETATM   20  O2  UNL     1      26.955   9.937  50.253  1.00  0.00    -0.276 OA
ENDBRANCH  18  19
ENDBRANCH  16  18
ENDBRANCH  11  12
ENDBRANCH   9  11
ENDBRANCH   4   9
BRANCH   1  21
HETATM   21  C7  UNL     1      24.018   0.205  53.190  1.00  0.00     0.121 C 
HETATM   22  C6  UNL     1      25.148  -0.444  53.377  1.00  0.00     0.025 C 
BRANCH  22  23
HETATM   23  C4  UNL     1      26.483  -0.519  52.816  1.00  0.00    -0.064 C 
HETATM   24  C3  UNL     1      27.381   0.437  52.630  1.00  0.00    -0.020 C 
HETATM   25  C5  UNL     1      26.799  -1.934  52.418  1.00  0.00     0.048 C 
BRANCH  24  26
HETATM   26  C2  UNL     1      27.281   1.881  52.946  1.00  0.00     0.023 C 
HETATM   27  C1  UNL     1      28.520   2.399  53.611  1.00  0.00     0.009 C 
ENDBRANCH  24  26
ENDBRANCH  22  23
ENDBRANCH   1  21
TORSDOF 8
ENDMDL
MODEL 4
REMARK VINA RESULT:      -8.1      4.644      8.173
REMARK  8 active torsions:
REMARK  status: ('A' for Active; 'I' for Inactive)
REMARK    1  A    between atoms: C2_2  and  C3_3 
REMARK    2  A    between atoms: C4_4  and  C6_6 
REMARK    3  A    between atoms: C7_7  and  N1_8 
REMARK    4  A    between atoms: C9_11  and  N3_12 
REMARK    5  A    between atoms: N3_12  and  C10_13 
REMARK    6  A    between atoms: C10_13  and  C11_14 
REMARK    7  A    between atoms: C15_18  and  O1_19 
REMARK    8  A    between atoms: O1_19  and  C16_20 
ROOT
HETATM    1  N1  UNL     1      24.603   2.945  52.111  1.00  0.00    -0.226 N 
HETATM    2  N2  UNL     1      24.830   2.499  50.817  1.00  0.00    -0.178 NA
HETATM    3  C8  UNL     1      24.272   3.161  49.882  1.00  0.00     0.186 C 
HETATM    4  C9  UNL     1      23.660   4.209  50.580  1.00  0.00     0.348 A 
HETATM    5  N4  UNL     1      22.733   5.180  50.227  1.00  0.00    -0.229 NA
HETATM    6  C18 UNL     1      22.305   5.682  51.365  1.00  0.00     0.233 A 
HETATM    7  N5  UNL     1      22.908   5.006  52.494  1.00  0.00    -0.222 NA
HETATM    8  C19 UNL     1      23.684   4.059  52.023  1.00  0.00     0.195 A 
ENDROOT
BRANCH   4   9
HETATM    9  N3  UNL     1      24.936   5.300  50.497  1.00  0.00     0.132 N 
HETATM   10  H13 UNL     1      25.615   4.709  50.981  1.00  0.00     0.320 HD
BRANCH   9  11
HETATM   11  C10 UNL     1      25.158   5.469  49.109  1.00  0.00     0.312 C 
BRANCH  11  12
HETATM   12  C11 UNL     1      26.482   5.878  48.635  1.00  0.00    -0.028 A 
HETATM   13  C12 UNL     1      26.527   7.120  48.003  1.00  0.00     0.009 A 
HETATM   14  C13 UNL     1      27.657   7.677  47.449  1.00  0.00     0.003 A 
HETATM   15  C14 UNL     1      28.839   6.970  47.514  1.00  0.00     0.037 A 
HETATM   16  C15 UNL     1      28.832   5.749  48.126  1.00  0.00     0.079 A 
HETATM   17  C17 UNL     1      27.703   5.187  48.683  1.00  0.00     0.046 A 
BRANCH  16  18
HETATM   18  O1  UNL     1      30.000   5.005  48.213  1.00  0.00    -0.286 OA
BRANCH  18  19
HETATM   19  C16 UNL     1      31.186   5.672  48.568  1.00  0.00     0.403 C 
HETATM   20  O2  UNL     1      32.001   6.185  49.372  1.00  0.00    -0.276 OA
ENDBRANCH  18  19
ENDBRANCH  16  18
ENDBRANCH  11  12
ENDBRANCH   9  11
ENDBRANCH   4   9
BRANCH   1  21
HETATM   21  C7  UNL     1      25.075   2.524  53.416  1.00  0.00     0.121 C 
HETATM   22  C6  UNL     1      26.152   1.929  53.881  1.00  0.00     0.025 C 
BRANCH  22  23
HETATM   23  C4  UNL     1      27.408   1.385  53.401  1.00  0.00    -0.064 C 
HETATM   24  C3  UNL     1      27.647   0.270  52.725  1.00  0.00    -0.020 C 
HETATM   25  C5  UNL     1      28.545   2.293  53.776  1.00  0.00     0.048 C 
BRANCH  24  26
HETATM   26  C2  UNL     1      26.688  -0.758  52.257  1.00  0.00     0.023 C 
HETATM   27  C1  UNL     1      27.141  -2.145  52.592  1.00  0.00     0.009 C 
ENDBRANCH  24  26
ENDBRANCH  22  23
ENDBRANCH   1  21
TORSDOF 8
ENDMDL
MODEL 5
REMARK VINA RESULT:      -8.1      3.159      5.315
REMARK  8 active torsions:
REMARK  status: ('A' for Active; 'I' for Inactive)
REMARK    1  A    between atoms: C2_2  and  C3_3 
REMARK    2  A    between atoms: C4_4  and  C6_6 
REMARK    3  A    between atoms: C7_7  and  N1_8 
REMARK    4  A    between atoms: C9_11  and  N3_12 
REMARK    5  A    between atoms: N3_12  and  C10_13 
REMARK    6  A    between atoms: C10_13  and  C11_14 
REMARK    7  A    between atoms: C15_18  and  O1_19 
REMARK    8  A    between atoms: O1_19  and  C16_20 
ROOT
HETATM    1  N1  UNL     1      22.859   4.453  50.914  1.00  0.00    -0.226 N 
HETATM    2  N2  UNL     1      21.884   4.068  51.822  1.00  0.00    -0.178 NA
HETATM    3  C8  UNL     1      21.163   3.070  51.493  1.00  0.00     0.186 C 
HETATM    4  C9  UNL     1      21.734   2.675  50.277  1.00  0.00     0.348 A 
HETATM    5  N4  UNL     1      21.342   1.795  49.277  1.00  0.00    -0.229 NA
HETATM    6  C18 UNL     1      22.113   2.073  48.249  1.00  0.00     0.233 A 
HETATM    7  N5  UNL     1      22.993   3.185  48.539  1.00  0.00    -0.222 NA
HETATM    8  C19 UNL     1      22.719   3.603  49.753  1.00  0.00     0.195 A 
ENDROOT
BRANCH   4   9
HETATM    9  N3  UNL     1      22.843   1.579  50.903  1.00  0.00     0.132 N 
HETATM   10  H13 UNL     1      23.310   2.241  51.526  1.00  0.00     0.320 HD
BRANCH   9  11
HETATM   11  C10 UNL     1      22.042   0.603  51.543  1.00  0.00     0.312 C 
BRANCH  11  12
HETATM   12  C11 UNL     1      22.527  -0.037  52.768  1.00  0.00    -0.028 A 
HETATM   13  C12 UNL     1      21.534  -0.424  53.667  1.00  0.00     0.009 A 
HETATM   14  C13 UNL     1      21.770  -1.003  54.893  1.00  0.00     0.003 A 
HETATM   15  C14 UNL     1      23.075  -1.224  55.277  1.00  0.00     0.037 A 
HETATM   16  C15 UNL     1      24.074  -0.858  54.421  1.00  0.00     0.079 A 
HETATM   17  C17 UNL     1      23.843  -0.277  53.192  1.00  0.00     0.046 A 
BRANCH  16  18
HETATM   18  O1  UNL     1      25.401  -1.063  54.769  1.00  0.00    -0.286 OA
BRANCH  18  19
HETATM   19  C16 UNL     1      26.268   0.044  54.756  1.00  0.00     0.403 C 
HETATM   20  O2  UNL     1      26.669   1.174  55.124  1.00  0.00    -0.276 OA
ENDBRANCH  18  19
ENDBRANCH  16  18
ENDBRANCH  11  12
ENDBRANCH   9  11
ENDBRANCH   4   9
BRANCH   1  21
HETATM   21  C7  UNL     1      23.892   5.471  50.921  1.00  0.00     0.121 C 
HETATM   22  C6  UNL     1      25.113   5.577  50.440  1.00  0.00     0.025 C 
BRANCH  22  23
HETATM   23  C4  UNL     1      26.071   4.798  49.679  1.00  0.00    -0.064 C 
HETATM   24  C3  UNL     1      26.454   3.539  49.830  1.00  0.00    -0.020 C 
HETATM   25  C5  UNL     1      26.663   5.635  48.579  1.00  0.00     0.048 C 
BRANCH  24  26
HETATM   26  C2  UNL     1      26.006   2.545  50.834  1.00  0.00     0.023 C 
HETATM   27  C1  UNL     1      27.058   2.275  51.866  1.00  0.00     0.009 C 
ENDBRANCH  24  26
ENDBRANCH  22  23
ENDBRANCH   1  21
TORSDOF 8
ENDMDL
MODEL 6
REMARK VINA RESULT:      -8.0      3.878      6.110
REMARK  8 active torsions:
REMARK  status: ('A' for Active; 'I' for Inactive)
REMARK    1  A    between atoms: C2_2  and  C3_3 
REMARK    2  A    between atoms: C4_4  and  C6_6 
REMARK    3  A    between atoms: C7_7  and  N1_8 
REMARK    4  A    between atoms: C9_11  and  N3_12 
REMARK    5  A    between atoms: N3_12  and  C10_13 
REMARK    6  A    between atoms: C10_13  and  C11_14 
REMARK    7  A    between atoms: C15_18  and  O1_19 
REMARK    8  A    between atoms: O1_19  and  C16_20 
ROOT
HETATM    1  N1  UNL     1      23.611   4.903  50.351  1.00  0.00    -0.226 N 
HETATM    2  N2  UNL     1      23.640   4.653  51.715  1.00  0.00    -0.178 NA
HETATM    3  C8  UNL     1      22.837   3.763  52.147  1.00  0.00     0.186 C 
HETATM    4  C9  UNL     1      22.245   3.294  50.968  1.00  0.00     0.348 A 
HETATM    5  N4  UNL     1      21.155   2.476  50.705  1.00  0.00    -0.229 NA
HETATM    6  C18 UNL     1      20.894   2.646  49.427  1.00  0.00     0.233 A 
HETATM    7  N5  UNL     1      21.779   3.628  48.838  1.00  0.00    -0.222 NA
HETATM    8  C19 UNL     1      22.562   4.079  49.789  1.00  0.00     0.195 A 
ENDROOT
BRANCH   4   9
HETATM    9  N3  UNL     1      23.338   2.057  50.652  1.00  0.00     0.132 N 
HETATM   10  H13 UNL     1      24.148   2.662  50.510  1.00  0.00     0.320 HD
BRANCH   9  11
HETATM   11  C10 UNL     1      23.350   1.294  51.845  1.00  0.00     0.312 C 
BRANCH  11  12
HETATM   12  C11 UNL     1      24.631   0.879  52.421  1.00  0.00    -0.028 A 
HETATM   13  C12 UNL     1      24.566  -0.213  53.286  1.00  0.00     0.009 A 
HETATM   14  C13 UNL     1      25.640  -0.739  53.966  1.00  0.00     0.003 A 
HETATM   15  C14 UNL     1      26.878  -0.158  53.793  1.00  0.00     0.037 A 
HETATM   16  C15 UNL     1      26.980   0.914  52.952  1.00  0.00     0.079 A 
HETATM   17  C17 UNL     1      25.907   1.445  52.269  1.00  0.00     0.046 A 
BRANCH  16  18
HETATM   18  O1  UNL     1      28.207   1.528  52.750  1.00  0.00    -0.286 OA
BRANCH  18  19
HETATM   19  C16 UNL     1      28.778   2.238  53.820  1.00  0.00     0.403 C 
HETATM   20  O2  UNL     1      29.540   2.384  54.806  1.00  0.00    -0.276 OA
ENDBRANCH  18  19
ENDBRANCH  16  18
ENDBRANCH  11  12
ENDBRANCH   9  11
ENDBRANCH   4   9
BRANCH   1  21
HETATM   21  C7  UNL     1      24.371   5.770  49.471  1.00  0.00     0.121 C 
HETATM   22  C6  UNL     1      25.576   5.754  48.944  1.00  0.00     0.025 C 
BRANCH  22  23
HETATM   23  C4  UNL     1      26.765   4.924  48.933  1.00  0.00    -0.064 C 
HETATM   24  C3  UNL     1      27.989   5.199  48.506  1.00  0.00    -0.020 C 
HETATM   25  C5  UNL     1      26.459   3.570  49.511  1.00  0.00     0.048 C 
BRANCH  24  26
HETATM   26  C2  UNL     1      28.506   6.453  47.909  1.00  0.00     0.023 C 
HETATM   27  C1  UNL     1      30.003   6.496  47.900  1.00  0.00     0.009 C 
ENDBRANCH  24  26
ENDBRANCH  22  23
ENDBRANCH   1  21
TORSDOF 8
ENDMDL
MODEL 7
REMARK VINA RESULT:      -8.0      2.488      5.469
REMARK  8 active torsions:
REMARK  status: ('A' for Active; 'I' for Inactive)
REMARK    1  A    between atoms: C2_2  and  C3_3 
REMARK    2  A    between atoms: C4_4  and  C6_6 
REMARK    3  A    between atoms: C7_7  and  N1_8 
REMARK    4  A    between atoms: C9_11  and  N3_12 
REMARK    5  A    between atoms: N3_12  and  C10_13 
REMARK    6  A    between atoms: C10_13  and  C11_14 
REMARK    7  A    between atoms: C15_18  and  O1_19 
REMARK    8  A    between atoms: O1_19  and  C16_20 
ROOT
HETATM    1  N1  UNL     1      25.033   2.957  51.565  1.00  0.00    -0.226 N 
HETATM    2  N2  UNL     1      24.218   3.310  52.629  1.00  0.00    -0.178 NA
HETATM    3  C8  UNL     1      23.042   3.707  52.337  1.00  0.00     0.186 C 
HETATM    4  C9  UNL     1      23.008   3.548  50.947  1.00  0.00     0.348 A 
HETATM    5  N4  UNL     1      22.126   3.961  49.958  1.00  0.00    -0.229 NA
HETATM    6  C18 UNL     1      22.770   3.791  48.825  1.00  0.00     0.233 A 
HETATM    7  N5  UNL     1      24.116   3.312  49.054  1.00  0.00    -0.222 NA
HETATM    8  C19 UNL     1      24.292   3.227  50.352  1.00  0.00     0.195 A 
ENDROOT
BRANCH   4   9
HETATM    9  N3  UNL     1      22.408   1.978  50.923  1.00  0.00     0.132 N 
HETATM   10  H13 UNL     1      23.174   1.561  51.454  1.00  0.00     0.320 HD
BRANCH   9  11
HETATM   11  C10 UNL     1      21.172   2.070  51.609  1.00  0.00     0.312 C 
BRANCH  11  12
HETATM   12  C11 UNL     1      20.659   0.900  52.326  1.00  0.00    -0.028 A 
HETATM   13  C12 UNL     1      19.350   0.538  52.008  1.00  0.00     0.009 A 
HETATM   14  C13 UNL     1      18.661  -0.500  52.591  1.00  0.00     0.003 A 
HETATM   15  C14 UNL     1      19.293  -1.247  53.562  1.00  0.00     0.037 A 
HETATM   16  C15 UNL     1      20.576  -0.921  53.899  1.00  0.00     0.079 A 
HETATM   17  C17 UNL     1      21.271   0.118  53.318  1.00  0.00     0.046 A 
BRANCH  16  18
HETATM   18  O1  UNL     1      21.248  -1.647  54.871  1.00  0.00    -0.286 OA
BRANCH  18  19
HETATM   19  C16 UNL     1      22.553  -1.251  55.211  1.00  0.00     0.403 C 
HETATM   20  O2  UNL     1      23.731  -1.441  55.599  1.00  0.00    -0.276 OA
ENDBRANCH  18  19
ENDBRANCH  16  18
ENDBRANCH  11  12
ENDBRANCH   9  11
ENDBRANCH   4   9
BRANCH   1  21
HETATM   21  C7  UNL     1      26.377   2.422  51.463  1.00  0.00     0.121 C 
HETATM   22  C6  UNL     1      27.029   1.405  51.985  1.00  0.00     0.025 C 
BRANCH  22  23
HETATM   23  C4  UNL     1      26.805   0.304  52.902  1.00  0.00    -0.064 C 
HETATM   24  C3  UNL     1      27.620  -0.238  53.795  1.00  0.00    -0.020 C 
HETATM   25  C5  UNL     1      25.410  -0.233  52.737  1.00  0.00     0.048 C 
BRANCH  24  26
HETATM   26  C2  UNL     1      29.019   0.129  54.120  1.00  0.00     0.023 C 
HETATM   27  C1  UNL     1      29.999  -0.885  53.616  1.00  0.00     0.009 C 
ENDBRANCH  24  26
ENDBRANCH  22  23
ENDBRANCH   1  21
TORSDOF 8
ENDMDL
MODEL 8
REMARK VINA RESULT:      -8.0      3.450      5.426
REMARK  8 active torsions:
REMARK  status: ('A' for Active; 'I' for Inactive)
REMARK    1  A    between atoms: C2_2  and  C3_3 
REMARK    2  A    between atoms: C4_4  and  C6_6 
REMARK    3  A    between atoms: C7_7  and  N1_8 
REMARK    4  A    between atoms: C9_11  and  N3_12 
REMARK    5  A    between atoms: N3_12  and  C10_13 
REMARK    6  A    between atoms: C10_13  and  C11_14 
REMARK    7  A    between atoms: C15_18  and  O1_19 
REMARK    8  A    between atoms: O1_19  and  C16_20 
ROOT
HETATM    1  N1  UNL     1      25.060   3.404  50.324  1.00  0.00    -0.226 N 
HETATM    2  N2  UNL     1      24.679   3.634  51.637  1.00  0.00    -0.178 NA
HETATM    3  C8  UNL     1      23.432   3.566  51.888  1.00  0.00     0.186 C 
HETATM    4  C9  UNL     1      22.897   3.182  50.652  1.00  0.00     0.348 A 
HETATM    5  N4  UNL     1      21.606   3.113  50.148  1.00  0.00    -0.229 NA
HETATM    6  C18 UNL     1      21.747   2.986  48.847  1.00  0.00     0.233 A 
HETATM    7  N5  UNL     1      23.143   3.025  48.466  1.00  0.00    -0.222 NA
HETATM    8  C19 UNL     1      23.848   3.213  49.556  1.00  0.00     0.195 A 
ENDROOT
BRANCH   4   9
HETATM    9  N3  UNL     1      22.965   1.520  50.893  1.00  0.00     0.132 N 
HETATM   10  H13 UNL     1      23.972   1.475  51.058  1.00  0.00     0.320 HD
BRANCH   9  11
HETATM   11  C10 UNL     1      22.152   1.302  52.032  1.00  0.00     0.312 C 
BRANCH  11  12
HETATM   12  C11 UNL     1      22.615   0.394  53.084  1.00  0.00    -0.028 A 
HETATM   13  C12 UNL     1      21.604  -0.204  53.836  1.00  0.00     0.009 A 
HETATM   14  C13 UNL     1      21.817  -1.056  54.897  1.00  0.00     0.003 A 
HETATM   15  C14 UNL     1      23.115  -1.349  55.256  1.00  0.00     0.037 A 
HETATM   16  C15 UNL     1      24.130  -0.781  54.540  1.00  0.00     0.079 A 
HETATM   17  C17 UNL     1      23.923   0.073  53.477  1.00  0.00     0.046 A 
BRANCH  16  18
HETATM   18  O1  UNL     1      25.451  -1.050  54.869  1.00  0.00    -0.286 OA
BRANCH  18  19
HETATM   19  C16 UNL     1      26.314   0.037  55.091  1.00  0.00     0.403 C 
HETATM   20  O2  UNL     1      26.879   1.116  54.789  1.00  0.00    -0.276 OA
ENDBRANCH  18  19
ENDBRANCH  16  18
ENDBRANCH  11  12
ENDBRANCH   9  11
ENDBRANCH   4   9
BRANCH   1  21
HETATM   21  C7  UNL     1      26.339   3.337  49.645  1.00  0.00     0.121 C 
HETATM   22  C6  UNL     1      27.118   4.190  49.014  1.00  0.00     0.025 C 
BRANCH  22  23
HETATM   23  C4  UNL     1      27.152   5.594  48.653  1.00  0.00    -0.064 C 
HETATM   24  C3  UNL     1      28.165   6.340  48.236  1.00  0.00    -0.020 C 
HETATM   25  C5  UNL     1      25.786   6.204  48.808  1.00  0.00     0.048 C 
BRANCH  24  26
HETATM   26  C2  UNL     1      29.577   5.950  48.015  1.00  0.00     0.023 C 
HETATM   27  C1  UNL     1      30.332   6.987  47.241  1.00  0.00     0.009 C 
ENDBRANCH  24  26
ENDBRANCH  22  23
ENDBRANCH   1  21
TORSDOF 8
ENDMDL
MODEL 9
REMARK VINA RESULT:      -8.0      2.955      6.300
REMARK  8 active torsions:
REMARK  status: ('A' for Active; 'I' for Inactive)
REMARK    1  A    between atoms: C2_2  and  C3_3 
REMARK    2  A    between atoms: C4_4  and  C6_6 
REMARK    3  A    between atoms: C7_7  and  N1_8 
REMARK    4  A    between atoms: C9_11  and  N3_12 
REMARK    5  A    between atoms: N3_12  and  C10_13 
REMARK    6  A    between atoms: C10_13  and  C11_14 
REMARK    7  A    between atoms: C15_18  and  O1_19 
REMARK    8  A    between atoms: O1_19  and  C16_20 
ROOT
HETATM    1  N1  UNL     1      22.190   2.580  51.886  1.00  0.00    -0.226 N 
HETATM    2  N2  UNL     1      22.855   1.708  51.037  1.00  0.00    -0.178 NA
HETATM    3  C8  UNL     1      23.880   2.170  50.436  1.00  0.00     0.186 C 
HETATM    4  C9  UNL     1      23.983   3.461  50.969  1.00  0.00     0.348 A 
HETATM    5  N4  UNL     1      24.734   4.578  50.630  1.00  0.00    -0.229 NA
HETATM    6  C18 UNL     1      24.184   5.578  51.283  1.00  0.00     0.233 A 
HETATM    7  N5  UNL     1      23.020   5.141  52.024  1.00  0.00    -0.222 NA
HETATM    8  C19 UNL     1      22.850   3.863  51.781  1.00  0.00     0.195 A 
ENDROOT
BRANCH   4   9
HETATM    9  N3  UNL     1      24.995   3.085  52.256  1.00  0.00     0.132 N 
HETATM   10  H13 UNL     1      24.325   2.495  52.752  1.00  0.00     0.320 HD
BRANCH   9  11
HETATM   11  C10 UNL     1      26.079   2.399  51.655  1.00  0.00     0.312 C 
BRANCH  11  12
HETATM   12  C11 UNL     1      27.012   1.647  52.498  1.00  0.00    -0.028 A 
HETATM   13  C12 UNL     1      27.952   2.422  53.176  1.00  0.00     0.009 A 
HETATM   14  C13 UNL     1      28.944   1.918  53.987  1.00  0.00     0.003 A 
HETATM   15  C14 UNL     1      29.029   0.551  54.151  1.00  0.00     0.037 A 
HETATM   16  C15 UNL     1      28.123  -0.238  53.501  1.00  0.00     0.079 A 
HETATM   17  C17 UNL     1      27.128   0.262  52.688  1.00  0.00     0.046 A 
BRANCH  16  18
HETATM   18  O1  UNL     1      28.174  -1.617  53.640  1.00  0.00    -0.286 OA
BRANCH  18  19
HETATM   19  C16 UNL     1      27.588  -2.407  52.636  1.00  0.00     0.403 C 
HETATM   20  O2  UNL     1      26.661  -2.760  51.867  1.00  0.00    -0.276 OA
ENDBRANCH  18  19
ENDBRANCH  16  18
ENDBRANCH  11  12
ENDBRANCH   9  11
ENDBRANCH   4   9
BRANCH   1  21
HETATM   21  C7  UNL     1      21.050   2.446  52.772  1.00  0.00     0.121 C 
HETATM   22  C6  UNL     1      20.331   1.447  53.238  1.00  0.00     0.025 C 
BRANCH  22  23
HETATM   23  C4  UNL     1      20.261   0.001  53.148  1.00  0.00    -0.064 C 
HETATM   24  C3  UNL     1      21.075  -0.921  53.640  1.00  0.00    -0.020 C 
HETATM   25  C5  UNL     1      19.048  -0.411  52.361  1.00  0.00     0.048 C 
BRANCH  24  26
HETATM   26  C2  UNL     1      22.312  -0.741  54.436  1.00  0.00     0.023 C 
HETATM   27  C1  UNL     1      23.526  -0.611  53.568  1.00  0.00     0.009 C 
ENDBRANCH  24  26
ENDBRANCH  22  23
ENDBRANCH   1  21
TORSDOF 8
ENDMDL
