MODEL 1
REMARK VINA RESULT:      -9.8      0.000      0.000
REMARK  3 active torsions:
REMARK  status: ('A' for Active; 'I' for Inactive)
REMARK    1  A    between atoms: C10_10  and  C11_11 
REMARK    2  A    between atoms: N1_18  and  C18_19 
REMARK    3  A    between atoms: C19_21  and  O1_22 
ROOT
HETATM    1  C1  UNL     1      29.927  -0.861  53.621  1.00  0.00     0.048 C 
HETATM    2  C2  UNL     1      28.578  -0.282  53.463  1.00  0.00    -0.062 C 
HETATM    3  C3  UNL     1      28.689   0.986  53.872  1.00  0.00     0.009 C 
HETATM    4  C4  UNL     1      27.683   2.089  53.936  1.00  0.00     0.027 C 
HETATM    5  C5  UNL     1      26.374   1.949  53.726  1.00  0.00     0.026 C 
HETATM    6  C6  UNL     1      25.409   0.775  53.967  1.00  0.00     0.069 C 
HETATM    7  C7  UNL     1      25.414   0.298  52.463  1.00  0.00     0.043 C 
HETATM    8  C8  UNL     1      26.166  -0.883  52.481  1.00  0.00    -0.019 C 
HETATM    9  C9  UNL     1      27.447  -1.068  52.940  1.00  0.00     0.003 C 
HETATM   10  C10 UNL     1      24.292   0.951  51.984  1.00  0.00     0.151 C 
HETATM   11  N1  UNL     1      24.506   2.413  52.341  1.00  0.00    -0.259 N 
HETATM   12  N3  UNL     1      25.641   2.982  53.052  1.00  0.00    -0.300 N 
HETATM   13  H21 UNL     1      26.171   3.839  53.275  1.00  0.00     0.187 HD
ENDROOT
BRANCH  10  14
HETATM   14  C11 UNL     1      22.952   0.564  52.442  1.00  0.00    -0.033 A 
HETATM   15  C12 UNL     1      22.085   0.367  51.355  1.00  0.00     0.010 A 
HETATM   16  C13 UNL     1      20.749   0.007  51.579  1.00  0.00     0.007 A 
HETATM   17  C14 UNL     1      20.323  -0.146  52.876  1.00  0.00    -0.062 A 
HETATM   18  C15 UNL     1      18.914  -0.529  53.132  1.00  0.00     0.048 C 
HETATM   19  C16 UNL     1      21.178   0.046  53.937  1.00  0.00     0.007 A 
HETATM   20  C17 UNL     1      22.491   0.402  53.726  1.00  0.00     0.010 A 
ENDBRANCH  10  14
BRANCH  11  21
HETATM   21  C18 UNL     1      23.684   3.558  52.078  1.00  0.00     0.190 A 
HETATM   22  N2  UNL     1      24.004   4.622  51.866  1.00  0.00    -0.198 NA
HETATM   23  C19 UNL     1      23.327   5.726  51.624  1.00  0.00     0.171 A 
HETATM   24  C20 UNL     1      21.908   5.515  51.633  1.00  0.00     0.111 A 
HETATM   25  S1  UNL     1      21.787   3.702  52.002  1.00  0.00    -0.058 SA
BRANCH  23  26
HETATM   26  O1  UNL     1      23.580   7.079  51.351  1.00  0.00    -0.344 OA
HETATM   27  H19 UNL     1      23.512   7.818  52.012  1.00  0.00     0.219 HD
ENDBRANCH  23  26
ENDBRANCH  11  21
TORSDOF 3
ENDMDL
MODEL 2
REMARK VINA RESULT:      -9.6      1.567      5.912
REMARK  3 active torsions:
REMARK  status: ('A' for Active; 'I' for Inactive)
REMARK    1  A    between atoms: C10_10  and  C11_11 
REMARK    2  A    between atoms: N1_18  and  C18_19 
REMARK    3  A    between atoms: C19_21  and  O1_22 
ROOT
HETATM    1  C1  UNL     1      17.368  -1.695  53.255  1.00  0.00     0.048 C 
HETATM    2  C2  UNL     1      18.644  -1.010  52.964  1.00  0.00    -0.062 C 
HETATM    3  C3  UNL     1      18.402  -0.257  51.887  1.00  0.00     0.009 C 
HETATM    4  C4  UNL     1      19.283   0.679  51.125  1.00  0.00     0.027 C 
HETATM    5  C5  UNL     1      20.596   0.819  51.308  1.00  0.00     0.026 C 
HETATM    6  C6  UNL     1      21.686  -0.166  51.763  1.00  0.00     0.069 C 
HETATM    7  C7  UNL     1      21.711   0.354  53.253  1.00  0.00     0.043 C 
HETATM    8  C8  UNL     1      21.091  -0.669  53.982  1.00  0.00    -0.019 C 
HETATM    9  C9  UNL     1      19.845  -1.214  53.792  1.00  0.00     0.003 C 
HETATM   10  C10 UNL     1      22.747   1.268  53.188  1.00  0.00     0.151 C 
HETATM   11  N1  UNL     1      22.381   2.196  52.042  1.00  0.00    -0.259 N 
HETATM   12  N3  UNL     1      21.202   2.115  51.192  1.00  0.00    -0.300 N 
HETATM   13  H21 UNL     1      20.586   2.612  50.531  1.00  0.00     0.187 HD
ENDROOT
BRANCH  10  14
HETATM   14  C11 UNL     1      24.128   0.814  52.981  1.00  0.00    -0.033 A 
HETATM   15  C12 UNL     1      24.516  -0.092  53.981  1.00  0.00     0.010 A 
HETATM   16  C13 UNL     1      25.809  -0.633  53.974  1.00  0.00     0.007 A 
HETATM   17  C14 UNL     1      26.671  -0.254  52.973  1.00  0.00    -0.062 A 
HETATM   18  C15 UNL     1      28.041  -0.818  52.948  1.00  0.00     0.048 C 
HETATM   19  C16 UNL     1      26.284   0.632  51.995  1.00  0.00     0.007 A 
HETATM   20  C17 UNL     1      25.016   1.170  51.994  1.00  0.00     0.010 A 
ENDBRANCH  10  14
BRANCH  11  21
HETATM   21  C18 UNL     1      23.070   3.343  51.526  1.00  0.00     0.190 A 
HETATM   22  N2  UNL     1      23.337   4.305  52.060  1.00  0.00    -0.198 NA
HETATM   23  C19 UNL     1      23.954   5.401  51.668  1.00  0.00     0.171 A 
HETATM   24  C20 UNL     1      24.359   5.344  50.294  1.00  0.00     0.111 A 
HETATM   25  S1  UNL     1      23.762   3.664  49.782  1.00  0.00    -0.058 SA
BRANCH  23  26
HETATM   26  O1  UNL     1      24.346   6.638  52.203  1.00  0.00    -0.344 OA
HETATM   27  H19 UNL     1      25.096   7.195  51.864  1.00  0.00     0.219 HD
ENDBRANCH  23  26
ENDBRANCH  11  21
TORSDOF 3
ENDMDL
MODEL 3
REMARK VINA RESULT:      -9.5      2.520      4.576
REMARK  3 active torsions:
REMARK  status: ('A' for Active; 'I' for Inactive)
REMARK    1  A    between atoms: C10_10  and  C11_11 
REMARK    2  A    between atoms: N1_18  and  C18_19 
REMARK    3  A    between atoms: C19_21  and  O1_22 
ROOT
HETATM    1  C1  UNL     1      30.632  -0.506  53.813  1.00  0.00     0.048 C 
HETATM    2  C2  UNL     1      29.249  -0.101  53.492  1.00  0.00    -0.062 C 
HETATM    3  C3  UNL     1      28.582  -1.244  53.306  1.00  0.00     0.009 C 
HETATM    4  C4  UNL     1      27.146  -1.500  52.978  1.00  0.00     0.027 C 
HETATM    5  C5  UNL     1      26.257  -0.568  52.639  1.00  0.00     0.026 C 
HETATM    6  C6  UNL     1      26.399   0.778  51.907  1.00  0.00     0.069 C 
HETATM    7  C7  UNL     1      26.379   1.642  53.227  1.00  0.00     0.043 C 
HETATM    8  C8  UNL     1      27.703   2.075  53.372  1.00  0.00    -0.019 C 
HETATM    9  C9  UNL     1      28.845   1.314  53.436  1.00  0.00     0.003 C 
HETATM   10  C10 UNL     1      25.037   1.971  53.297  1.00  0.00     0.151 C 
HETATM   11  N1  UNL     1      24.303   0.642  53.221  1.00  0.00    -0.259 N 
HETATM   12  N3  UNL     1      24.897  -0.679  53.083  1.00  0.00    -0.300 N 
HETATM   13  H21 UNL     1      24.758  -1.697  53.185  1.00  0.00     0.187 HD
ENDROOT
BRANCH  10  14
HETATM   14  C11 UNL     1      24.439   2.877  52.309  1.00  0.00    -0.033 A 
HETATM   15  C12 UNL     1      23.839   3.981  52.935  1.00  0.00     0.010 A 
HETATM   16  C13 UNL     1      23.196   4.960  52.166  1.00  0.00     0.007 A 
HETATM   17  C14 UNL     1      23.172   4.807  50.800  1.00  0.00    -0.062 A 
HETATM   18  C15 UNL     1      22.498   5.834  49.970  1.00  0.00     0.048 C 
HETATM   19  C16 UNL     1      23.763   3.724  50.193  1.00  0.00     0.007 A 
HETATM   20  C17 UNL     1      24.396   2.757  50.940  1.00  0.00     0.010 A 
ENDBRANCH  10  14
BRANCH  11  21
HETATM   21  C18 UNL     1      22.897   0.360  53.268  1.00  0.00     0.190 A 
HETATM   22  N2  UNL     1      22.357  -0.434  53.866  1.00  0.00    -0.198 NA
HETATM   23  C19 UNL     1      21.086  -0.768  53.963  1.00  0.00     0.171 A 
HETATM   24  C20 UNL     1      20.238   0.050  53.144  1.00  0.00     0.111 A 
HETATM   25  S1  UNL     1      21.457   1.197  52.346  1.00  0.00    -0.058 SA
BRANCH  23  26
HETATM   26  O1  UNL     1      20.291  -1.701  54.645  1.00  0.00    -0.344 OA
HETATM   27  H19 UNL     1      20.584  -2.238  55.428  1.00  0.00     0.219 HD
ENDBRANCH  23  26
ENDBRANCH  11  21
TORSDOF 3
ENDMDL
MODEL 4
REMARK VINA RESULT:      -9.2      2.731      6.492
REMARK  3 active torsions:
REMARK  status: ('A' for Active; 'I' for Inactive)
REMARK    1  A    between atoms: C10_10  and  C11_11 
REMARK    2  A    between atoms: N1_18  and  C18_19 
REMARK    3  A    between atoms: C19_21  and  O1_22 
ROOT
HETATM    1  C1  UNL     1      17.724  -1.894  53.178  1.00  0.00     0.048 C 
HETATM    2  C2  UNL     1      18.992  -1.143  53.089  1.00  0.00    -0.062 C 
HETATM    3  C3  UNL     1      19.756  -1.623  54.075  1.00  0.00     0.009 C 
HETATM    4  C4  UNL     1      21.151  -1.285  54.490  1.00  0.00     0.027 C 
HETATM    5  C5  UNL     1      21.870  -0.269  54.013  1.00  0.00     0.026 C 
HETATM    6  C6  UNL     1      21.471   1.119  53.481  1.00  0.00     0.069 C 
HETATM    7  C7  UNL     1      21.574   0.704  51.962  1.00  0.00     0.043 C 
HETATM    8  C8  UNL     1      20.242   0.636  51.535  1.00  0.00    -0.019 C 
HETATM    9  C9  UNL     1      19.217  -0.111  52.062  1.00  0.00     0.003 C 
HETATM   10  C10 UNL     1      22.865   1.109  51.673  1.00  0.00     0.151 C 
HETATM   11  N1  UNL     1      23.731   0.440  52.727  1.00  0.00    -0.259 N 
HETATM   12  N3  UNL     1      23.282  -0.422  53.811  1.00  0.00    -0.300 N 
HETATM   13  H21 UNL     1      23.551  -1.131  54.511  1.00  0.00     0.187 HD
ENDROOT
BRANCH  10  14
HETATM   14  C11 UNL     1      23.209   2.536  51.643  1.00  0.00    -0.033 A 
HETATM   15  C12 UNL     1      23.453   2.968  50.330  1.00  0.00     0.010 A 
HETATM   16  C13 UNL     1      23.814   4.301  50.085  1.00  0.00     0.007 A 
HETATM   17  C14 UNL     1      23.918   5.156  51.155  1.00  0.00    -0.062 A 
HETATM   18  C15 UNL     1      24.297   6.569  50.916  1.00  0.00     0.048 C 
HETATM   19  C16 UNL     1      23.676   4.727  52.440  1.00  0.00     0.007 A 
HETATM   20  C17 UNL     1      23.323   3.420  52.690  1.00  0.00     0.010 A 
ENDBRANCH  10  14
BRANCH  11  21
HETATM   21  C18 UNL     1      25.153   0.478  52.915  1.00  0.00     0.190 A 
HETATM   22  N2  UNL     1      25.758   0.103  53.794  1.00  0.00    -0.198 NA
HETATM   23  C19 UNL     1      27.050   0.104  54.052  1.00  0.00     0.171 A 
HETATM   24  C20 UNL     1      27.822   0.698  53.000  1.00  0.00     0.111 A 
HETATM   25  S1  UNL     1      26.512   1.172  51.776  1.00  0.00    -0.058 SA
BRANCH  23  26
HETATM   26  O1  UNL     1      27.922  -0.314  55.070  1.00  0.00    -0.344 OA
HETATM   27  H19 UNL     1      28.313  -1.224  55.149  1.00  0.00     0.219 HD
ENDBRANCH  23  26
ENDBRANCH  11  21
TORSDOF 3
ENDMDL
MODEL 5
REMARK VINA RESULT:      -9.0      2.778      6.429
REMARK  3 active torsions:
REMARK  status: ('A' for Active; 'I' for Inactive)
REMARK    1  A    between atoms: C10_10  and  C11_11 
REMARK    2  A    between atoms: N1_18  and  C18_19 
REMARK    3  A    between atoms: C19_21  and  O1_22 
ROOT
HETATM    1  C1  UNL     1      22.815   6.536  48.204  1.00  0.00     0.048 C 
HETATM    2  C2  UNL     1      23.067   5.478  49.202  1.00  0.00    -0.062 C 
HETATM    3  C3  UNL     1      21.982   5.464  49.982  1.00  0.00     0.009 C 
HETATM    4  C4  UNL     1      21.625   4.608  51.154  1.00  0.00     0.027 C 
HETATM    5  C5  UNL     1      22.449   3.754  51.760  1.00  0.00     0.026 C 
HETATM    6  C6  UNL     1      23.974   3.758  51.965  1.00  0.00     0.069 C 
HETATM    7  C7  UNL     1      24.261   2.753  50.782  1.00  0.00     0.043 C 
HETATM    8  C8  UNL     1      24.828   3.554  49.783  1.00  0.00    -0.019 C 
HETATM    9  C9  UNL     1      24.307   4.684  49.201  1.00  0.00     0.003 C 
HETATM   10  C10 UNL     1      24.303   1.554  51.470  1.00  0.00     0.151 C 
HETATM   11  N1  UNL     1      22.996   1.498  52.243  1.00  0.00    -0.259 N 
HETATM   12  N3  UNL     1      21.947   2.506  52.262  1.00  0.00    -0.300 N 
HETATM   13  H21 UNL     1      20.958   2.712  52.475  1.00  0.00     0.187 HD
ENDROOT
BRANCH  10  14
HETATM   14  C11 UNL     1      25.397   1.271  52.408  1.00  0.00    -0.033 A 
HETATM   15  C12 UNL     1      26.150   0.163  51.985  1.00  0.00     0.010 A 
HETATM   16  C13 UNL     1      27.235  -0.282  52.752  1.00  0.00     0.007 A 
HETATM   17  C14 UNL     1      27.533   0.390  53.913  1.00  0.00    -0.062 A 
HETATM   18  C15 UNL     1      28.679  -0.065  54.737  1.00  0.00     0.048 C 
HETATM   19  C16 UNL     1      26.793   1.476  54.321  1.00  0.00     0.007 A 
HETATM   20  C17 UNL     1      25.725   1.919  53.574  1.00  0.00     0.010 A 
ENDBRANCH  10  14
BRANCH  11  21
HETATM   21  C18 UNL     1      22.480   0.481  53.113  1.00  0.00     0.190 A 
HETATM   22  N2  UNL     1      23.013  -0.077  53.940  1.00  0.00    -0.198 NA
HETATM   23  C19 UNL     1      22.624  -1.021  54.774  1.00  0.00     0.171 A 
HETATM   24  C20 UNL     1      21.254  -1.399  54.579  1.00  0.00     0.111 A 
HETATM   25  S1  UNL     1      20.742  -0.294  53.180  1.00  0.00    -0.058 SA
BRANCH  23  26
HETATM   26  O1  UNL     1      23.158  -1.785  55.823  1.00  0.00    -0.344 OA
HETATM   27  H19 UNL     1      23.924  -2.413  55.740  1.00  0.00     0.219 HD
ENDBRANCH  23  26
ENDBRANCH  11  21
TORSDOF 3
ENDMDL
MODEL 6
REMARK VINA RESULT:      -8.9      3.200      5.437
REMARK  3 active torsions:
REMARK  status: ('A' for Active; 'I' for Inactive)
REMARK    1  A    between atoms: C10_10  and  C11_11 
REMARK    2  A    between atoms: N1_18  and  C18_19 
REMARK    3  A    between atoms: C19_21  and  O1_22 
ROOT
HETATM    1  C1  UNL     1      26.603   7.350  47.829  1.00  0.00     0.048 C 
HETATM    2  C2  UNL     1      26.056   6.204  48.582  1.00  0.00    -0.062 C 
HETATM    3  C3  UNL     1      27.077   5.353  48.720  1.00  0.00     0.009 C 
HETATM    4  C4  UNL     1      27.165   4.026  49.402  1.00  0.00     0.027 C 
HETATM    5  C5  UNL     1      26.131   3.344  49.893  1.00  0.00     0.026 C 
HETATM    6  C6  UNL     1      24.654   3.261  49.469  1.00  0.00     0.069 C 
HETATM    7  C7  UNL     1      24.149   4.268  50.574  1.00  0.00     0.043 C 
HETATM    8  C8  UNL     1      23.839   5.432  49.860  1.00  0.00    -0.019 C 
HETATM    9  C9  UNL     1      24.652   6.162  49.027  1.00  0.00     0.003 C 
HETATM   10  C10 UNL     1      23.777   3.386  51.573  1.00  0.00     0.151 C 
HETATM   11  N1  UNL     1      25.002   2.518  51.807  1.00  0.00    -0.259 N 
HETATM   12  N3  UNL     1      26.276   2.596  51.108  1.00  0.00    -0.300 N 
HETATM   13  H21 UNL     1      27.277   2.347  51.120  1.00  0.00     0.187 HD
ENDROOT
BRANCH  10  14
HETATM   14  C11 UNL     1      22.621   2.501  51.391  1.00  0.00    -0.033 A 
HETATM   15  C12 UNL     1      21.618   2.781  52.334  1.00  0.00     0.010 A 
HETATM   16  C13 UNL     1      20.432   2.033  52.341  1.00  0.00     0.007 A 
HETATM   17  C14 UNL     1      20.286   1.033  51.409  1.00  0.00    -0.062 A 
HETATM   18  C15 UNL     1      19.038   0.232  51.400  1.00  0.00     0.048 C 
HETATM   19  C16 UNL     1      21.271   0.764  50.488  1.00  0.00     0.007 A 
HETATM   20  C17 UNL     1      22.439   1.493  50.474  1.00  0.00     0.010 A 
ENDBRANCH  10  14
BRANCH  11  21
HETATM   21  C18 UNL     1      25.211   1.447  52.738  1.00  0.00     0.190 A 
HETATM   22  N2  UNL     1      26.147   1.190  53.319  1.00  0.00    -0.198 NA
HETATM   23  C19 UNL     1      26.429   0.232  54.179  1.00  0.00     0.171 A 
HETATM   24  C20 UNL     1      25.317  -0.643  54.412  1.00  0.00     0.111 A 
HETATM   25  S1  UNL     1      24.011   0.086  53.315  1.00  0.00    -0.058 SA
BRANCH  23  26
HETATM   26  O1  UNL     1      27.514  -0.199  54.957  1.00  0.00    -0.344 OA
HETATM   27  H19 UNL     1      28.057  -1.012  54.780  1.00  0.00     0.219 HD
ENDBRANCH  23  26
ENDBRANCH  11  21
TORSDOF 3
ENDMDL
MODEL 7
REMARK VINA RESULT:      -8.8      3.297      5.764
REMARK  3 active torsions:
REMARK  status: ('A' for Active; 'I' for Inactive)
REMARK    1  A    between atoms: C10_10  and  C11_11 
REMARK    2  A    between atoms: N1_18  and  C18_19 
REMARK    3  A    between atoms: C19_21  and  O1_22 
ROOT
HETATM    1  C1  UNL     1      24.367   7.019  49.165  1.00  0.00     0.048 C 
HETATM    2  C2  UNL     1      24.554   5.730  49.860  1.00  0.00    -0.062 C 
HETATM    3  C3  UNL     1      25.556   5.124  49.215  1.00  0.00     0.009 C 
HETATM    4  C4  UNL     1      26.222   3.807  49.451  1.00  0.00     0.027 C 
HETATM    5  C5  UNL     1      25.804   2.877  50.308  1.00  0.00     0.026 C 
HETATM    6  C6  UNL     1      24.401   2.492  50.812  1.00  0.00     0.069 C 
HETATM    7  C7  UNL     1      24.536   3.280  52.172  1.00  0.00     0.043 C 
HETATM    8  C8  UNL     1      23.698   4.390  52.008  1.00  0.00    -0.019 C 
HETATM    9  C9  UNL     1      23.729   5.340  51.017  1.00  0.00     0.003 C 
HETATM   10  C10 UNL     1      24.971   2.269  53.011  1.00  0.00     0.151 C 
HETATM   11  N1  UNL     1      26.193   1.686  52.321  1.00  0.00    -0.259 N 
HETATM   12  N3  UNL     1      26.758   2.098  51.044  1.00  0.00    -0.300 N 
HETATM   13  H21 UNL     1      27.584   2.082  50.427  1.00  0.00     0.187 HD
ENDROOT
BRANCH  10  14
HETATM   14  C11 UNL     1      24.078   1.160  53.367  1.00  0.00    -0.033 A 
HETATM   15  C12 UNL     1      22.743   1.472  53.066  1.00  0.00     0.010 A 
HETATM   16  C13 UNL     1      21.726   0.548  53.346  1.00  0.00     0.007 A 
HETATM   17  C14 UNL     1      22.074  -0.655  53.913  1.00  0.00    -0.062 A 
HETATM   18  C15 UNL     1      21.014  -1.645  54.214  1.00  0.00     0.048 C 
HETATM   19  C16 UNL     1      23.385  -0.954  54.204  1.00  0.00     0.007 A 
HETATM   20  C17 UNL     1      24.390  -0.053  53.934  1.00  0.00     0.010 A 
ENDBRANCH  10  14
BRANCH  11  21
HETATM   21  C18 UNL     1      27.070   0.628  52.734  1.00  0.00     0.190 A 
HETATM   22  N2  UNL     1      26.986  -0.480  52.522  1.00  0.00    -0.198 NA
HETATM   23  C19 UNL     1      27.731  -1.512  52.863  1.00  0.00     0.171 A 
HETATM   24  C20 UNL     1      28.866  -1.135  53.655  1.00  0.00     0.111 A 
HETATM   25  S1  UNL     1      28.659   0.704  53.780  1.00  0.00    -0.058 SA
BRANCH  23  26
HETATM   26  O1  UNL     1      27.753  -2.903  52.678  1.00  0.00    -0.344 OA
HETATM   27  H19 UNL     1      27.110  -3.415  52.119  1.00  0.00     0.219 HD
ENDBRANCH  23  26
ENDBRANCH  11  21
TORSDOF 3
ENDMDL
MODEL 8
REMARK VINA RESULT:      -8.5      3.417      6.085
REMARK  3 active torsions:
REMARK  status: ('A' for Active; 'I' for Inactive)
REMARK    1  A    between atoms: C10_10  and  C11_11 
REMARK    2  A    between atoms: N1_18  and  C18_19 
REMARK    3  A    between atoms: C19_21  and  O1_22 
ROOT
HETATM    1  C1  UNL     1      27.564   8.085  46.918  1.00  0.00     0.048 C 
HETATM    2  C2  UNL     1      26.840   7.115  47.764  1.00  0.00    -0.062 C 
HETATM    3  C3  UNL     1      25.597   7.597  47.866  1.00  0.00     0.009 C 
HETATM    4  C4  UNL     1      24.392   7.063  48.571  1.00  0.00     0.027 C 
HETATM    5  C5  UNL     1      24.386   6.022  49.403  1.00  0.00     0.026 C 
HETATM    6  C6  UNL     1      25.451   5.460  50.361  1.00  0.00     0.069 C 
HETATM    7  C7  UNL     1      25.907   4.310  49.380  1.00  0.00     0.043 C 
HETATM    8  C8  UNL     1      27.163   4.729  48.923  1.00  0.00    -0.019 C 
HETATM    9  C9  UNL     1      27.492   5.909  48.301  1.00  0.00     0.003 C 
HETATM   10  C10 UNL     1      25.130   3.261  49.837  1.00  0.00     0.151 C 
HETATM   11  N1  UNL     1      23.705   3.789  49.814  1.00  0.00    -0.259 N 
HETATM   12  N3  UNL     1      23.271   5.120  49.416  1.00  0.00    -0.300 N 
HETATM   13  H21 UNL     1      22.480   5.709  49.114  1.00  0.00     0.187 HD
ENDROOT
BRANCH  10  14
HETATM   14  C11 UNL     1      25.375   2.674  51.159  1.00  0.00    -0.033 A 
HETATM   15  C12 UNL     1      26.442   1.762  51.116  1.00  0.00     0.010 A 
HETATM   16  C13 UNL     1      26.828   1.077  52.277  1.00  0.00     0.007 A 
HETATM   17  C14 UNL     1      26.139   1.324  53.440  1.00  0.00    -0.062 A 
HETATM   18  C15 UNL     1      26.534   0.610  54.678  1.00  0.00     0.048 C 
HETATM   19  C16 UNL     1      25.096   2.219  53.476  1.00  0.00     0.007 A 
HETATM   20  C17 UNL     1      24.709   2.896  52.341  1.00  0.00     0.010 A 
ENDBRANCH  10  14
BRANCH  11  21
HETATM   21  C18 UNL     1      22.474   3.139  50.161  1.00  0.00     0.190 A 
HETATM   22  N2  UNL     1      21.676   3.482  50.885  1.00  0.00    -0.198 NA
HETATM   23  C19 UNL     1      20.531   2.952  51.267  1.00  0.00     0.171 A 
HETATM   24  C20 UNL     1      20.262   1.698  50.625  1.00  0.00     0.111 A 
HETATM   25  S1  UNL     1      21.755   1.487  49.545  1.00  0.00    -0.058 SA
BRANCH  23  26
HETATM   26  O1  UNL     1      19.467   3.253  52.131  1.00  0.00    -0.344 OA
HETATM   27  H19 UNL     1      18.703   3.851  51.911  1.00  0.00     0.219 HD
ENDBRANCH  23  26
ENDBRANCH  11  21
TORSDOF 3
ENDMDL
MODEL 9
REMARK VINA RESULT:      -8.4      3.511      4.830
REMARK  3 active torsions:
REMARK  status: ('A' for Active; 'I' for Inactive)
REMARK    1  A    between atoms: C10_10  and  C11_11 
REMARK    2  A    between atoms: N1_18  and  C18_19 
REMARK    3  A    between atoms: C19_21  and  O1_22 
ROOT
HETATM    1  C1  UNL     1      28.033   5.993  48.312  1.00  0.00     0.048 C 
HETATM    2  C2  UNL     1      26.823   5.355  48.867  1.00  0.00    -0.062 C 
HETATM    3  C3  UNL     1      25.907   6.326  48.923  1.00  0.00     0.009 C 
HETATM    4  C4  UNL     1      24.481   6.306  49.373  1.00  0.00     0.027 C 
HETATM    5  C5  UNL     1      23.881   5.284  49.980  1.00  0.00     0.026 C 
HETATM    6  C6  UNL     1      24.409   4.187  50.922  1.00  0.00     0.069 C 
HETATM    7  C7  UNL     1      24.508   3.089  49.793  1.00  0.00     0.043 C 
HETATM    8  C8  UNL     1      25.884   2.953  49.568  1.00  0.00    -0.019 C 
HETATM    9  C9  UNL     1      26.791   3.927  49.228  1.00  0.00     0.003 C 
HETATM   10  C10 UNL     1      23.290   2.453  49.948  1.00  0.00     0.151 C 
HETATM   11  N1  UNL     1      22.254   3.562  49.871  1.00  0.00    -0.259 N 
HETATM   12  N3  UNL     1      22.507   4.985  49.694  1.00  0.00    -0.300 N 
HETATM   13  H21 UNL     1      22.112   5.899  49.427  1.00  0.00     0.187 HD
ENDROOT
BRANCH  10  14
HETATM   14  C11 UNL     1      23.013   1.657  51.150  1.00  0.00    -0.033 A 
HETATM   15  C12 UNL     1      21.960   0.755  50.926  1.00  0.00     0.010 A 
HETATM   16  C13 UNL     1      21.528  -0.090  51.958  1.00  0.00     0.007 A 
HETATM   17  C14 UNL     1      22.160  -0.009  53.176  1.00  0.00    -0.062 A 
HETATM   18  C15 UNL     1      21.718  -0.896  54.278  1.00  0.00     0.048 C 
HETATM   19  C16 UNL     1      23.192   0.875  53.388  1.00  0.00     0.007 A 
HETATM   20  C17 UNL     1      23.622   1.710  52.381  1.00  0.00     0.010 A 
ENDBRANCH  10  14
BRANCH  11  21
HETATM   21  C18 UNL     1      20.824   3.497  49.946  1.00  0.00     0.190 A 
HETATM   22  N2  UNL     1      20.152   3.735  50.825  1.00  0.00    -0.198 NA
HETATM   23  C19 UNL     1      18.844   3.696  50.984  1.00  0.00     0.171 A 
HETATM   24  C20 UNL     1      18.157   3.269  49.800  1.00  0.00     0.111 A 
HETATM   25  S1  UNL     1      19.558   2.984  48.619  1.00  0.00    -0.058 SA
BRANCH  23  26
HETATM   26  O1  UNL     1      17.897   3.956  51.986  1.00  0.00    -0.344 OA
HETATM   27  H19 UNL     1      18.070   3.906  52.964  1.00  0.00     0.219 HD
ENDBRANCH  23  26
ENDBRANCH  11  21
TORSDOF 3
ENDMDL
