MODEL 1
REMARK VINA RESULT:      -8.4      0.000      0.000
REMARK  7 active torsions:
REMARK  status: ('A' for Active; 'I' for Inactive)
REMARK    1  A    between atoms: C2_2  and  C3_3 
REMARK       I    between atoms: C3_3  and  N1_5 
REMARK    2  A    between atoms: N1_5  and  C4_6 
REMARK    3  A    between atoms: C6_8  and  N2_9 
REMARK    4  A    between atoms: C11_15  and  C12_16 
REMARK    5  A    between atoms: C18_24  and  C20_26 
REMARK    6  A    between atoms: C20_26  and  C21_27 
REMARK    7  A    between atoms: C21_27  and  N6_28 
ROOT
HETATM    1  C4  UNL     1      24.658   3.609  49.967  1.00  0.00     0.033 C 
HETATM    2  C5  UNL     1      24.079   4.203  51.016  1.00  0.00     0.030 C 
HETATM    3  C6  UNL     1      22.634   4.192  51.393  1.00  0.00     0.139 C 
HETATM    4  C18 UNL     1      21.680   4.534  50.304  1.00  0.00    -0.014 C 
HETATM    5  C19 UNL     1      22.249   5.810  49.652  1.00  0.00     0.018 C 
HETATM    6  C23 UNL     1      21.456   3.584  49.216  1.00  0.00     0.038 C 
HETATM    7  C24 UNL     1      22.629   2.859  48.711  1.00  0.00    -0.024 C 
HETATM    8  C25 UNL     1      23.945   2.805  48.951  1.00  0.00     0.025 C 
ENDROOT
BRANCH   3   9
HETATM    9  N2  UNL     1      22.273   2.969  52.082  1.00  0.00    -0.278 N 
HETATM   10  C7  UNL     1      23.454   2.195  52.410  1.00  0.00     0.276 A 
HETATM   11  N3  UNL     1      23.114   0.969  53.100  1.00  0.00    -0.326 N 
HETATM   12  C8  UNL     1      21.833   0.664  53.364  1.00  0.00     0.055 A 
HETATM   13  C11 UNL     1      23.924   0.005  53.559  1.00  0.00     0.048 A 
HETATM   14  C9  UNL     1      21.757  -0.544  54.026  1.00  0.00     0.033 A 
HETATM   15  C17 UNL     1      20.719   1.529  52.983  1.00  0.00     0.168 A 
HETATM   16  C10 UNL     1      23.076  -0.933  54.133  1.00  0.00     0.033 A 
HETATM   17  N5  UNL     1      20.946   2.636  52.366  1.00  0.00    -0.185 NA
BRANCH  13  18
HETATM   18  C12 UNL     1      25.369  -0.119  53.514  1.00  0.00     0.008 A 
HETATM   19  C13 UNL     1      26.165  -0.621  52.521  1.00  0.00     0.032 A 
HETATM   20  C14 UNL     1      27.494  -0.546  52.900  1.00  0.00     0.091 A 
HETATM   21  N4  UNL     1      27.521   0.002  54.126  1.00  0.00    -0.370 N 
HETATM   22  C15 UNL     1      28.703   0.277  54.929  1.00  0.00     0.154 C 
HETATM   23  C16 UNL     1      26.263   0.255  54.489  1.00  0.00     0.103 A 
ENDBRANCH  13  18
ENDBRANCH   3   9
BRANCH   4  24
HETATM   24  C20 UNL     1      20.428   5.018  50.995  1.00  0.00     0.041 C 
BRANCH  24  25
HETATM   25  C21 UNL     1      19.144   4.697  50.336  1.00  0.00     0.270 C 
BRANCH  25  26
HETATM   26  N6  UNL     1      18.334   3.866  51.168  1.00  0.00     0.079 N 
HETATM   27  C22 UNL     1      16.930   4.222  51.143  1.00  0.00     0.306 C 
HETATM   28  H25 UNL     1      18.638   4.043  52.172  1.00  0.00     0.315 HD
ENDBRANCH  25  26
ENDBRANCH  24  25
ENDBRANCH   4  24
BRANCH   1  29
HETATM   29  N1  UNL     1      26.063   3.691  49.708  1.00  0.00    -0.324 N 
HETATM   30  C3  UNL     1      26.459   4.848  48.978  1.00  0.00     0.244 C 
HETATM   31  O1  UNL     1      25.605   5.713  48.605  1.00  0.00    -0.268 OA
HETATM   32  H4  UNL     1      26.743   2.952  50.034  1.00  0.00     0.169 HD
BRANCH  30  33
HETATM   33  C2  UNL     1      27.871   5.034  48.657  1.00  0.00     0.064 C 
HETATM   34  C1  UNL     1      28.435   6.154  48.185  1.00  0.00     0.017 C 
ENDBRANCH  30  33
ENDBRANCH   1  29
TORSDOF 7
ENDMDL
MODEL 2
REMARK VINA RESULT:      -8.3      2.774      5.577
REMARK  7 active torsions:
REMARK  status: ('A' for Active; 'I' for Inactive)
REMARK    1  A    between atoms: C2_2  and  C3_3 
REMARK       I    between atoms: C3_3  and  N1_5 
REMARK    2  A    between atoms: N1_5  and  C4_6 
REMARK    3  A    between atoms: C6_8  and  N2_9 
REMARK    4  A    between atoms: C11_15  and  C12_16 
REMARK    5  A    between atoms: C18_24  and  C20_26 
REMARK    6  A    between atoms: C20_26  and  C21_27 
REMARK    7  A    between atoms: C21_27  and  N6_28 
ROOT
HETATM    1  C4  UNL     1      19.584   1.763  50.071  1.00  0.00     0.033 C 
HETATM    2  C5  UNL     1      20.719   1.094  49.836  1.00  0.00     0.030 C 
HETATM    3  C6  UNL     1      22.041   1.268  50.509  1.00  0.00     0.139 C 
HETATM    4  C18 UNL     1      22.542   2.666  50.595  1.00  0.00    -0.014 C 
HETATM    5  C19 UNL     1      22.366   3.249  49.180  1.00  0.00     0.018 C 
HETATM    6  C23 UNL     1      21.896   3.607  51.509  1.00  0.00     0.038 C 
HETATM    7  C24 UNL     1      20.433   3.541  51.611  1.00  0.00    -0.024 C 
HETATM    8  C25 UNL     1      19.428   2.836  51.076  1.00  0.00     0.025 C 
ENDROOT
BRANCH   3   9
HETATM    9  N2  UNL     1      22.083   0.583  51.785  1.00  0.00    -0.278 N 
HETATM   10  C7  UNL     1      23.451   0.392  52.222  1.00  0.00     0.276 A 
HETATM   11  N3  UNL     1      23.515  -0.290  53.497  1.00  0.00    -0.326 N 
HETATM   12  C8  UNL     1      22.390  -0.666  54.129  1.00  0.00     0.055 A 
HETATM   13  C11 UNL     1      24.590  -0.641  54.215  1.00  0.00     0.048 A 
HETATM   14  C9  UNL     1      22.700  -1.294  55.318  1.00  0.00     0.033 A 
HETATM   15  C17 UNL     1      21.057  -0.418  53.587  1.00  0.00     0.168 A 
HETATM   16  C10 UNL     1      24.078  -1.265  55.346  1.00  0.00     0.033 A 
HETATM   17  N5  UNL     1      20.924   0.185  52.457  1.00  0.00    -0.185 NA
BRANCH  13  18
HETATM   18  C12 UNL     1      26.006  -0.456  53.954  1.00  0.00     0.008 A 
HETATM   19  C13 UNL     1      26.806  -1.076  53.034  1.00  0.00     0.032 A 
HETATM   20  C14 UNL     1      28.098  -0.591  53.131  1.00  0.00     0.091 A 
HETATM   21  N4  UNL     1      28.098   0.329  54.110  1.00  0.00    -0.370 N 
HETATM   22  C15 UNL     1      29.239   1.107  54.571  1.00  0.00     0.154 C 
HETATM   23  C16 UNL     1      26.859   0.408  54.598  1.00  0.00     0.103 A 
ENDBRANCH  13  18
ENDBRANCH   3   9
BRANCH   4  24
HETATM   24  C20 UNL     1      24.039   2.554  50.750  1.00  0.00     0.041 C 
BRANCH  24  25
HETATM   25  C21 UNL     1      24.757   3.786  51.142  1.00  0.00     0.270 C 
BRANCH  25  26
HETATM   26  N6  UNL     1      26.155   3.671  50.880  1.00  0.00     0.079 N 
HETATM   27  C22 UNL     1      26.766   2.521  51.513  1.00  0.00     0.306 C 
HETATM   28  H25 UNL     1      26.626   4.510  51.335  1.00  0.00     0.315 HD
ENDBRANCH  25  26
ENDBRANCH  24  25
ENDBRANCH   4  24
BRANCH   1  29
HETATM   29  N1  UNL     1      18.371   1.505  49.358  1.00  0.00    -0.324 N 
HETATM   30  C3  UNL     1      17.578   0.458  49.907  1.00  0.00     0.244 C 
HETATM   31  O1  UNL     1      17.951  -0.173  50.946  1.00  0.00    -0.268 OA
HETATM   32  H4  UNL     1      18.093   2.051  48.498  1.00  0.00     0.169 HD
BRANCH  30  33
HETATM   33  C2  UNL     1      16.317   0.109  49.259  1.00  0.00     0.064 C 
HETATM   34  C1  UNL     1      15.899  -1.126  48.950  1.00  0.00     0.017 C 
ENDBRANCH  30  33
ENDBRANCH   1  29
TORSDOF 7
ENDMDL
MODEL 3
REMARK VINA RESULT:      -7.9      2.108      6.493
REMARK  7 active torsions:
REMARK  status: ('A' for Active; 'I' for Inactive)
REMARK    1  A    between atoms: C2_2  and  C3_3 
REMARK       I    between atoms: C3_3  and  N1_5 
REMARK    2  A    between atoms: N1_5  and  C4_6 
REMARK    3  A    between atoms: C6_8  and  N2_9 
REMARK    4  A    between atoms: C11_15  and  C12_16 
REMARK    5  A    between atoms: C18_24  and  C20_26 
REMARK    6  A    between atoms: C20_26  and  C21_27 
REMARK    7  A    between atoms: C21_27  and  N6_28 
ROOT
HETATM    1  C4  UNL     1      23.472   3.607  51.211  1.00  0.00     0.033 C 
HETATM    2  C5  UNL     1      23.823   2.393  50.773  1.00  0.00     0.030 C 
HETATM    3  C6  UNL     1      24.458   1.288  51.550  1.00  0.00     0.139 C 
HETATM    4  C18 UNL     1      25.655   1.665  52.348  1.00  0.00    -0.014 C 
HETATM    5  C19 UNL     1      26.544   2.480  51.389  1.00  0.00     0.018 C 
HETATM    6  C23 UNL     1      25.492   2.484  53.549  1.00  0.00     0.038 C 
HETATM    7  C24 UNL     1      24.509   3.572  53.486  1.00  0.00    -0.024 C 
HETATM    8  C25 UNL     1      23.657   4.094  52.594  1.00  0.00     0.025 C 
ENDROOT
BRANCH   3   9
HETATM    9  N2  UNL     1      23.480   0.554  52.329  1.00  0.00    -0.278 N 
HETATM   10  C7  UNL     1      22.139   0.812  51.845  1.00  0.00     0.276 A 
HETATM   11  N3  UNL     1      21.146   0.087  52.610  1.00  0.00    -0.326 N 
HETATM   12  C8  UNL     1      21.514  -0.706  53.630  1.00  0.00     0.055 A 
HETATM   13  C11 UNL     1      19.814   0.070  52.464  1.00  0.00     0.048 A 
HETATM   14  C9  UNL     1      20.402  -1.289  54.204  1.00  0.00     0.033 A 
HETATM   15  C17 UNL     1      22.907  -0.890  54.028  1.00  0.00     0.168 A 
HETATM   16  C10 UNL     1      19.357  -0.787  53.458  1.00  0.00     0.033 A 
HETATM   17  N5  UNL     1      23.844  -0.276  53.393  1.00  0.00    -0.185 NA
BRANCH  13  18
HETATM   18  C12 UNL     1      18.956   0.756  51.517  1.00  0.00     0.008 A 
HETATM   19  C13 UNL     1      18.166   0.236  50.529  1.00  0.00     0.032 A 
HETATM   20  C14 UNL     1      17.513   1.257  49.861  1.00  0.00     0.091 A 
HETATM   21  N4  UNL     1      17.899   2.409  50.436  1.00  0.00    -0.370 N 
HETATM   22  C15 UNL     1      17.471   3.750  50.066  1.00  0.00     0.154 C 
HETATM   23  C16 UNL     1      18.753   2.112  51.416  1.00  0.00     0.103 A 
ENDBRANCH  13  18
ENDBRANCH   3   9
BRANCH   4  24
HETATM   24  C20 UNL     1      26.431   0.386  52.551  1.00  0.00     0.041 C 
BRANCH  24  25
HETATM   25  C21 UNL     1      27.519   0.424  53.552  1.00  0.00     0.270 C 
BRANCH  25  26
HETATM   26  N6  UNL     1      28.057  -0.879  53.774  1.00  0.00     0.079 N 
HETATM   27  C22 UNL     1      29.504  -0.901  53.832  1.00  0.00     0.306 C 
HETATM   28  H25 UNL     1      27.814  -1.465  52.919  1.00  0.00     0.315 HD
ENDBRANCH  25  26
ENDBRANCH  24  25
ENDBRANCH   4  24
BRANCH   1  29
HETATM   29  N1  UNL     1      22.865   4.590  50.366  1.00  0.00    -0.324 N 
HETATM   30  C3  UNL     1      23.791   5.416  49.667  1.00  0.00     0.244 C 
HETATM   31  O1  UNL     1      25.045   5.264  49.810  1.00  0.00    -0.268 OA
HETATM   32  H4  UNL     1      21.818   4.688  50.272  1.00  0.00     0.169 HD
BRANCH  30  33
HETATM   33  C2  UNL     1      23.283   6.455  48.776  1.00  0.00     0.064 C 
HETATM   34  C1  UNL     1      23.939   7.006  47.746  1.00  0.00     0.017 C 
ENDBRANCH  30  33
ENDBRANCH   1  29
TORSDOF 7
ENDMDL
MODEL 4
REMARK VINA RESULT:      -7.7      2.453      6.277
REMARK  7 active torsions:
REMARK  status: ('A' for Active; 'I' for Inactive)
REMARK    1  A    between atoms: C2_2  and  C3_3 
REMARK       I    between atoms: C3_3  and  N1_5 
REMARK    2  A    between atoms: N1_5  and  C4_6 
REMARK    3  A    between atoms: C6_8  and  N2_9 
REMARK    4  A    between atoms: C11_15  and  C12_16 
REMARK    5  A    between atoms: C18_24  and  C20_26 
REMARK    6  A    between atoms: C20_26  and  C21_27 
REMARK    7  A    between atoms: C21_27  and  N6_28 
ROOT
HETATM    1  C4  UNL     1      19.201   3.017  51.098  1.00  0.00     0.033 C 
HETATM    2  C5  UNL     1      20.076   3.205  52.093  1.00  0.00     0.030 C 
HETATM    3  C6  UNL     1      21.366   2.489  52.326  1.00  0.00     0.139 C 
HETATM    4  C18 UNL     1      21.298   1.004  52.277  1.00  0.00    -0.014 C 
HETATM    5  C19 UNL     1      20.089   0.623  53.154  1.00  0.00     0.018 C 
HETATM    6  C23 UNL     1      21.100   0.333  50.993  1.00  0.00     0.038 C 
HETATM    7  C24 UNL     1      20.160   0.958  50.053  1.00  0.00    -0.024 C 
HETATM    8  C25 UNL     1      19.358   2.029  50.010  1.00  0.00     0.025 C 
ENDROOT
BRANCH   3   9
HETATM    9  N2  UNL     1      22.428   3.024  51.498  1.00  0.00    -0.278 N 
HETATM   10  C7  UNL     1      23.702   2.427  51.847  1.00  0.00     0.276 A 
HETATM   11  N3  UNL     1      24.777   2.949  51.029  1.00  0.00    -0.326 N 
HETATM   12  C8  UNL     1      24.533   3.873  50.085  1.00  0.00     0.055 A 
HETATM   13  C11 UNL     1      26.082   2.644  51.054  1.00  0.00     0.048 A 
HETATM   14  C9  UNL     1      25.704   4.215  49.439  1.00  0.00     0.033 A 
HETATM   15  C17 UNL     1      23.197   4.402  49.823  1.00  0.00     0.168 A 
HETATM   16  C10 UNL     1      26.653   3.434  50.064  1.00  0.00     0.033 A 
HETATM   17  N5  UNL     1      22.193   3.985  50.511  1.00  0.00    -0.185 NA
BRANCH  13  18
HETATM   18  C12 UNL     1      26.822   1.716  51.889  1.00  0.00     0.008 A 
HETATM   19  C13 UNL     1      26.827   0.348  51.871  1.00  0.00     0.032 A 
HETATM   20  C14 UNL     1      27.683  -0.132  52.846  1.00  0.00     0.091 A 
HETATM   21  N4  UNL     1      28.210   0.937  53.466  1.00  0.00    -0.370 N 
HETATM   22  C15 UNL     1      29.166   0.922  54.563  1.00  0.00     0.154 C 
HETATM   23  C16 UNL     1      27.699   2.031  52.899  1.00  0.00     0.103 A 
ENDBRANCH  13  18
ENDBRANCH   3   9
BRANCH   4  24
HETATM   24  C20 UNL     1      22.483   0.515  53.075  1.00  0.00     0.041 C 
BRANCH  24  25
HETATM   25  C21 UNL     1      22.494  -0.921  53.428  1.00  0.00     0.270 C 
BRANCH  25  26
HETATM   26  N6  UNL     1      23.072  -1.128  54.717  1.00  0.00     0.079 N 
HETATM   27  C22 UNL     1      24.492  -0.845  54.762  1.00  0.00     0.306 C 
HETATM   28  H25 UNL     1      22.999  -2.168  54.926  1.00  0.00     0.315 HD
ENDBRANCH  25  26
ENDBRANCH  24  25
ENDBRANCH   4  24
BRANCH   1  29
HETATM   29  N1  UNL     1      17.990   3.769  50.979  1.00  0.00    -0.324 N 
HETATM   30  C3  UNL     1      16.821   3.069  51.392  1.00  0.00     0.244 C 
HETATM   31  O1  UNL     1      16.888   1.876  51.824  1.00  0.00    -0.268 OA
HETATM   32  H4  UNL     1      17.973   4.760  50.615  1.00  0.00     0.169 HD
BRANCH  30  33
HETATM   33  C2  UNL     1      15.527   3.742  51.313  1.00  0.00     0.064 C 
HETATM   34  C1  UNL     1      14.648   3.889  52.313  1.00  0.00     0.017 C 
ENDBRANCH  30  33
ENDBRANCH   1  29
TORSDOF 7
ENDMDL
MODEL 5
REMARK VINA RESULT:      -7.6      2.272      3.973
REMARK  7 active torsions:
REMARK  status: ('A' for Active; 'I' for Inactive)
REMARK    1  A    between atoms: C2_2  and  C3_3 
REMARK       I    between atoms: C3_3  and  N1_5 
REMARK    2  A    between atoms: N1_5  and  C4_6 
REMARK    3  A    between atoms: C6_8  and  N2_9 
REMARK    4  A    between atoms: C11_15  and  C12_16 
REMARK    5  A    between atoms: C18_24  and  C20_26 
REMARK    6  A    between atoms: C20_26  and  C21_27 
REMARK    7  A    between atoms: C21_27  and  N6_28 
ROOT
HETATM    1  C4  UNL     1      24.453   4.330  50.802  1.00  0.00     0.033 C 
HETATM    2  C5  UNL     1      23.645   4.887  51.711  1.00  0.00     0.030 C 
HETATM    3  C6  UNL     1      22.355   5.601  51.473  1.00  0.00     0.139 C 
HETATM    4  C18 UNL     1      22.384   6.657  50.426  1.00  0.00    -0.014 C 
HETATM    5  C19 UNL     1      23.634   7.503  50.736  1.00  0.00     0.018 C 
HETATM    6  C23 UNL     1      22.489   6.273  49.019  1.00  0.00     0.038 C 
HETATM    7  C24 UNL     1      23.384   5.155  48.697  1.00  0.00    -0.024 C 
HETATM    8  C25 UNL     1      24.207   4.320  49.344  1.00  0.00     0.025 C 
ENDROOT
BRANCH   3   9
HETATM    9  N2  UNL     1      21.257   4.671  51.294  1.00  0.00    -0.278 N 
HETATM   10  C7  UNL     1      21.488   3.453  52.043  1.00  0.00     0.276 A 
HETATM   11  N3  UNL     1      20.401   2.510  51.878  1.00  0.00    -0.326 N 
HETATM   12  C8  UNL     1      19.345   2.812  51.104  1.00  0.00     0.055 A 
HETATM   13  C11 UNL     1      20.254   1.288  52.407  1.00  0.00     0.048 A 
HETATM   14  C9  UNL     1      18.443   1.768  51.100  1.00  0.00     0.033 A 
HETATM   15  C17 UNL     1      19.222   4.083  50.394  1.00  0.00     0.168 A 
HETATM   16  C10 UNL     1      19.036   0.831  51.920  1.00  0.00     0.033 A 
HETATM   17  N5  UNL     1      20.150   4.969  50.494  1.00  0.00    -0.185 NA
BRANCH  13  18
HETATM   18  C12 UNL     1      21.117   0.530  53.294  1.00  0.00     0.008 A 
HETATM   19  C13 UNL     1      20.798  -0.162  54.430  1.00  0.00     0.032 A 
HETATM   20  C14 UNL     1      21.936  -0.740  54.964  1.00  0.00     0.091 A 
HETATM   21  N4  UNL     1      22.959  -0.407  54.159  1.00  0.00    -0.370 N 
HETATM   22  C15 UNL     1      24.354  -0.789  54.322  1.00  0.00     0.154 C 
HETATM   23  C16 UNL     1      22.474   0.346  53.170  1.00  0.00     0.103 A 
ENDBRANCH  13  18
ENDBRANCH   3   9
BRANCH   4  24
HETATM   24  C20 UNL     1      21.238   7.584  50.749  1.00  0.00     0.041 C 
BRANCH  24  25
HETATM   25  C21 UNL     1      20.706   8.392  49.630  1.00  0.00     0.270 C 
BRANCH  25  26
HETATM   26  N6  UNL     1      19.282   8.480  49.693  1.00  0.00     0.079 N 
HETATM   27  C22 UNL     1      18.793   9.841  49.761  1.00  0.00     0.306 C 
HETATM   28  H25 UNL     1      18.985   8.041  50.616  1.00  0.00     0.315 HD
ENDBRANCH  25  26
ENDBRANCH  24  25
ENDBRANCH   4  24
BRANCH   1  29
HETATM   29  N1  UNL     1      25.672   3.668  51.152  1.00  0.00    -0.324 N 
HETATM   30  C3  UNL     1      25.540   2.265  51.358  1.00  0.00     0.244 C 
HETATM   31  O1  UNL     1      24.416   1.685  51.234  1.00  0.00    -0.268 OA
HETATM   32  H4  UNL     1      26.589   4.182  51.246  1.00  0.00     0.169 HD
BRANCH  30  33
HETATM   33  C2  UNL     1      26.722   1.487  51.721  1.00  0.00     0.064 C 
HETATM   34  C1  UNL     1      26.771   0.162  51.911  1.00  0.00     0.017 C 
ENDBRANCH  30  33
ENDBRANCH   1  29
TORSDOF 7
ENDMDL
MODEL 6
REMARK VINA RESULT:      -7.5      2.089      6.459
REMARK  7 active torsions:
REMARK  status: ('A' for Active; 'I' for Inactive)
REMARK    1  A    between atoms: C2_2  and  C3_3 
REMARK       I    between atoms: C3_3  and  N1_5 
REMARK    2  A    between atoms: N1_5  and  C4_6 
REMARK    3  A    between atoms: C6_8  and  N2_9 
REMARK    4  A    between atoms: C11_15  and  C12_16 
REMARK    5  A    between atoms: C18_24  and  C20_26 
REMARK    6  A    between atoms: C20_26  and  C21_27 
REMARK    7  A    between atoms: C21_27  and  N6_28 
ROOT
HETATM    1  C4  UNL     1      23.772   3.740  50.882  1.00  0.00     0.033 C 
HETATM    2  C5  UNL     1      24.028   2.471  50.547  1.00  0.00     0.030 C 
HETATM    3  C6  UNL     1      24.298   1.319  51.459  1.00  0.00     0.139 C 
HETATM    4  C18 UNL     1      25.325   1.554  52.509  1.00  0.00    -0.014 C 
HETATM    5  C19 UNL     1      26.520   2.192  51.775  1.00  0.00     0.018 C 
HETATM    6  C23 UNL     1      25.017   2.437  53.633  1.00  0.00     0.038 C 
HETATM    7  C24 UNL     1      24.247   3.652  53.336  1.00  0.00    -0.024 C 
HETATM    8  C25 UNL     1      23.708   4.252  52.267  1.00  0.00     0.025 C 
ENDROOT
BRANCH   3   9
HETATM    9  N2  UNL     1      23.071   0.767  51.996  1.00  0.00    -0.278 N 
HETATM   10  C7  UNL     1      21.930   1.181  51.204  1.00  0.00     0.276 A 
HETATM   11  N3  UNL     1      20.693   0.638  51.724  1.00  0.00    -0.326 N 
HETATM   12  C8  UNL     1      20.695  -0.146  52.815  1.00  0.00     0.055 A 
HETATM   13  C11 UNL     1      19.443   0.796  51.268  1.00  0.00     0.048 A 
HETATM   14  C9  UNL     1      19.408  -0.541  53.119  1.00  0.00     0.033 A 
HETATM   15  C17 UNL     1      21.916  -0.498  53.534  1.00  0.00     0.168 A 
HETATM   16  C10 UNL     1      18.648   0.062  52.139  1.00  0.00     0.033 A 
HETATM   17  N5  UNL     1      23.053  -0.051  53.129  1.00  0.00    -0.185 NA
BRANCH  13  18
HETATM   18  C12 UNL     1      18.936   1.545  50.133  1.00  0.00     0.008 A 
HETATM   19  C13 UNL     1      17.644   1.839  49.795  1.00  0.00     0.032 A 
HETATM   20  C14 UNL     1      17.619   2.579  48.627  1.00  0.00     0.091 A 
HETATM   21  N4  UNL     1      18.895   2.744  48.241  1.00  0.00    -0.370 N 
HETATM   22  C15 UNL     1      19.361   3.459  47.062  1.00  0.00     0.154 C 
HETATM   23  C16 UNL     1      19.675   2.131  49.132  1.00  0.00     0.103 A 
ENDBRANCH  13  18
ENDBRANCH   3   9
BRANCH   4  24
HETATM   24  C20 UNL     1      25.834   0.186  52.895  1.00  0.00     0.041 C 
BRANCH  24  25
HETATM   25  C21 UNL     1      27.294  -0.029  52.789  1.00  0.00     0.270 C 
BRANCH  25  26
HETATM   26  N6  UNL     1      27.794  -0.725  53.930  1.00  0.00     0.079 N 
HETATM   27  C22 UNL     1      28.575   0.112  54.817  1.00  0.00     0.306 C 
HETATM   28  H25 UNL     1      28.483  -1.453  53.572  1.00  0.00     0.315 HD
ENDBRANCH  25  26
ENDBRANCH  24  25
ENDBRANCH   4  24
BRANCH   1  29
HETATM   29  N1  UNL     1      23.527   4.763  49.912  1.00  0.00    -0.324 N 
HETATM   30  C3  UNL     1      24.702   5.403  49.425  1.00  0.00     0.244 C 
HETATM   31  O1  UNL     1      25.855   5.066  49.841  1.00  0.00    -0.268 OA
HETATM   32  H4  UNL     1      22.555   5.016  49.589  1.00  0.00     0.169 HD
BRANCH  30  33
HETATM   33  C2  UNL     1      24.571   6.464  48.430  1.00  0.00     0.064 C 
HETATM   34  C1  UNL     1      25.560   7.233  47.955  1.00  0.00     0.017 C 
ENDBRANCH  30  33
ENDBRANCH   1  29
TORSDOF 7
ENDMDL
MODEL 7
REMARK VINA RESULT:      -7.4      2.115      2.686
REMARK  7 active torsions:
REMARK  status: ('A' for Active; 'I' for Inactive)
REMARK    1  A    between atoms: C2_2  and  C3_3 
REMARK       I    between atoms: C3_3  and  N1_5 
REMARK    2  A    between atoms: N1_5  and  C4_6 
REMARK    3  A    between atoms: C6_8  and  N2_9 
REMARK    4  A    between atoms: C11_15  and  C12_16 
REMARK    5  A    between atoms: C18_24  and  C20_26 
REMARK    6  A    between atoms: C20_26  and  C21_27 
REMARK    7  A    between atoms: C21_27  and  N6_28 
ROOT
HETATM    1  C4  UNL     1      25.099   5.504  49.587  1.00  0.00     0.033 C 
HETATM    2  C5  UNL     1      24.567   6.042  50.691  1.00  0.00     0.030 C 
HETATM    3  C6  UNL     1      23.125   6.302  50.979  1.00  0.00     0.139 C 
HETATM    4  C18 UNL     1      22.373   7.020  49.916  1.00  0.00    -0.014 C 
HETATM    5  C19 UNL     1      23.261   8.218  49.528  1.00  0.00     0.018 C 
HETATM    6  C23 UNL     1      22.051   6.329  48.669  1.00  0.00     0.038 C 
HETATM    7  C24 UNL     1      23.081   5.444  48.111  1.00  0.00    -0.024 C 
HETATM    8  C25 UNL     1      24.327   5.054  48.409  1.00  0.00     0.025 C 
ENDROOT
BRANCH   3   9
HETATM    9  N2  UNL     1      22.447   5.101  51.425  1.00  0.00    -0.278 N 
HETATM   10  C7  UNL     1      23.400   4.116  51.896  1.00  0.00     0.276 A 
HETATM   11  N3  UNL     1      22.741   2.908  52.347  1.00  0.00    -0.326 N 
HETATM   12  C8  UNL     1      21.403   2.799  52.297  1.00  0.00     0.055 A 
HETATM   13  C11 UNL     1      23.281   1.788  52.845  1.00  0.00     0.048 A 
HETATM   14  C9  UNL     1      21.008   1.567  52.777  1.00  0.00     0.033 A 
HETATM   15  C17 UNL     1      20.540   3.866  51.798  1.00  0.00     0.168 A 
HETATM   16  C10 UNL     1      22.199   0.957  53.111  1.00  0.00     0.033 A 
HETATM   17  N5  UNL     1      21.056   4.969  51.381  1.00  0.00    -0.185 NA
BRANCH  13  18
HETATM   18  C12 UNL     1      24.666   1.430  53.089  1.00  0.00     0.008 A 
HETATM   19  C13 UNL     1      25.666   2.171  53.654  1.00  0.00     0.032 A 
HETATM   20  C14 UNL     1      26.836   1.433  53.691  1.00  0.00     0.091 A 
HETATM   21  N4  UNL     1      26.560   0.235  53.150  1.00  0.00    -0.370 N 
HETATM   22  C15 UNL     1      27.486  -0.874  52.976  1.00  0.00     0.154 C 
HETATM   23  C16 UNL     1      25.274   0.233  52.793  1.00  0.00     0.103 A 
ENDBRANCH  13  18
ENDBRANCH   3   9
BRANCH   4  24
HETATM   24  C20 UNL     1      21.196   7.661  50.611  1.00  0.00     0.041 C 
BRANCH  24  25
HETATM   25  C21 UNL     1      20.078   8.100  49.747  1.00  0.00     0.270 C 
BRANCH  25  26
HETATM   26  N6  UNL     1      19.473   9.288  50.257  1.00  0.00     0.079 N 
HETATM   27  C22 UNL     1      18.777  10.058  49.246  1.00  0.00     0.306 C 
HETATM   28  H25 UNL     1      20.263   9.924  50.581  1.00  0.00     0.315 HD
ENDBRANCH  25  26
ENDBRANCH  24  25
ENDBRANCH   4  24
BRANCH   1  29
HETATM   29  N1  UNL     1      26.506   5.303  49.424  1.00  0.00    -0.324 N 
HETATM   30  C3  UNL     1      27.135   6.235  48.550  1.00  0.00     0.244 C 
HETATM   31  O1  UNL     1      26.468   7.154  47.979  1.00  0.00    -0.268 OA
HETATM   32  H4  UNL     1      27.028   4.528  49.915  1.00  0.00     0.169 HD
BRANCH  30  33
HETATM   33  C2  UNL     1      28.571   6.123  48.309  1.00  0.00     0.064 C 
HETATM   34  C1  UNL     1      29.289   6.856  47.448  1.00  0.00     0.017 C 
ENDBRANCH  30  33
ENDBRANCH   1  29
TORSDOF 7
ENDMDL
MODEL 8
REMARK VINA RESULT:      -7.3      2.705      7.172
REMARK  7 active torsions:
REMARK  status: ('A' for Active; 'I' for Inactive)
REMARK    1  A    between atoms: C2_2  and  C3_3 
REMARK       I    between atoms: C3_3  and  N1_5 
REMARK    2  A    between atoms: N1_5  and  C4_6 
REMARK    3  A    between atoms: C6_8  and  N2_9 
REMARK    4  A    between atoms: C11_15  and  C12_16 
REMARK    5  A    between atoms: C18_24  and  C20_26 
REMARK    6  A    between atoms: C20_26  and  C21_27 
REMARK    7  A    between atoms: C21_27  and  N6_28 
ROOT
HETATM    1  C4  UNL     1      26.036   1.388  52.880  1.00  0.00     0.033 C 
HETATM    2  C5  UNL     1      25.638   1.112  51.633  1.00  0.00     0.030 C 
HETATM    3  C6  UNL     1      24.665   1.873  50.793  1.00  0.00     0.139 C 
HETATM    4  C18 UNL     1      23.369   2.203  51.445  1.00  0.00    -0.014 C 
HETATM    5  C19 UNL     1      22.893   0.889  52.094  1.00  0.00     0.018 C 
HETATM    6  C23 UNL     1      23.330   3.217  52.498  1.00  0.00     0.038 C 
HETATM    7  C24 UNL     1      24.445   3.229  53.454  1.00  0.00    -0.024 C 
HETATM    8  C25 UNL     1      25.568   2.538  53.683  1.00  0.00     0.025 C 
ENDROOT
BRANCH   3   9
HETATM    9  N2  UNL     1      25.286   3.027  50.174  1.00  0.00    -0.278 N 
HETATM   10  C7  UNL     1      24.286   4.002  49.786  1.00  0.00     0.276 A 
HETATM   11  N3  UNL     1      24.887   5.164  49.166  1.00  0.00    -0.326 N 
HETATM   12  C8  UNL     1      26.219   5.245  49.009  1.00  0.00     0.055 A 
HETATM   13  C11 UNL     1      24.295   6.264  48.680  1.00  0.00     0.048 A 
HETATM   14  C9  UNL     1      26.555   6.436  48.399  1.00  0.00     0.033 A 
HETATM   15  C17 UNL     1      27.132   4.192  49.445  1.00  0.00     0.168 A 
HETATM   16  C10 UNL     1      25.336   7.051  48.204  1.00  0.00     0.033 A 
HETATM   17  N5  UNL     1      26.669   3.129  50.004  1.00  0.00    -0.185 NA
BRANCH  13  18
HETATM   18  C12 UNL     1      22.894   6.637  48.619  1.00  0.00     0.008 A 
HETATM   19  C13 UNL     1      21.923   6.221  47.751  1.00  0.00     0.032 A 
HETATM   20  C14 UNL     1      20.722   6.834  48.058  1.00  0.00     0.091 A 
HETATM   21  N4  UNL     1      20.948   7.630  49.117  1.00  0.00    -0.370 N 
HETATM   22  C15 UNL     1      19.975   8.476  49.793  1.00  0.00     0.154 C 
HETATM   23  C16 UNL     1      22.235   7.513  49.449  1.00  0.00     0.103 A 
ENDBRANCH  13  18
ENDBRANCH   3   9
BRANCH   4  24
HETATM   24  C20 UNL     1      22.389   2.418  50.318  1.00  0.00     0.041 C 
BRANCH  24  25
HETATM   25  C21 UNL     1      21.636   1.230  49.861  1.00  0.00     0.270 C 
BRANCH  25  26
HETATM   26  N6  UNL     1      21.605   1.159  48.436  1.00  0.00     0.079 N 
HETATM   27  C22 UNL     1      21.953   2.408  47.790  1.00  0.00     0.306 C 
HETATM   28  H25 UNL     1      20.592   0.986  48.156  1.00  0.00     0.315 HD
ENDBRANCH  25  26
ENDBRANCH  24  25
ENDBRANCH   4  24
BRANCH   1  29
HETATM   29  N1  UNL     1      26.981   0.579  53.588  1.00  0.00    -0.324 N 
HETATM   30  C3  UNL     1      28.333   1.007  53.459  1.00  0.00     0.244 C 
HETATM   31  O1  UNL     1      28.636   2.026  52.762  1.00  0.00    -0.268 OA
HETATM   32  H4  UNL     1      26.692  -0.261  54.158  1.00  0.00     0.169 HD
BRANCH  30  33
HETATM   33  C2  UNL     1      29.382   0.253  54.140  1.00  0.00     0.064 C 
HETATM   34  C1  UNL     1      29.936  -0.892  53.720  1.00  0.00     0.017 C 
ENDBRANCH  30  33
ENDBRANCH   1  29
TORSDOF 7
ENDMDL
MODEL 9
REMARK VINA RESULT:      -7.3      1.840      5.945
REMARK  7 active torsions:
REMARK  status: ('A' for Active; 'I' for Inactive)
REMARK    1  A    between atoms: C2_2  and  C3_3 
REMARK       I    between atoms: C3_3  and  N1_5 
REMARK    2  A    between atoms: N1_5  and  C4_6 
REMARK    3  A    between atoms: C6_8  and  N2_9 
REMARK    4  A    between atoms: C11_15  and  C12_16 
REMARK    5  A    between atoms: C18_24  and  C20_26 
REMARK    6  A    between atoms: C20_26  and  C21_27 
REMARK    7  A    between atoms: C21_27  and  N6_28 
ROOT
HETATM    1  C4  UNL     1      21.640   3.563  50.739  1.00  0.00     0.033 C 
HETATM    2  C5  UNL     1      22.504   3.056  49.852  1.00  0.00     0.030 C 
HETATM    3  C6  UNL     1      23.969   3.325  49.744  1.00  0.00     0.139 C 
HETATM    4  C18 UNL     1      24.364   4.759  49.747  1.00  0.00    -0.014 C 
HETATM    5  C19 UNL     1      23.426   5.442  48.733  1.00  0.00     0.018 C 
HETATM    6  C23 UNL     1      24.261   5.533  50.983  1.00  0.00     0.038 C 
HETATM    7  C24 UNL     1      23.088   5.285  51.830  1.00  0.00    -0.024 C 
HETATM    8  C25 UNL     1      21.991   4.517  51.812  1.00  0.00     0.025 C 
ENDROOT
BRANCH   3   9
HETATM    9  N2  UNL     1      24.725   2.539  50.698  1.00  0.00    -0.278 N 
HETATM   10  C7  UNL     1      23.848   1.685  51.472  1.00  0.00     0.276 A 
HETATM   11  N3  UNL     1      24.585   0.890  52.431  1.00  0.00    -0.326 N 
HETATM   12  C8  UNL     1      25.921   0.995  52.525  1.00  0.00     0.055 A 
HETATM   13  C11 UNL     1      24.128  -0.007  53.315  1.00  0.00     0.048 A 
HETATM   14  C9  UNL     1      26.399   0.146  53.501  1.00  0.00     0.033 A 
HETATM   15  C17 UNL     1      26.704   1.897  51.684  1.00  0.00     0.168 A 
HETATM   16  C10 UNL     1      25.259  -0.467  53.978  1.00  0.00     0.033 A 
HETATM   17  N5  UNL     1      26.115   2.635  50.809  1.00  0.00    -0.185 NA
BRANCH  13  18
HETATM   18  C12 UNL     1      22.778  -0.461  53.592  1.00  0.00     0.008 A 
HETATM   19  C13 UNL     1      22.340  -1.365  54.521  1.00  0.00     0.032 A 
HETATM   20  C14 UNL     1      20.965  -1.497  54.438  1.00  0.00     0.091 A 
HETATM   21  N4  UNL     1      20.552  -0.676  53.459  1.00  0.00    -0.370 N 
HETATM   22  C15 UNL     1      19.181  -0.479  53.011  1.00  0.00     0.154 C 
HETATM   23  C16 UNL     1      21.625  -0.062  52.958  1.00  0.00     0.103 A 
ENDBRANCH  13  18
ENDBRANCH   3   9
BRANCH   4  24
HETATM   24  C20 UNL     1      25.714   4.812  49.073  1.00  0.00     0.041 C 
BRANCH  24  25
HETATM   25  C21 UNL     1      26.524   6.026  49.311  1.00  0.00     0.270 C 
BRANCH  25  26
HETATM   26  N6  UNL     1      27.168   6.456  48.112  1.00  0.00     0.079 N 
HETATM   27  C22 UNL     1      28.613   6.371  48.173  1.00  0.00     0.306 C 
HETATM   28  H25 UNL     1      26.965   7.496  48.007  1.00  0.00     0.315 HD
ENDBRANCH  25  26
ENDBRANCH  24  25
ENDBRANCH   4  24
BRANCH   1  29
HETATM   29  N1  UNL     1      20.248   3.228  50.743  1.00  0.00    -0.324 N 
HETATM   30  C3  UNL     1      19.434   4.094  49.959  1.00  0.00     0.244 C 
HETATM   31  O1  UNL     1      19.937   5.073  49.324  1.00  0.00    -0.268 OA
HETATM   32  H4  UNL     1      19.865   2.406  51.283  1.00  0.00     0.169 HD
BRANCH  30  33
HETATM   33  C2  UNL     1      17.996   3.846  49.891  1.00  0.00     0.064 C 
HETATM   34  C1  UNL     1      17.361   2.746  50.318  1.00  0.00     0.017 C 
ENDBRANCH  30  33
ENDBRANCH   1  29
TORSDOF 7
ENDMDL
