MODEL 1
REMARK VINA RESULT:      -6.9      0.000      0.000
REMARK  8 active torsions:
REMARK  status: ('A' for Active; 'I' for Inactive)
REMARK    1  A    between atoms: C2_2  and  C3_4 
REMARK    2  A    between atoms: C4_6  and  C5_7 
REMARK    3  A    between atoms: C5_7  and  C6_8 
REMARK    4  A    between atoms: C6_8  and  N1_9 
REMARK    5  A    between atoms: N1_9  and  N2_10 
REMARK    6  A    between atoms: N2_10  and  C7_11 
REMARK    7  A    between atoms: C11_17  and  O1_18 
REMARK    8  A    between atoms: C13_20  and  O2_21 
ROOT
HETATM    1  C7  UNL     1      24.143   2.041  52.498  1.00  0.00     0.185 A 
HETATM    2  N3  UNL     1      22.880   1.556  52.563  1.00  0.00    -0.220 NA
HETATM    3  C8  UNL     1      22.709   0.271  53.002  1.00  0.00     0.236 A 
HETATM    4  N4  UNL     1      23.752  -0.528  53.372  1.00  0.00    -0.241 NA
HETATM    5  C9  UNL     1      25.013  -0.048  53.309  1.00  0.00     0.075 A 
HETATM    6  C10 UNL     1      26.071  -0.847  53.678  1.00  0.00     0.072 A 
HETATM    7  C11 UNL     1      27.352  -0.326  53.601  1.00  0.00     0.103 A 
HETATM    8  C13 UNL     1      27.612   0.975  53.164  1.00  0.00     0.102 A 
HETATM    9  C15 UNL     1      26.512   1.741  52.803  1.00  0.00     0.057 A 
HETATM   10  C16 UNL     1      25.221   1.243  52.871  1.00  0.00     0.045 A 
ENDROOT
BRANCH   1  11
HETATM   11  N2  UNL     1      24.405   3.383  52.036  1.00  0.00    -0.130 NA
BRANCH  11  12
HETATM   12  N1  UNL     1      23.692   3.745  51.007  1.00  0.00    -0.161 NA
BRANCH  12  13
HETATM   13  C6  UNL     1      24.436   3.974  49.786  1.00  0.00     0.141 C 
BRANCH  13  14
HETATM   14  C5  UNL     1      25.707   4.151  49.516  1.00  0.00     0.024 C 
BRANCH  14  15
HETATM   15  C4  UNL     1      27.009   4.475  48.957  1.00  0.00     0.045 C 
HETATM   16  C3  UNL     1      27.785   5.435  48.530  1.00  0.00     0.134 C 
HETATM   17  F1  UNL     1      28.934   4.783  48.148  1.00  0.00    -0.205 F 
BRANCH  16  18
HETATM   18  C2  UNL     1      27.559   6.866  48.446  1.00  0.00     0.050 C 
HETATM   19  C1  UNL     1      28.182   7.377  47.403  1.00  0.00     0.060 C 
HETATM   20 CL1  UNL     1      26.555   7.661  49.635  1.00  0.00    -0.086 Cl
ENDBRANCH  16  18
ENDBRANCH  14  15
ENDBRANCH  13  14
ENDBRANCH  12  13
ENDBRANCH  11  12
ENDBRANCH   1  11
BRANCH   8  21
HETATM   21  O2  UNL     1      28.900   1.486  53.090  1.00  0.00    -0.353 OA
HETATM   22  C14 UNL     1      29.374   2.230  54.197  1.00  0.00     0.210 C 
ENDBRANCH   8  21
BRANCH   7  23
HETATM   23  O1  UNL     1      28.447  -1.097  53.961  1.00  0.00    -0.353 OA
HETATM   24  C12 UNL     1      28.942  -2.119  53.120  1.00  0.00     0.210 C 
ENDBRANCH   7  23
TORSDOF 8
ENDMDL
MODEL 2
REMARK VINA RESULT:      -6.9      4.176      7.962
REMARK  8 active torsions:
REMARK  status: ('A' for Active; 'I' for Inactive)
REMARK    1  A    between atoms: C2_2  and  C3_4 
REMARK    2  A    between atoms: C4_6  and  C5_7 
REMARK    3  A    between atoms: C5_7  and  C6_8 
REMARK    4  A    between atoms: C6_8  and  N1_9 
REMARK    5  A    between atoms: N1_9  and  N2_10 
REMARK    6  A    between atoms: N2_10  and  C7_11 
REMARK    7  A    between atoms: C11_17  and  O1_18 
REMARK    8  A    between atoms: C13_20  and  O2_21 
ROOT
HETATM    1  C7  UNL     1      26.454   4.622  49.137  1.00  0.00     0.185 A 
HETATM    2  N3  UNL     1      25.157   4.980  49.294  1.00  0.00    -0.220 NA
HETATM    3  C8  UNL     1      24.785   6.233  48.889  1.00  0.00     0.236 A 
HETATM    4  N4  UNL     1      25.662   7.122  48.338  1.00  0.00    -0.241 NA
HETATM    5  C9  UNL     1      26.956   6.768  48.179  1.00  0.00     0.075 A 
HETATM    6  C10 UNL     1      27.848   7.659  47.627  1.00  0.00     0.072 A 
HETATM    7  C11 UNL     1      29.169   7.267  47.479  1.00  0.00     0.103 A 
HETATM    8  C13 UNL     1      29.629   6.007  47.867  1.00  0.00     0.102 A 
HETATM    9  C15 UNL     1      28.692   5.145  48.418  1.00  0.00     0.057 A 
HETATM   10  C16 UNL     1      27.366   5.513  48.578  1.00  0.00     0.045 A 
ENDROOT
BRANCH   1  11
HETATM   11  N2  UNL     1      26.925   3.322  49.550  1.00  0.00    -0.130 NA
BRANCH  11  12
HETATM   12  N1  UNL     1      26.961   3.149  50.841  1.00  0.00    -0.161 NA
BRANCH  12  13
HETATM   13  C6  UNL     1      26.109   2.097  51.351  1.00  0.00     0.141 C 
BRANCH  13  14
HETATM   14  C5  UNL     1      26.339   0.927  51.901  1.00  0.00     0.024 C 
BRANCH  14  15
HETATM   15  C4  UNL     1      26.740  -0.426  52.244  1.00  0.00     0.045 C 
HETATM   16  C3  UNL     1      27.599  -1.156  52.904  1.00  0.00     0.134 C 
HETATM   17  F1  UNL     1      27.198  -2.447  52.650  1.00  0.00    -0.205 F 
BRANCH  16  18
HETATM   18  C2  UNL     1      28.731  -0.771  53.728  1.00  0.00     0.050 C 
HETATM   19  C1  UNL     1      29.782  -1.519  53.456  1.00  0.00     0.060 C 
HETATM   20 CL1  UNL     1      28.571   0.541  54.870  1.00  0.00    -0.086 Cl
ENDBRANCH  16  18
ENDBRANCH  14  15
ENDBRANCH  13  14
ENDBRANCH  12  13
ENDBRANCH  11  12
ENDBRANCH   1  11
BRANCH   8  21
HETATM   21  O2  UNL     1      30.954   5.625  47.714  1.00  0.00    -0.353 OA
HETATM   22  C14 UNL     1      31.793   5.696  48.852  1.00  0.00     0.210 C 
ENDBRANCH   8  21
BRANCH   7  23
HETATM   23  O1  UNL     1      30.101   8.133  46.929  1.00  0.00    -0.353 OA
HETATM   24  C12 UNL     1      30.645   9.205  47.671  1.00  0.00     0.210 C 
ENDBRANCH   7  23
TORSDOF 8
ENDMDL
MODEL 3
REMARK VINA RESULT:      -6.9      4.964      7.148
REMARK  8 active torsions:
REMARK  status: ('A' for Active; 'I' for Inactive)
REMARK    1  A    between atoms: C2_2  and  C3_4 
REMARK    2  A    between atoms: C4_6  and  C5_7 
REMARK    3  A    between atoms: C5_7  and  C6_8 
REMARK    4  A    between atoms: C6_8  and  N1_9 
REMARK    5  A    between atoms: N1_9  and  N2_10 
REMARK    6  A    between atoms: N2_10  and  C7_11 
REMARK    7  A    between atoms: C11_17  and  O1_18 
REMARK    8  A    between atoms: C13_20  and  O2_21 
ROOT
HETATM    1  C7  UNL     1      23.037   0.028  53.256  1.00  0.00     0.185 A 
HETATM    2  N3  UNL     1      23.555  -0.601  54.339  1.00  0.00    -0.220 NA
HETATM    3  C8  UNL     1      22.706  -1.336  55.119  1.00  0.00     0.236 A 
HETATM    4  N4  UNL     1      21.374  -1.459  54.850  1.00  0.00    -0.241 NA
HETATM    5  C9  UNL     1      20.853  -0.834  53.771  1.00  0.00     0.075 A 
HETATM    6  C10 UNL     1      19.511  -0.950  53.492  1.00  0.00     0.072 A 
HETATM    7  C11 UNL     1      19.007  -0.296  52.379  1.00  0.00     0.103 A 
HETATM    8  C13 UNL     1      19.806   0.474  51.531  1.00  0.00     0.102 A 
HETATM    9  C15 UNL     1      21.153   0.560  51.854  1.00  0.00     0.057 A 
HETATM   10  C16 UNL     1      21.681  -0.084  52.962  1.00  0.00     0.045 A 
ENDROOT
BRANCH   1  11
HETATM   11  N2  UNL     1      23.867   0.830  52.390  1.00  0.00    -0.130 NA
BRANCH  11  12
HETATM   12  N1  UNL     1      23.942   2.085  52.732  1.00  0.00    -0.161 NA
BRANCH  12  13
HETATM   13  C6  UNL     1      25.169   2.477  53.393  1.00  0.00     0.141 C 
BRANCH  13  14
HETATM   14  C5  UNL     1      26.307   1.869  53.630  1.00  0.00     0.024 C 
BRANCH  14  15
HETATM   15  C4  UNL     1      27.692   1.458  53.788  1.00  0.00     0.045 C 
HETATM   16  C3  UNL     1      28.540   0.472  53.668  1.00  0.00     0.134 C 
HETATM   17  F1  UNL     1      29.737   1.016  54.072  1.00  0.00    -0.205 F 
BRANCH  16  18
HETATM   18  C2  UNL     1      28.341  -0.896  53.224  1.00  0.00     0.050 C 
HETATM   19  C1  UNL     1      29.445  -1.600  53.373  1.00  0.00     0.060 C 
HETATM   20 CL1  UNL     1      26.783  -1.396  52.613  1.00  0.00    -0.086 Cl
ENDBRANCH  16  18
ENDBRANCH  14  15
ENDBRANCH  13  14
ENDBRANCH  12  13
ENDBRANCH  11  12
ENDBRANCH   1  11
BRANCH   8  21
HETATM   21  O2  UNL     1      19.290   1.124  50.419  1.00  0.00    -0.353 OA
HETATM   22  C14 UNL     1      20.187   1.443  49.372  1.00  0.00     0.210 C 
ENDBRANCH   8  21
BRANCH   7  23
HETATM   23  O1  UNL     1      17.660  -0.385  52.062  1.00  0.00    -0.353 OA
HETATM   24  C12 UNL     1      16.787  -1.240  52.771  1.00  0.00     0.210 C 
ENDBRANCH   7  23
TORSDOF 8
ENDMDL
MODEL 4
REMARK VINA RESULT:      -6.8      4.195      6.904
REMARK  8 active torsions:
REMARK  status: ('A' for Active; 'I' for Inactive)
REMARK    1  A    between atoms: C2_2  and  C3_4 
REMARK    2  A    between atoms: C4_6  and  C5_7 
REMARK    3  A    between atoms: C5_7  and  C6_8 
REMARK    4  A    between atoms: C6_8  and  N1_9 
REMARK    5  A    between atoms: N1_9  and  N2_10 
REMARK    6  A    between atoms: N2_10  and  C7_11 
REMARK    7  A    between atoms: C11_17  and  O1_18 
REMARK    8  A    between atoms: C13_20  and  O2_21 
ROOT
HETATM    1  C7  UNL     1      24.177   2.466  50.933  1.00  0.00     0.185 A 
HETATM    2  N3  UNL     1      24.682   3.368  50.058  1.00  0.00    -0.220 NA
HETATM    3  C8  UNL     1      26.040   3.525  50.014  1.00  0.00     0.236 A 
HETATM    4  N4  UNL     1      26.893   2.816  50.809  1.00  0.00    -0.241 NA
HETATM    5  C9  UNL     1      26.393   1.915  51.683  1.00  0.00     0.075 A 
HETATM    6  C10 UNL     1      27.245   1.197  52.490  1.00  0.00     0.072 A 
HETATM    7  C11 UNL     1      26.701   0.281  53.377  1.00  0.00     0.103 A 
HETATM    8  C13 UNL     1      25.326   0.060  53.484  1.00  0.00     0.102 A 
HETATM    9  C15 UNL     1      24.509   0.809  52.649  1.00  0.00     0.057 A 
HETATM   10  C16 UNL     1      25.028   1.731  51.754  1.00  0.00     0.045 A 
ENDROOT
BRANCH   1  11
HETATM   11  N2  UNL     1      22.754   2.250  51.046  1.00  0.00    -0.130 NA
BRANCH  11  12
HETATM   12  N1  UNL     1      22.097   3.257  51.546  1.00  0.00    -0.161 NA
BRANCH  12  13
HETATM   13  C6  UNL     1      20.976   2.909  52.394  1.00  0.00     0.141 C 
BRANCH  13  14
HETATM   14  C5  UNL     1      20.510   1.776  52.864  1.00  0.00     0.024 C 
BRANCH  14  15
HETATM   15  C4  UNL     1      20.283   0.422  53.341  1.00  0.00     0.045 C 
HETATM   16  C3  UNL     1      19.490  -0.615  53.291  1.00  0.00     0.134 C 
HETATM   17  F1  UNL     1      20.093  -1.529  54.122  1.00  0.00    -0.205 F 
BRANCH  16  18
HETATM   18  C2  UNL     1      18.254  -0.824  52.560  1.00  0.00     0.050 C 
HETATM   19  C1  UNL     1      17.427  -1.585  53.249  1.00  0.00     0.060 C 
HETATM   20 CL1  UNL     1      18.031  -0.085  50.993  1.00  0.00    -0.086 Cl
ENDBRANCH  16  18
ENDBRANCH  14  15
ENDBRANCH  13  14
ENDBRANCH  12  13
ENDBRANCH  11  12
ENDBRANCH   1  11
BRANCH   8  21
HETATM   21  O2  UNL     1      24.793  -0.859  54.376  1.00  0.00    -0.353 OA
HETATM   22  C14 UNL     1      23.384  -0.919  54.492  1.00  0.00     0.210 C 
ENDBRANCH   8  21
BRANCH   7  23
HETATM   23  O1  UNL     1      27.522  -0.463  54.210  1.00  0.00    -0.353 OA
HETATM   24  C12 UNL     1      28.567   0.136  54.948  1.00  0.00     0.210 C 
ENDBRANCH   7  23
TORSDOF 8
ENDMDL
MODEL 5
REMARK VINA RESULT:      -6.8      4.259      6.659
REMARK  8 active torsions:
REMARK  status: ('A' for Active; 'I' for Inactive)
REMARK    1  A    between atoms: C2_2  and  C3_4 
REMARK    2  A    between atoms: C4_6  and  C5_7 
REMARK    3  A    between atoms: C5_7  and  C6_8 
REMARK    4  A    between atoms: C6_8  and  N1_9 
REMARK    5  A    between atoms: N1_9  and  N2_10 
REMARK    6  A    between atoms: N2_10  and  C7_11 
REMARK    7  A    between atoms: C11_17  and  O1_18 
REMARK    8  A    between atoms: C13_20  and  O2_21 
ROOT
HETATM    1  C7  UNL     1      20.505  -0.015  53.477  1.00  0.00     0.185 A 
HETATM    2  N3  UNL     1      19.253  -0.528  53.527  1.00  0.00    -0.220 NA
HETATM    3  C8  UNL     1      18.514  -0.524  52.376  1.00  0.00     0.236 A 
HETATM    4  N4  UNL     1      18.986  -0.029  51.195  1.00  0.00    -0.241 NA
HETATM    5  C9  UNL     1      20.236   0.483  51.141  1.00  0.00     0.075 A 
HETATM    6  C10 UNL     1      20.720   0.986  49.956  1.00  0.00     0.072 A 
HETATM    7  C11 UNL     1      22.005   1.506  49.934  1.00  0.00     0.103 A 
HETATM    8  C13 UNL     1      22.824   1.539  51.065  1.00  0.00     0.102 A 
HETATM    9  C15 UNL     1      22.290   1.020  52.236  1.00  0.00     0.057 A 
HETATM   10  C16 UNL     1      21.008   0.495  52.284  1.00  0.00     0.045 A 
ENDROOT
BRANCH   1  11
HETATM   11  N2  UNL     1      21.343   0.025  54.652  1.00  0.00    -0.130 NA
BRANCH  11  12
HETATM   12  N1  UNL     1      21.783  -1.139  55.038  1.00  0.00    -0.161 NA
BRANCH  12  13
HETATM   13  C6  UNL     1      23.215  -1.232  55.226  1.00  0.00     0.141 C 
BRANCH  13  14
HETATM   14  C5  UNL     1      24.251  -0.921  54.483  1.00  0.00     0.024 C 
BRANCH  14  15
HETATM   15  C4  UNL     1      25.238  -0.716  53.437  1.00  0.00     0.045 C 
HETATM   16  C3  UNL     1      26.359  -0.126  53.119  1.00  0.00     0.134 C 
HETATM   17  F1  UNL     1      26.579  -0.516  51.819  1.00  0.00    -0.205 F 
BRANCH  16  18
HETATM   18  C2  UNL     1      27.221   0.747  53.897  1.00  0.00     0.050 C 
HETATM   19  C1  UNL     1      26.861   2.006  53.754  1.00  0.00     0.060 C 
HETATM   20 CL1  UNL     1      28.511   0.066  54.859  1.00  0.00    -0.086 Cl
ENDBRANCH  16  18
ENDBRANCH  14  15
ENDBRANCH  13  14
ENDBRANCH  12  13
ENDBRANCH  11  12
ENDBRANCH   1  11
BRANCH   8  21
HETATM   21  O2  UNL     1      24.109   2.063  51.031  1.00  0.00    -0.353 OA
HETATM   22  C14 UNL     1      24.286   3.394  51.476  1.00  0.00     0.210 C 
ENDBRANCH   8  21
BRANCH   7  23
HETATM   23  O1  UNL     1      22.532   2.025  48.762  1.00  0.00    -0.353 OA
HETATM   24  C12 UNL     1      21.831   2.981  47.993  1.00  0.00     0.210 C 
ENDBRANCH   7  23
TORSDOF 8
ENDMDL
MODEL 6
REMARK VINA RESULT:      -6.8      4.161      7.033
REMARK  8 active torsions:
REMARK  status: ('A' for Active; 'I' for Inactive)
REMARK    1  A    between atoms: C2_2  and  C3_4 
REMARK    2  A    between atoms: C4_6  and  C5_7 
REMARK    3  A    between atoms: C5_7  and  C6_8 
REMARK    4  A    between atoms: C6_8  and  N1_9 
REMARK    5  A    between atoms: N1_9  and  N2_10 
REMARK    6  A    between atoms: N2_10  and  C7_11 
REMARK    7  A    between atoms: C11_17  and  O1_18 
REMARK    8  A    between atoms: C13_20  and  O2_21 
ROOT
HETATM    1  C7  UNL     1      25.204  -0.254  53.300  1.00  0.00     0.185 A 
HETATM    2  N3  UNL     1      26.266  -0.916  53.817  1.00  0.00    -0.220 NA
HETATM    3  C8  UNL     1      27.517  -0.446  53.527  1.00  0.00     0.236 A 
HETATM    4  N4  UNL     1      27.731   0.653  52.746  1.00  0.00    -0.241 NA
HETATM    5  C9  UNL     1      26.674   1.318  52.229  1.00  0.00     0.075 A 
HETATM    6  C10 UNL     1      26.880   2.425  51.439  1.00  0.00     0.072 A 
HETATM    7  C11 UNL     1      25.776   3.084  50.922  1.00  0.00     0.103 A 
HETATM    8  C13 UNL     1      24.466   2.668  51.171  1.00  0.00     0.102 A 
HETATM    9  C15 UNL     1      24.311   1.546  51.972  1.00  0.00     0.057 A 
HETATM   10  C16 UNL     1      25.398   0.870  52.501  1.00  0.00     0.045 A 
ENDROOT
BRANCH   1  11
HETATM   11  N2  UNL     1      23.853  -0.695  53.552  1.00  0.00    -0.130 NA
BRANCH  11  12
HETATM   12  N1  UNL     1      23.622  -1.037  54.787  1.00  0.00    -0.161 NA
BRANCH  12  13
HETATM   13  C6  UNL     1      22.230  -1.242  55.126  1.00  0.00     0.141 C 
BRANCH  13  14
HETATM   14  C5  UNL     1      21.104  -1.098  54.468  1.00  0.00     0.024 C 
BRANCH  14  15
HETATM   15  C4  UNL     1      20.039  -0.823  53.518  1.00  0.00     0.045 C 
HETATM   16  C3  UNL     1      19.662  -0.078  52.514  1.00  0.00     0.134 C 
HETATM   17  F1  UNL     1      18.405  -0.545  52.211  1.00  0.00    -0.205 F 
BRANCH  16  18
HETATM   18  C2  UNL     1      20.349   1.004  51.830  1.00  0.00     0.050 C 
HETATM   19  C1  UNL     1      20.237   2.129  52.507  1.00  0.00     0.060 C 
HETATM   20 CL1  UNL     1      21.183   0.694  50.327  1.00  0.00    -0.086 Cl
ENDBRANCH  16  18
ENDBRANCH  14  15
ENDBRANCH  13  14
ENDBRANCH  12  13
ENDBRANCH  11  12
ENDBRANCH   1  11
BRANCH   8  21
HETATM   21  O2  UNL     1      23.368   3.335  50.647  1.00  0.00    -0.353 OA
HETATM   22  C14 UNL     1      22.818   4.393  51.410  1.00  0.00     0.210 C 
ENDBRANCH   8  21
BRANCH   7  23
HETATM   23  O1  UNL     1      25.938   4.203  50.121  1.00  0.00    -0.353 OA
HETATM   24  C12 UNL     1      26.970   4.283  49.159  1.00  0.00     0.210 C 
ENDBRANCH   7  23
TORSDOF 8
ENDMDL
MODEL 7
REMARK VINA RESULT:      -6.8      2.697      3.201
REMARK  8 active torsions:
REMARK  status: ('A' for Active; 'I' for Inactive)
REMARK    1  A    between atoms: C2_2  and  C3_4 
REMARK    2  A    between atoms: C4_6  and  C5_7 
REMARK    3  A    between atoms: C5_7  and  C6_8 
REMARK    4  A    between atoms: C6_8  and  N1_9 
REMARK    5  A    between atoms: N1_9  and  N2_10 
REMARK    6  A    between atoms: N2_10  and  C7_11 
REMARK    7  A    between atoms: C11_17  and  O1_18 
REMARK    8  A    between atoms: C13_20  and  O2_21 
ROOT
HETATM    1  C7  UNL     1      22.196   0.665  53.067  1.00  0.00     0.185 A 
HETATM    2  N3  UNL     1      21.219   0.094  53.812  1.00  0.00    -0.220 NA
HETATM    3  C8  UNL     1      21.590  -0.808  54.771  1.00  0.00     0.236 A 
HETATM    4  N4  UNL     1      22.891  -1.149  55.002  1.00  0.00    -0.241 NA
HETATM    5  C9  UNL     1      23.869  -0.581  54.262  1.00  0.00     0.075 A 
HETATM    6  C10 UNL     1      25.183  -0.920  54.487  1.00  0.00     0.072 A 
HETATM    7  C11 UNL     1      26.162  -0.321  53.710  1.00  0.00     0.103 A 
HETATM    8  C13 UNL     1      25.868   0.609  52.711  1.00  0.00     0.102 A 
HETATM    9  C15 UNL     1      24.528   0.917  52.523  1.00  0.00     0.057 A 
HETATM   10  C16 UNL     1      23.530   0.332  53.286  1.00  0.00     0.045 A 
ENDROOT
BRANCH   1  11
HETATM   11  N2  UNL     1      21.884   1.618  52.029  1.00  0.00    -0.130 NA
BRANCH  11  12
HETATM   12  N1  UNL     1      21.359   1.093  50.959  1.00  0.00    -0.161 NA
BRANCH  12  13
HETATM   13  C6  UNL     1      22.009   1.440  49.713  1.00  0.00     0.141 C 
BRANCH  13  14
HETATM   14  C5  UNL     1      22.794   2.425  49.341  1.00  0.00     0.024 C 
BRANCH  14  15
HETATM   15  C4  UNL     1      23.700   3.554  49.233  1.00  0.00     0.045 C 
HETATM   16  C3  UNL     1      24.094   4.672  49.783  1.00  0.00     0.134 C 
HETATM   17  F1  UNL     1      25.075   5.129  48.935  1.00  0.00    -0.205 F 
BRANCH  16  18
HETATM   18  C2  UNL     1      23.649   5.336  50.996  1.00  0.00     0.050 C 
HETATM   19  C1  UNL     1      23.263   6.569  50.738  1.00  0.00     0.060 C 
HETATM   20 CL1  UNL     1      23.666   4.476  52.517  1.00  0.00    -0.086 Cl
ENDBRANCH  16  18
ENDBRANCH  14  15
ENDBRANCH  13  14
ENDBRANCH  12  13
ENDBRANCH  11  12
ENDBRANCH   1  11
BRANCH   8  21
HETATM   21  O2  UNL     1      26.857   1.202  51.939  1.00  0.00    -0.353 OA
HETATM   22  C14 UNL     1      26.567   2.456  51.351  1.00  0.00     0.210 C 
ENDBRANCH   8  21
BRANCH   7  23
HETATM   23  O1  UNL     1      27.499  -0.634  53.901  1.00  0.00    -0.353 OA
HETATM   24  C12 UNL     1      28.296   0.058  54.840  1.00  0.00     0.210 C 
ENDBRANCH   7  23
TORSDOF 8
ENDMDL
MODEL 8
REMARK VINA RESULT:      -6.7      2.409      3.058
REMARK  8 active torsions:
REMARK  status: ('A' for Active; 'I' for Inactive)
REMARK    1  A    between atoms: C2_2  and  C3_4 
REMARK    2  A    between atoms: C4_6  and  C5_7 
REMARK    3  A    between atoms: C5_7  and  C6_8 
REMARK    4  A    between atoms: C6_8  and  N1_9 
REMARK    5  A    between atoms: N1_9  and  N2_10 
REMARK    6  A    between atoms: N2_10  and  C7_11 
REMARK    7  A    between atoms: C11_17  and  O1_18 
REMARK    8  A    between atoms: C13_20  and  O2_21 
ROOT
HETATM    1  C7  UNL     1      25.523   2.395  51.035  1.00  0.00     0.185 A 
HETATM    2  N3  UNL     1      24.431   2.766  50.324  1.00  0.00    -0.220 NA
HETATM    3  C8  UNL     1      23.226   2.217  50.668  1.00  0.00     0.236 A 
HETATM    4  N4  UNL     1      23.087   1.321  51.688  1.00  0.00    -0.241 NA
HETATM    5  C9  UNL     1      24.173   0.949  52.401  1.00  0.00     0.075 A 
HETATM    6  C10 UNL     1      24.042   0.045  53.430  1.00  0.00     0.072 A 
HETATM    7  C11 UNL     1      25.176  -0.317  54.140  1.00  0.00     0.103 A 
HETATM    8  C13 UNL     1      26.442   0.197  53.852  1.00  0.00     0.102 A 
HETATM    9  C15 UNL     1      26.522   1.105  52.805  1.00  0.00     0.057 A 
HETATM   10  C16 UNL     1      25.404   1.483  52.080  1.00  0.00     0.045 A 
ENDROOT
BRANCH   1  11
HETATM   11  N2  UNL     1      26.830   2.922  50.726  1.00  0.00    -0.130 NA
BRANCH  11  12
HETATM   12  N1  UNL     1      26.998   3.241  49.473  1.00  0.00    -0.161 NA
BRANCH  12  13
HETATM   13  C6  UNL     1      26.916   4.655  49.175  1.00  0.00     0.141 C 
BRANCH  13  14
HETATM   14  C5  UNL     1      27.705   5.500  48.555  1.00  0.00     0.024 C 
BRANCH  14  15
HETATM   15  C4  UNL     1      28.778   6.200  47.869  1.00  0.00     0.045 C 
HETATM   16  C3  UNL     1      30.070   6.281  47.699  1.00  0.00     0.134 C 
HETATM   17  F1  UNL     1      30.220   7.312  46.801  1.00  0.00    -0.205 F 
BRANCH  16  18
HETATM   18  C2  UNL     1      31.150   5.507  48.284  1.00  0.00     0.050 C 
HETATM   19  C1  UNL     1      31.537   4.551  47.464  1.00  0.00     0.060 C 
HETATM   20 CL1  UNL     1      31.762   5.922  49.867  1.00  0.00    -0.086 Cl
ENDBRANCH  16  18
ENDBRANCH  14  15
ENDBRANCH  13  14
ENDBRANCH  12  13
ENDBRANCH  11  12
ENDBRANCH   1  11
BRANCH   8  21
HETATM   21  O2  UNL     1      27.570  -0.173  54.570  1.00  0.00    -0.353 OA
HETATM   22  C14 UNL     1      28.759   0.562  54.349  1.00  0.00     0.210 C 
ENDBRANCH   8  21
BRANCH   7  23
HETATM   23  O1  UNL     1      25.090  -1.225  55.183  1.00  0.00    -0.353 OA
HETATM   24  C12 UNL     1      23.853  -1.550  55.784  1.00  0.00     0.210 C 
ENDBRANCH   7  23
TORSDOF 8
ENDMDL
MODEL 9
REMARK VINA RESULT:      -6.7      3.083      4.394
REMARK  8 active torsions:
REMARK  status: ('A' for Active; 'I' for Inactive)
REMARK    1  A    between atoms: C2_2  and  C3_4 
REMARK    2  A    between atoms: C4_6  and  C5_7 
REMARK    3  A    between atoms: C5_7  and  C6_8 
REMARK    4  A    between atoms: C6_8  and  N1_9 
REMARK    5  A    between atoms: N1_9  and  N2_10 
REMARK    6  A    between atoms: N2_10  and  C7_11 
REMARK    7  A    between atoms: C11_17  and  O1_18 
REMARK    8  A    between atoms: C13_20  and  O2_21 
ROOT
HETATM    1  C7  UNL     1      26.344   2.346  51.669  1.00  0.00     0.185 A 
HETATM    2  N3  UNL     1      27.609   2.327  52.152  1.00  0.00    -0.220 NA
HETATM    3  C8  UNL     1      27.896   1.452  53.164  1.00  0.00     0.236 A 
HETATM    4  N4  UNL     1      26.965   0.609  53.698  1.00  0.00    -0.241 NA
HETATM    5  C9  UNL     1      25.701   0.624  53.219  1.00  0.00     0.075 A 
HETATM    6  C10 UNL     1      24.756  -0.221  53.752  1.00  0.00     0.072 A 
HETATM    7  C11 UNL     1      23.468  -0.180  53.240  1.00  0.00     0.103 A 
HETATM    8  C13 UNL     1      23.095   0.682  52.208  1.00  0.00     0.102 A 
HETATM    9  C15 UNL     1      24.084   1.515  51.704  1.00  0.00     0.057 A 
HETATM   10  C16 UNL     1      25.378   1.494  52.199  1.00  0.00     0.045 A 
ENDROOT
BRANCH   1  11
HETATM   11  N2  UNL     1      25.962   3.247  50.609  1.00  0.00    -0.130 NA
BRANCH  11  12
HETATM   12  N1  UNL     1      26.806   3.297  49.618  1.00  0.00    -0.161 NA
BRANCH  12  13
HETATM   13  C6  UNL     1      26.958   4.595  48.996  1.00  0.00     0.141 C 
BRANCH  13  14
HETATM   14  C5  UNL     1      27.993   5.295  48.595  1.00  0.00     0.024 C 
BRANCH  14  15
HETATM   15  C4  UNL     1      29.005   6.049  47.874  1.00  0.00     0.045 C 
HETATM   16  C3  UNL     1      30.286   6.223  47.690  1.00  0.00     0.134 C 
HETATM   17  F1  UNL     1      30.350   7.228  46.753  1.00  0.00    -0.205 F 
BRANCH  16  18
HETATM   18  C2  UNL     1      31.426   5.557  48.293  1.00  0.00     0.050 C 
HETATM   19  C1  UNL     1      31.936   4.665  47.467  1.00  0.00     0.060 C 
HETATM   20 CL1  UNL     1      31.945   6.001  49.901  1.00  0.00    -0.086 Cl
ENDBRANCH  16  18
ENDBRANCH  14  15
ENDBRANCH  13  14
ENDBRANCH  12  13
ENDBRANCH  11  12
ENDBRANCH   1  11
BRANCH   8  21
HETATM   21  O2  UNL     1      21.802   0.715  51.703  1.00  0.00    -0.353 OA
HETATM   22  C14 UNL     1      21.114   1.951  51.741  1.00  0.00     0.210 C 
ENDBRANCH   8  21
BRANCH   7  23
HETATM   23  O1  UNL     1      22.484  -1.013  53.749  1.00  0.00    -0.353 OA
HETATM   24  C12 UNL     1      21.669  -0.621  54.835  1.00  0.00     0.210 C 
ENDBRANCH   7  23
TORSDOF 8
ENDMDL
