MODEL 1
REMARK VINA RESULT:      -9.0      0.000      0.000
REMARK  5 active torsions:
REMARK  status: ('A' for Active; 'I' for Inactive)
REMARK    1  A    between atoms: S1_2  and  N1_5 
REMARK    2  A    between atoms: N1_5  and  C2_6 
REMARK    3  A    between atoms: C2_6  and  C3_7 
REMARK    4  A    between atoms: C8_14  and  N3_15 
REMARK    5  A    between atoms: N3_15  and  C9_16 
ROOT
HETATM    1  C3  UNL     1      27.862   5.360  48.660  1.00  0.00     0.049 C 
HETATM    2  C4  UNL     1      26.824   6.640  48.560  1.00  0.00    -0.009 C 
HETATM    3  C5  UNL     1      25.681   6.666  49.458  1.00  0.00    -0.015 C 
HETATM    4  C6  UNL     1      24.520   6.802  50.290  1.00  0.00     0.118 C 
HETATM    5  N2  UNL     1      23.557   5.846  50.356  1.00  0.00    -0.295 NA
HETATM    6  P1  UNL     1      23.880   4.328  51.252  1.00  0.00    -0.014 P 
HETATM    7  C7  UNL     1      23.016   2.959  50.340  1.00  0.00     0.080 A 
HETATM    8  C8  UNL     1      22.020   2.152  50.763  1.00  0.00     0.145 A 
HETATM    9  N4  UNL     1      21.356   1.386  49.848  1.00  0.00    -0.223 NA
HETATM   10  C15 UNL     1      21.734   1.465  48.566  1.00  0.00     0.238 A 
HETATM   11  N5  UNL     1      22.764   2.275  48.098  1.00  0.00    -0.217 NA
HETATM   12  C16 UNL     1      23.430   3.042  48.995  1.00  0.00     0.186 A 
HETATM   13  O3  UNL     1      24.453   3.939  48.883  1.00  0.00    -0.304 OA
HETATM   14  C17 UNL     1      25.648   3.966  49.574  1.00  0.00     0.142 C 
HETATM   15  C18 UNL     1      26.693   4.653  49.097  1.00  0.00     0.019 C 
HETATM   16  H10 UNL     1      22.639   6.272  50.700  1.00  0.00     0.127 HD
HETATM   17  H11 UNL     1      23.319   4.489  52.587  1.00  0.00     0.079 HD
ENDROOT
BRANCH   8  18
HETATM   18  N3  UNL     1      21.875   2.169  52.188  1.00  0.00    -0.340 N 
HETATM   19  H12 UNL     1      21.498   2.958  52.734  1.00  0.00     0.167 HD
BRANCH  18  20
HETATM   20  C9  UNL     1      22.277   1.106  53.004  1.00  0.00     0.035 A 
HETATM   21  C10 UNL     1      21.219   0.549  53.688  1.00  0.00     0.032 A 
HETATM   22  C11 UNL     1      21.483  -0.501  54.539  1.00  0.00     0.046 A 
HETATM   23  C12 UNL     1      22.806  -0.919  54.640  1.00  0.00     0.138 A 
HETATM   24  F1  UNL     1      23.084  -1.968  55.482  1.00  0.00    -0.204 F 
HETATM   25  C13 UNL     1      23.857  -0.340  53.926  1.00  0.00     0.074 A 
HETATM   26 CL1  UNL     1      25.488  -0.928  54.091  1.00  0.00    -0.081 Cl
HETATM   27  C14 UNL     1      23.595   0.666  53.113  1.00  0.00     0.056 A 
ENDBRANCH  18  20
ENDBRANCH   8  18
BRANCH   1  28
HETATM   28  C2  UNL     1      28.456   6.190  47.779  1.00  0.00     0.092 C 
BRANCH  28  29
HETATM   29  N1  UNL     1      29.188   6.770  48.965  1.00  0.00    -0.298 N 
HETATM   30  H4  UNL     1      29.080   7.282  49.913  1.00  0.00     0.177 HD
BRANCH  29  31
HETATM   31  S1  UNL     1      30.884   6.523  48.584  1.00  0.00     0.226 S 
HETATM   32  C1  UNL     1      31.721   7.888  49.364  1.00  0.00     0.186 C 
HETATM   33  O1  UNL     1      31.333   5.231  49.146  1.00  0.00    -0.206 OA
HETATM   34  O2  UNL     1      30.982   6.648  47.093  1.00  0.00    -0.206 OA
ENDBRANCH  29  31
ENDBRANCH  28  29
ENDBRANCH   1  28
TORSDOF 5
ENDMDL
MODEL 2
REMARK VINA RESULT:      -8.5      5.118      6.710
REMARK  5 active torsions:
REMARK  status: ('A' for Active; 'I' for Inactive)
REMARK    1  A    between atoms: S1_2  and  N1_5 
REMARK    2  A    between atoms: N1_5  and  C2_6 
REMARK    3  A    between atoms: C2_6  and  C3_7 
REMARK    4  A    between atoms: C8_14  and  N3_15 
REMARK    5  A    between atoms: N3_15  and  C9_16 
ROOT
HETATM    1  C3  UNL     1      26.497  -0.210  52.960  1.00  0.00     0.049 C 
HETATM    2  C4  UNL     1      25.507  -0.502  54.249  1.00  0.00    -0.009 C 
HETATM    3  C5  UNL     1      24.070  -0.489  54.024  1.00  0.00    -0.015 C 
HETATM    4  C6  UNL     1      22.639  -0.501  53.927  1.00  0.00     0.118 C 
HETATM    5  N2  UNL     1      21.934   0.556  53.445  1.00  0.00    -0.295 NA
HETATM    6  P1  UNL     1      21.936   0.890  51.685  1.00  0.00    -0.014 P 
HETATM    7  C7  UNL     1      21.894   2.735  51.477  1.00  0.00     0.080 A 
HETATM    8  C8  UNL     1      20.950   3.503  50.893  1.00  0.00     0.145 A 
HETATM    9  N4  UNL     1      20.991   4.857  51.077  1.00  0.00    -0.223 NA
HETATM   10  C15 UNL     1      21.981   5.361  51.825  1.00  0.00     0.238 A 
HETATM   11  N5  UNL     1      22.977   4.601  52.430  1.00  0.00    -0.217 NA
HETATM   12  C16 UNL     1      22.946   3.256  52.257  1.00  0.00     0.186 A 
HETATM   13  O3  UNL     1      23.734   2.237  52.708  1.00  0.00    -0.304 OA
HETATM   14  C17 UNL     1      24.357   1.248  51.974  1.00  0.00     0.142 C 
HETATM   15  C18 UNL     1      25.388   0.567  52.489  1.00  0.00     0.019 C 
HETATM   16  H10 UNL     1      20.925   0.516  53.797  1.00  0.00     0.127 HD
HETATM   17  H11 UNL     1      20.733   0.283  51.130  1.00  0.00     0.079 HD
ENDROOT
BRANCH   8  18
HETATM   18  N3  UNL     1      20.066   2.742  50.064  1.00  0.00    -0.340 N 
HETATM   19  H12 UNL     1      20.279   2.423  49.108  1.00  0.00     0.167 HD
BRANCH  18  20
HETATM   20  C9  UNL     1      18.775   2.377  50.465  1.00  0.00     0.035 A 
HETATM   21  C10 UNL     1      18.428   1.122  50.016  1.00  0.00     0.032 A 
HETATM   22  C11 UNL     1      17.174   0.649  50.332  1.00  0.00     0.046 A 
HETATM   23  C12 UNL     1      16.353   1.481  51.085  1.00  0.00     0.138 A 
HETATM   24  F1  UNL     1      15.100   1.020  51.411  1.00  0.00    -0.204 F 
HETATM   25  C13 UNL     1      16.736   2.746  51.534  1.00  0.00     0.074 A 
HETATM   26 CL1  UNL     1      15.658   3.727  52.488  1.00  0.00    -0.081 Cl
HETATM   27  C14 UNL     1      17.939   3.192  51.226  1.00  0.00     0.056 A 
ENDBRANCH  18  20
ENDBRANCH   8  18
BRANCH   1  28
HETATM   28  C2  UNL     1      27.348  -0.538  53.955  1.00  0.00     0.092 C 
BRANCH  28  29
HETATM   29  N1  UNL     1      27.296   0.918  54.349  1.00  0.00    -0.298 N 
HETATM   30  H4  UNL     1      26.678   1.707  54.761  1.00  0.00     0.177 HD
BRANCH  29  31
HETATM   31  S1  UNL     1      28.878   1.537  53.906  1.00  0.00     0.226 S 
HETATM   32  C1  UNL     1      29.835   0.085  53.521  1.00  0.00     0.186 C 
HETATM   33  O1  UNL     1      28.751   2.420  52.726  1.00  0.00    -0.206 OA
HETATM   34  O2  UNL     1      29.415   2.189  55.145  1.00  0.00    -0.206 OA
ENDBRANCH  29  31
ENDBRANCH  28  29
ENDBRANCH   1  28
TORSDOF 5
ENDMDL
MODEL 3
REMARK VINA RESULT:      -8.4      5.327      8.699
REMARK  5 active torsions:
REMARK  status: ('A' for Active; 'I' for Inactive)
REMARK    1  A    between atoms: S1_2  and  N1_5 
REMARK    2  A    between atoms: N1_5  and  C2_6 
REMARK    3  A    between atoms: C2_6  and  C3_7 
REMARK    4  A    between atoms: C8_14  and  N3_15 
REMARK    5  A    between atoms: N3_15  and  C9_16 
ROOT
HETATM    1  C3  UNL     1      18.786   2.907  51.733  1.00  0.00     0.049 C 
HETATM    2  C4  UNL     1      18.991   1.323  51.315  1.00  0.00    -0.009 C 
HETATM    3  C5  UNL     1      20.197   0.646  51.765  1.00  0.00    -0.015 C 
HETATM    4  C6  UNL     1      21.343  -0.125  52.150  1.00  0.00     0.118 C 
HETATM    5  N2  UNL     1      22.612   0.262  51.857  1.00  0.00    -0.295 NA
HETATM    6  P1  UNL     1      23.356   1.612  52.770  1.00  0.00    -0.014 P 
HETATM    7  C7  UNL     1      24.435   2.548  51.582  1.00  0.00     0.080 A 
HETATM    8  C8  UNL     1      25.771   2.738  51.616  1.00  0.00     0.145 A 
HETATM    9  N4  UNL     1      26.397   3.238  50.509  1.00  0.00    -0.223 NA
HETATM   10  C15 UNL     1      25.647   3.527  49.438  1.00  0.00     0.238 A 
HETATM   11  N5  UNL     1      24.268   3.356  49.373  1.00  0.00    -0.217 NA
HETATM   12  C16 UNL     1      23.635   2.859  50.464  1.00  0.00     0.186 A 
HETATM   13  O3  UNL     1      22.331   2.558  50.733  1.00  0.00    -0.304 OA
HETATM   14  C17 UNL     1      21.555   2.982  51.794  1.00  0.00     0.142 C 
HETATM   15  C18 UNL     1      20.220   2.928  51.723  1.00  0.00     0.019 C 
HETATM   16  H10 UNL     1      23.268  -0.582  51.875  1.00  0.00     0.127 HD
HETATM   17  H11 UNL     1      24.157   1.021  53.834  1.00  0.00     0.079 HD
ENDROOT
BRANCH   8  18
HETATM   18  N3  UNL     1      26.328   2.451  52.904  1.00  0.00    -0.340 N 
HETATM   19  H12 UNL     1      26.156   3.001  53.758  1.00  0.00     0.167 HD
BRANCH  18  20
HETATM   20  C9  UNL     1      27.217   1.393  53.128  1.00  0.00     0.035 A 
HETATM   21  C10 UNL     1      28.394   1.817  53.704  1.00  0.00     0.032 A 
HETATM   22  C11 UNL     1      29.360   0.872  53.965  1.00  0.00     0.046 A 
HETATM   23  C12 UNL     1      29.069  -0.445  53.625  1.00  0.00     0.138 A 
HETATM   24  F1  UNL     1      30.023  -1.399  53.883  1.00  0.00    -0.204 F 
HETATM   25  C13 UNL     1      27.861  -0.846  53.050  1.00  0.00     0.074 A 
HETATM   26 CL1  UNL     1      27.561  -2.518  52.665  1.00  0.00    -0.081 Cl
HETATM   27  C14 UNL     1      26.941   0.066  52.802  1.00  0.00     0.056 A 
ENDBRANCH  18  20
ENDBRANCH   8  18
BRANCH   1  28
HETATM   28  C2  UNL     1      17.624   2.578  51.131  1.00  0.00     0.092 C 
BRANCH  28  29
HETATM   29  N1  UNL     1      17.096   3.894  51.647  1.00  0.00    -0.298 N 
HETATM   30  H4  UNL     1      17.360   4.889  51.982  1.00  0.00     0.177 HD
BRANCH  29  31
HETATM   31  S1  UNL     1      15.362   3.639  51.772  1.00  0.00     0.226 S 
HETATM   32  C1  UNL     1      14.934   4.258  53.387  1.00  0.00     0.186 C 
HETATM   33  O1  UNL     1      14.674   4.402  50.709  1.00  0.00    -0.206 OA
HETATM   34  O2  UNL     1      15.171   2.153  51.727  1.00  0.00    -0.206 OA
ENDBRANCH  29  31
ENDBRANCH  28  29
ENDBRANCH   1  28
TORSDOF 5
ENDMDL
MODEL 4
REMARK VINA RESULT:      -8.4      5.308      7.186
REMARK  5 active torsions:
REMARK  status: ('A' for Active; 'I' for Inactive)
REMARK    1  A    between atoms: S1_2  and  N1_5 
REMARK    2  A    between atoms: N1_5  and  C2_6 
REMARK    3  A    between atoms: C2_6  and  C3_7 
REMARK    4  A    between atoms: C8_14  and  N3_15 
REMARK    5  A    between atoms: N3_15  and  C9_16 
ROOT
HETATM    1  C3  UNL     1      26.486  -0.182  52.956  1.00  0.00     0.049 C 
HETATM    2  C4  UNL     1      25.479  -0.500  54.225  1.00  0.00    -0.009 C 
HETATM    3  C5  UNL     1      24.045  -0.496  53.980  1.00  0.00    -0.015 C 
HETATM    4  C6  UNL     1      22.616  -0.519  53.860  1.00  0.00     0.118 C 
HETATM    5  N2  UNL     1      21.909   0.538  53.382  1.00  0.00    -0.295 NA
HETATM    6  P1  UNL     1      21.935   0.896  51.626  1.00  0.00    -0.014 P 
HETATM    7  C7  UNL     1      21.880   2.743  51.442  1.00  0.00     0.080 A 
HETATM    8  C8  UNL     1      20.938   3.511  50.855  1.00  0.00     0.145 A 
HETATM    9  N4  UNL     1      20.965   4.863  51.057  1.00  0.00    -0.223 NA
HETATM   10  C15 UNL     1      21.938   5.365  51.827  1.00  0.00     0.238 A 
HETATM   11  N5  UNL     1      22.932   4.605  52.436  1.00  0.00    -0.217 NA
HETATM   12  C16 UNL     1      22.915   3.263  52.246  1.00  0.00     0.186 A 
HETATM   13  O3  UNL     1      23.705   2.245  52.695  1.00  0.00    -0.304 OA
HETATM   14  C17 UNL     1      24.348   1.270  51.957  1.00  0.00     0.142 C 
HETATM   15  C18 UNL     1      25.377   0.592  52.479  1.00  0.00     0.019 C 
HETATM   16  H10 UNL     1      20.896   0.485  53.717  1.00  0.00     0.127 HD
HETATM   17  H11 UNL     1      20.745   0.286  51.046  1.00  0.00     0.079 HD
ENDROOT
BRANCH   8  18
HETATM   18  N3  UNL     1      20.073   2.753  50.002  1.00  0.00    -0.340 N 
HETATM   19  H12 UNL     1      19.535   1.923  50.292  1.00  0.00     0.167 HD
BRANCH  18  20
HETATM   20  C9  UNL     1      19.898   3.046  48.644  1.00  0.00     0.035 A 
HETATM   21  C10 UNL     1      18.567   3.096  48.292  1.00  0.00     0.032 A 
HETATM   22  C11 UNL     1      18.258   3.363  46.978  1.00  0.00     0.046 A 
HETATM   23  C12 UNL     1      19.322   3.565  46.104  1.00  0.00     0.138 A 
HETATM   24  F1  UNL     1      19.028   3.836  44.789  1.00  0.00    -0.204 F 
HETATM   25  C13 UNL     1      20.662   3.518  46.493  1.00  0.00     0.074 A 
HETATM   26 CL1  UNL     1      21.942   3.797  45.345  1.00  0.00    -0.081 Cl
HETATM   27  C14 UNL     1      20.949   3.260  47.754  1.00  0.00     0.056 A 
ENDBRANCH  18  20
ENDBRANCH   8  18
BRANCH   1  28
HETATM   28  C2  UNL     1      27.324  -0.516  53.960  1.00  0.00     0.092 C 
BRANCH  28  29
HETATM   29  N1  UNL     1      27.283   0.942  54.350  1.00  0.00    -0.298 N 
HETATM   30  H4  UNL     1      26.671   1.737  54.756  1.00  0.00     0.177 HD
BRANCH  29  31
HETATM   31  S1  UNL     1      28.873   1.546  53.913  1.00  0.00     0.226 S 
HETATM   32  C1  UNL     1      29.816   0.084  53.530  1.00  0.00     0.186 C 
HETATM   33  O1  UNL     1      28.759   2.431  52.734  1.00  0.00    -0.206 OA
HETATM   34  O2  UNL     1      29.412   2.189  55.155  1.00  0.00    -0.206 OA
ENDBRANCH  29  31
ENDBRANCH  28  29
ENDBRANCH   1  28
TORSDOF 5
ENDMDL
MODEL 5
REMARK VINA RESULT:      -8.0      6.018      7.481
REMARK  5 active torsions:
REMARK  status: ('A' for Active; 'I' for Inactive)
REMARK    1  A    between atoms: S1_2  and  N1_5 
REMARK    2  A    between atoms: N1_5  and  C2_6 
REMARK    3  A    between atoms: C2_6  and  C3_7 
REMARK    4  A    between atoms: C8_14  and  N3_15 
REMARK    5  A    between atoms: N3_15  and  C9_16 
ROOT
HETATM    1  C3  UNL     1      25.011   2.465  53.052  1.00  0.00     0.049 C 
HETATM    2  C4  UNL     1      25.126   2.548  51.407  1.00  0.00    -0.009 C 
HETATM    3  C5  UNL     1      24.037   3.176  50.676  1.00  0.00    -0.015 C 
HETATM    4  C6  UNL     1      23.028   3.771  49.848  1.00  0.00     0.118 C 
HETATM    5  N2  UNL     1      21.732   3.365  49.877  1.00  0.00    -0.295 NA
HETATM    6  P1  UNL     1      20.696   3.819  51.267  1.00  0.00    -0.014 P 
HETATM    7  C7  UNL     1      19.544   2.396  51.579  1.00  0.00     0.080 A 
HETATM    8  C8  UNL     1      18.196   2.362  51.508  1.00  0.00     0.145 A 
HETATM    9  N4  UNL     1      17.563   1.152  51.524  1.00  0.00    -0.223 NA
HETATM   10  C15 UNL     1      18.315   0.048  51.620  1.00  0.00     0.238 A 
HETATM   11  N5  UNL     1      19.704   0.047  51.709  1.00  0.00    -0.217 NA
HETATM   12  C16 UNL     1      20.344   1.242  51.691  1.00  0.00     0.186 A 
HETATM   13  O3  UNL     1      21.661   1.597  51.742  1.00  0.00    -0.304 OA
HETATM   14  C17 UNL     1      22.276   2.483  52.605  1.00  0.00     0.142 C 
HETATM   15  C18 UNL     1      23.601   2.440  52.791  1.00  0.00     0.019 C 
HETATM   16  H10 UNL     1      21.241   3.636  48.967  1.00  0.00     0.127 HD
HETATM   17  H11 UNL     1      19.949   5.008  50.876  1.00  0.00     0.079 HD
ENDROOT
BRANCH   8  18
HETATM   18  N3  UNL     1      17.619   3.672  51.516  1.00  0.00    -0.340 N 
HETATM   19  H12 UNL     1      18.152   4.554  51.530  1.00  0.00     0.167 HD
BRANCH  18  20
HETATM   20  C9  UNL     1      16.236   3.892  51.547  1.00  0.00     0.035 A 
HETATM   21  C10 UNL     1      15.709   4.054  50.284  1.00  0.00     0.032 A 
HETATM   22  C11 UNL     1      14.358   4.291  50.176  1.00  0.00     0.046 A 
HETATM   23  C12 UNL     1      13.627   4.348  51.358  1.00  0.00     0.138 A 
HETATM   24  F1  UNL     1      12.275   4.580  51.265  1.00  0.00    -0.204 F 
HETATM   25  C13 UNL     1      14.188   4.170  52.624  1.00  0.00     0.074 A 
HETATM   26 CL1  UNL     1      13.206   4.239  54.061  1.00  0.00    -0.081 Cl
HETATM   27  C14 UNL     1      15.484   3.945  52.719  1.00  0.00     0.056 A 
ENDBRANCH  18  20
ENDBRANCH   8  18
BRANCH   1  28
HETATM   28  C2  UNL     1      26.250   2.000  52.790  1.00  0.00     0.092 C 
BRANCH  28  29
HETATM   29  N1  UNL     1      26.429   1.912  54.286  1.00  0.00    -0.298 N 
HETATM   30  H4  UNL     1      26.262   2.411  55.233  1.00  0.00     0.177 HD
BRANCH  29  31
HETATM   31  S1  UNL     1      27.289   0.400  54.526  1.00  0.00     0.226 S 
HETATM   32  C1  UNL     1      27.443  -0.290  52.890  1.00  0.00     0.186 C 
HETATM   33  O1  UNL     1      28.617   0.674  55.116  1.00  0.00    -0.206 OA
HETATM   34  O2  UNL     1      26.377  -0.453  55.355  1.00  0.00    -0.206 OA
ENDBRANCH  29  31
ENDBRANCH  28  29
ENDBRANCH   1  28
TORSDOF 5
ENDMDL
MODEL 6
REMARK VINA RESULT:      -7.8      2.018      2.331
REMARK  5 active torsions:
REMARK  status: ('A' for Active; 'I' for Inactive)
REMARK    1  A    between atoms: S1_2  and  N1_5 
REMARK    2  A    between atoms: N1_5  and  C2_6 
REMARK    3  A    between atoms: C2_6  and  C3_7 
REMARK    4  A    between atoms: C8_14  and  N3_15 
REMARK    5  A    between atoms: N3_15  and  C9_16 
ROOT
HETATM    1  C3  UNL     1      27.548   6.314  48.586  1.00  0.00     0.049 C 
HETATM    2  C4  UNL     1      26.368   7.458  48.743  1.00  0.00    -0.009 C 
HETATM    3  C5  UNL     1      25.327   7.236  49.734  1.00  0.00    -0.015 C 
HETATM    4  C6  UNL     1      24.250   7.129  50.675  1.00  0.00     0.118 C 
HETATM    5  N2  UNL     1      23.412   6.059  50.701  1.00  0.00    -0.295 NA
HETATM    6  P1  UNL     1      23.993   4.499  51.363  1.00  0.00    -0.014 P 
HETATM    7  C7  UNL     1      23.200   3.150  50.362  1.00  0.00     0.080 A 
HETATM    8  C8  UNL     1      22.349   2.181  50.763  1.00  0.00     0.145 A 
HETATM    9  N4  UNL     1      21.685   1.451  49.818  1.00  0.00    -0.223 NA
HETATM   10  C15 UNL     1      21.919   1.726  48.529  1.00  0.00     0.238 A 
HETATM   11  N5  UNL     1      22.799   2.707  48.081  1.00  0.00    -0.217 NA
HETATM   12  C16 UNL     1      23.462   3.441  49.008  1.00  0.00     0.186 A 
HETATM   13  O3  UNL     1      24.361   4.465  48.922  1.00  0.00    -0.304 OA
HETATM   14  C17 UNL     1      25.610   4.559  49.504  1.00  0.00     0.142 C 
HETATM   15  C18 UNL     1      26.517   5.421  49.029  1.00  0.00     0.019 C 
HETATM   16  H10 UNL     1      22.492   6.324  51.177  1.00  0.00     0.127 HD
HETATM   17  H11 UNL     1      23.557   4.431  52.752  1.00  0.00     0.079 HD
ENDROOT
BRANCH   8  18
HETATM   18  N3  UNL     1      22.350   2.013  52.185  1.00  0.00    -0.340 N 
HETATM   19  H12 UNL     1      22.784   2.662  52.857  1.00  0.00     0.167 HD
BRANCH  18  20
HETATM   20  C9  UNL     1      21.780   0.902  52.817  1.00  0.00     0.035 A 
HETATM   21  C10 UNL     1      22.708   0.184  53.540  1.00  0.00     0.032 A 
HETATM   22  C11 UNL     1      22.277  -0.944  54.201  1.00  0.00     0.046 A 
HETATM   23  C12 UNL     1      20.930  -1.270  54.088  1.00  0.00     0.138 A 
HETATM   24  F1  UNL     1      20.485  -2.391  54.746  1.00  0.00    -0.204 F 
HETATM   25  C13 UNL     1      20.010  -0.517  53.356  1.00  0.00     0.074 A 
HETATM   26 CL1  UNL     1      18.333  -0.979  53.273  1.00  0.00    -0.081 Cl
HETATM   27  C14 UNL     1      20.432   0.562  52.724  1.00  0.00     0.056 A 
ENDBRANCH  18  20
ENDBRANCH   8  18
BRANCH   1  28
HETATM   28  C2  UNL     1      27.952   7.310  47.771  1.00  0.00     0.092 C 
BRANCH  28  29
HETATM   29  N1  UNL     1      28.818   7.769  48.919  1.00  0.00    -0.298 N 
HETATM   30  H4  UNL     1      29.082   7.602  49.956  1.00  0.00     0.177 HD
BRANCH  29  31
HETATM   31  S1  UNL     1      29.695   9.145  48.269  1.00  0.00     0.226 S 
HETATM   32  C1  UNL     1      30.585   8.488  46.873  1.00  0.00     0.186 C 
HETATM   33  O1  UNL     1      28.735  10.187  47.847  1.00  0.00    -0.206 OA
HETATM   34  O2  UNL     1      30.658   9.550  49.343  1.00  0.00    -0.206 OA
ENDBRANCH  29  31
ENDBRANCH  28  29
ENDBRANCH   1  28
TORSDOF 5
ENDMDL
MODEL 7
REMARK VINA RESULT:      -7.7      5.948      8.120
REMARK  5 active torsions:
REMARK  status: ('A' for Active; 'I' for Inactive)
REMARK    1  A    between atoms: S1_2  and  N1_5 
REMARK    2  A    between atoms: N1_5  and  C2_6 
REMARK    3  A    between atoms: C2_6  and  C3_7 
REMARK    4  A    between atoms: C8_14  and  N3_15 
REMARK    5  A    between atoms: N3_15  and  C9_16 
ROOT
HETATM    1  C3  UNL     1      24.785  -0.328  53.113  1.00  0.00     0.049 C 
HETATM    2  C4  UNL     1      23.389  -0.542  53.970  1.00  0.00    -0.009 C 
HETATM    3  C5  UNL     1      22.126  -0.282  53.297  1.00  0.00    -0.015 C 
HETATM    4  C6  UNL     1      20.823  -0.057  52.742  1.00  0.00     0.118 C 
HETATM    5  N2  UNL     1      20.465   1.130  52.186  1.00  0.00    -0.295 NA
HETATM    6  P1  UNL     1      21.103   1.577  50.572  1.00  0.00    -0.014 P 
HETATM    7  C7  UNL     1      21.373   3.415  50.580  1.00  0.00     0.080 A 
HETATM    8  C8  UNL     1      20.789   4.363  49.817  1.00  0.00     0.145 A 
HETATM    9  N4  UNL     1      20.942   5.676  50.161  1.00  0.00    -0.223 NA
HETATM   10  C15 UNL     1      21.678   5.963  51.242  1.00  0.00     0.238 A 
HETATM   11  N5  UNL     1      22.305   5.013  52.042  1.00  0.00    -0.217 NA
HETATM   12  C16 UNL     1      22.159   3.706  51.713  1.00  0.00     0.186 A 
HETATM   13  O3  UNL     1      22.610   2.545  52.271  1.00  0.00    -0.304 OA
HETATM   14  C17 UNL     1      23.310   1.519  51.667  1.00  0.00     0.142 C 
HETATM   15  C18 UNL     1      24.010   0.648  52.404  1.00  0.00     0.019 C 
HETATM   16  H10 UNL     1      19.401   1.230  52.186  1.00  0.00     0.127 HD
HETATM   17  H11 UNL     1      20.088   1.211  49.592  1.00  0.00     0.079 HD
ENDROOT
BRANCH   8  18
HETATM   18  N3  UNL     1      20.145   3.811  48.663  1.00  0.00    -0.340 N 
HETATM   19  H12 UNL     1      19.461   3.040  48.680  1.00  0.00     0.167 HD
BRANCH  18  20
HETATM   20  C9  UNL     1      20.416   4.247  47.361  1.00  0.00     0.035 A 
HETATM   21  C10 UNL     1      21.426   3.520  46.770  1.00  0.00     0.032 A 
HETATM   22  C11 UNL     1      21.799   3.859  45.489  1.00  0.00     0.046 A 
HETATM   23  C12 UNL     1      21.121   4.914  44.889  1.00  0.00     0.138 A 
HETATM   24  F1  UNL     1      21.480   5.261  43.608  1.00  0.00    -0.204 F 
HETATM   25  C13 UNL     1      20.093   5.627  45.510  1.00  0.00     0.074 A 
HETATM   26 CL1  UNL     1      19.277   6.929  44.688  1.00  0.00    -0.081 Cl
HETATM   27  C14 UNL     1      19.743   5.297  46.738  1.00  0.00     0.056 A 
ENDBRANCH  18  20
ENDBRANCH   8  18
BRANCH   1  28
HETATM   28  C2  UNL     1      25.200  -0.855  54.284  1.00  0.00     0.092 C 
BRANCH  28  29
HETATM   29  N1  UNL     1      26.554  -0.991  53.631  1.00  0.00    -0.298 N 
HETATM   30  H4  UNL     1      27.150  -1.561  52.929  1.00  0.00     0.177 HD
BRANCH  29  31
HETATM   31  S1  UNL     1      27.514   0.282  54.368  1.00  0.00     0.226 S 
HETATM   32  C1  UNL     1      27.994   1.325  53.006  1.00  0.00     0.186 C 
HETATM   33  O1  UNL     1      26.685   1.024  55.342  1.00  0.00    -0.206 OA
HETATM   34  O2  UNL     1      28.720  -0.403  54.936  1.00  0.00    -0.206 OA
ENDBRANCH  29  31
ENDBRANCH  28  29
ENDBRANCH   1  28
TORSDOF 5
ENDMDL
MODEL 8
REMARK VINA RESULT:      -7.6      5.519      8.394
REMARK  5 active torsions:
REMARK  status: ('A' for Active; 'I' for Inactive)
REMARK    1  A    between atoms: S1_2  and  N1_5 
REMARK    2  A    between atoms: N1_5  and  C2_6 
REMARK    3  A    between atoms: C2_6  and  C3_7 
REMARK    4  A    between atoms: C8_14  and  N3_15 
REMARK    5  A    between atoms: N3_15  and  C9_16 
ROOT
HETATM    1  C3  UNL     1      24.323   1.117  51.962  1.00  0.00     0.049 C 
HETATM    2  C4  UNL     1      24.371   2.217  53.193  1.00  0.00    -0.009 C 
HETATM    3  C5  UNL     1      23.897   3.565  52.925  1.00  0.00    -0.015 C 
HETATM    4  C6  UNL     1      23.458   4.923  52.782  1.00  0.00     0.118 C 
HETATM    5  N2  UNL     1      23.962   5.754  51.832  1.00  0.00    -0.295 NA
HETATM    6  P1  UNL     1      23.477   5.537  50.121  1.00  0.00    -0.014 P 
HETATM    7  C7  UNL     1      24.956   5.947  49.075  1.00  0.00     0.080 A 
HETATM    8  C8  UNL     1      25.104   6.928  48.160  1.00  0.00     0.145 A 
HETATM    9  N4  UNL     1      26.356   7.214  47.692  1.00  0.00    -0.223 NA
HETATM   10  C15 UNL     1      27.383   6.495  48.162  1.00  0.00     0.238 A 
HETATM   11  N5  UNL     1      27.265   5.469  49.095  1.00  0.00    -0.217 NA
HETATM   12  C16 UNL     1      26.029   5.177  49.568  1.00  0.00     0.186 A 
HETATM   13  O3  UNL     1      25.565   4.270  50.476  1.00  0.00    -0.304 OA
HETATM   14  C17 UNL     1      24.563   3.333  50.316  1.00  0.00     0.142 C 
HETATM   15  C18 UNL     1      24.483   2.277  51.135  1.00  0.00     0.019 C 
HETATM   16  H10 UNL     1      23.811   6.773  52.117  1.00  0.00     0.127 HD
HETATM   17  H11 UNL     1      22.389   6.472  49.861  1.00  0.00     0.079 HD
ENDROOT
BRANCH   8  18
HETATM   18  N3  UNL     1      23.849   7.477  47.743  1.00  0.00    -0.340 N 
HETATM   19  H12 UNL     1      23.233   8.058  48.331  1.00  0.00     0.167 HD
BRANCH  18  20
HETATM   20  C9  UNL     1      23.298   7.238  46.478  1.00  0.00     0.035 A 
HETATM   21  C10 UNL     1      22.230   6.371  46.533  1.00  0.00     0.032 A 
HETATM   22  C11 UNL     1      21.606   6.042  45.351  1.00  0.00     0.046 A 
HETATM   23  C12 UNL     1      22.106   6.618  44.188  1.00  0.00     0.138 A 
HETATM   24  F1  UNL     1      21.490   6.302  43.000  1.00  0.00    -0.204 F 
HETATM   25  C13 UNL     1      23.186   7.503  44.165  1.00  0.00     0.074 A 
HETATM   26 CL1  UNL     1      23.748   8.198  42.670  1.00  0.00    -0.081 Cl
HETATM   27  C14 UNL     1      23.779   7.811  45.302  1.00  0.00     0.056 A 
ENDBRANCH  18  20
ENDBRANCH   8  18
BRANCH   1  28
HETATM   28  C2  UNL     1      24.708   0.390  53.031  1.00  0.00     0.092 C 
BRANCH  28  29
HETATM   29  N1  UNL     1      26.025   0.213  52.316  1.00  0.00    -0.298 N 
HETATM   30  H4  UNL     1      26.550   0.332  51.376  1.00  0.00     0.177 HD
BRANCH  29  31
HETATM   31  S1  UNL     1      27.072  -0.515  53.523  1.00  0.00     0.226 S 
HETATM   32  C1  UNL     1      28.574   0.440  53.445  1.00  0.00     0.186 C 
HETATM   33  O1  UNL     1      26.440  -0.407  54.855  1.00  0.00    -0.206 OA
HETATM   34  O2  UNL     1      27.330  -1.911  53.041  1.00  0.00    -0.206 OA
ENDBRANCH  29  31
ENDBRANCH  28  29
ENDBRANCH   1  28
TORSDOF 5
ENDMDL
MODEL 9
REMARK VINA RESULT:      -7.5      4.466      5.575
REMARK  5 active torsions:
REMARK  status: ('A' for Active; 'I' for Inactive)
REMARK    1  A    between atoms: S1_2  and  N1_5 
REMARK    2  A    between atoms: N1_5  and  C2_6 
REMARK    3  A    between atoms: C2_6  and  C3_7 
REMARK    4  A    between atoms: C8_14  and  N3_15 
REMARK    5  A    between atoms: N3_15  and  C9_16 
ROOT
HETATM    1  C3  UNL     1      23.875   7.935  46.508  1.00  0.00     0.049 C 
HETATM    2  C4  UNL     1      25.198   8.632  47.209  1.00  0.00    -0.009 C 
HETATM    3  C5  UNL     1      26.160   7.765  47.870  1.00  0.00    -0.015 C 
HETATM    4  C6  UNL     1      27.175   7.014  48.550  1.00  0.00     0.118 C 
HETATM    5  N2  UNL     1      26.892   6.180  49.585  1.00  0.00    -0.295 NA
HETATM    6  P1  UNL     1      26.106   4.603  49.259  1.00  0.00    -0.014 P 
HETATM    7  C7  UNL     1      24.957   4.260  50.678  1.00  0.00     0.080 A 
HETATM    8  C8  UNL     1      24.988   3.247  51.570  1.00  0.00     0.145 A 
HETATM    9  N4  UNL     1      24.204   3.325  52.687  1.00  0.00    -0.223 NA
HETATM   10  C15 UNL     1      23.430   4.407  52.839  1.00  0.00     0.238 A 
HETATM   11  N5  UNL     1      23.364   5.462  51.934  1.00  0.00    -0.217 NA
HETATM   12  C16 UNL     1      24.138   5.398  50.823  1.00  0.00     0.186 A 
HETATM   13  O3  UNL     1      24.328   6.240  49.766  1.00  0.00    -0.304 OA
HETATM   14  C17 UNL     1      24.226   5.958  48.418  1.00  0.00     0.142 C 
HETATM   15  C18 UNL     1      24.058   6.944  47.529  1.00  0.00     0.019 C 
HETATM   16  H10 UNL     1      27.765   6.024  50.181  1.00  0.00     0.127 HD
HETATM   17  H11 UNL     1      27.161   3.601  49.199  1.00  0.00     0.079 HD
ENDROOT
BRANCH   8  18
HETATM   18  N3  UNL     1      25.813   2.162  51.133  1.00  0.00    -0.340 N 
HETATM   19  H12 UNL     1      25.812   1.764  50.182  1.00  0.00     0.167 HD
BRANCH  18  20
HETATM   20  C9  UNL     1      26.699   1.491  51.985  1.00  0.00     0.035 A 
HETATM   21  C10 UNL     1      26.539   0.124  51.924  1.00  0.00     0.032 A 
HETATM   22  C11 UNL     1      27.343  -0.654  52.727  1.00  0.00     0.046 A 
HETATM   23  C12 UNL     1      28.260   0.006  53.538  1.00  0.00     0.138 A 
HETATM   24  F1  UNL     1      29.072  -0.758  54.341  1.00  0.00    -0.204 F 
HETATM   25  C13 UNL     1      28.405   1.395  53.570  1.00  0.00     0.074 A 
HETATM   26 CL1  UNL     1      29.587   2.152  54.601  1.00  0.00    -0.081 Cl
HETATM   27  C14 UNL     1      27.630   2.133  52.799  1.00  0.00     0.056 A 
ENDBRANCH  18  20
ENDBRANCH   8  18
BRANCH   1  28
HETATM   28  C2  UNL     1      23.784   9.233  46.152  1.00  0.00     0.092 C 
BRANCH  28  29
HETATM   29  N1  UNL     1      24.549   8.846  44.909  1.00  0.00    -0.298 N 
HETATM   30  H4  UNL     1      25.471   8.428  44.527  1.00  0.00     0.177 HD
BRANCH  29  31
HETATM   31  S1  UNL     1      23.489   9.320  43.591  1.00  0.00     0.226 S 
HETATM   32  C1  UNL     1      23.041   7.786  42.804  1.00  0.00     0.186 C 
HETATM   33  O1  UNL     1      22.299  10.007  44.137  1.00  0.00    -0.206 OA
HETATM   34  O2  UNL     1      24.340  10.138  42.668  1.00  0.00    -0.206 OA
ENDBRANCH  29  31
ENDBRANCH  28  29
ENDBRANCH   1  28
TORSDOF 5
ENDMDL
