MODEL 1
REMARK VINA RESULT:      -7.7      0.000      0.000
REMARK  9 active torsions:
REMARK  status: ('A' for Active; 'I' for Inactive)
REMARK    1  A    between atoms: C2_2  and  N1_3 
REMARK    2  A    between atoms: N1_3  and  C4_5 
REMARK    3  A    between atoms: C4_5  and  C5_6 
REMARK    4  A    between atoms: C10_11  and  C11_12 
REMARK    5  A    between atoms: C11_12  and  O1_13 
REMARK    6  A    between atoms: O1_13  and  C12_14 
REMARK    7  A    between atoms: C15_17  and  C16_18 
REMARK    8  A    between atoms: C16_18  and  C17_20 
REMARK    9  A    between atoms: C19_23  and  N2_24 
ROOT
HETATM    1  C12 UNL     1      26.238   4.858  49.303  1.00  0.00     0.069 A 
HETATM    2  C13 UNL     1      27.546   4.580  48.880  1.00  0.00     0.037 A 
HETATM    3  C14 UNL     1      28.308   5.539  48.200  1.00  0.00     0.018 A 
HETATM    4  C15 UNL     1      27.781   6.784  47.933  1.00  0.00     0.010 A 
HETATM    5  C20 UNL     1      26.497   7.058  48.347  1.00  0.00     0.018 A 
HETATM    6  C21 UNL     1      25.757   6.113  49.013  1.00  0.00     0.037 A 
ENDROOT
BRANCH   1   7
HETATM    7  O1  UNL     1      25.746   3.748  49.933  1.00  0.00    -0.347 OA
BRANCH   7   8
HETATM    8  C11 UNL     1      26.328   2.905  50.859  1.00  0.00     0.215 C 
BRANCH   8   9
HETATM    9  C10 UNL     1      25.355   2.057  51.553  1.00  0.00    -0.026 A 
HETATM   10  C5  UNL     1      25.972   1.066  52.329  1.00  0.00    -0.022 A 
HETATM   11  C6  UNL     1      25.144   0.184  53.038  1.00  0.00     0.009 A 
HETATM   12  C7  UNL     1      23.767   0.225  53.025  1.00  0.00     0.001 A 
HETATM   13  C8  UNL     1      23.175   1.205  52.256  1.00  0.00     0.001 A 
HETATM   14  C9  UNL     1      23.983   2.073  51.559  1.00  0.00     0.010 A 
BRANCH  10  15
HETATM   15  C4  UNL     1      27.462   0.891  52.440  1.00  0.00     0.311 C 
BRANCH  15  16
HETATM   16  N1  UNL     1      27.964   1.240  53.735  1.00  0.00     0.087 N 
HETATM   17  C3  UNL     1      28.817   2.398  53.767  1.00  0.00     0.310 C 
BRANCH  16  18
HETATM   18  C2  UNL     1      28.603   0.160  54.441  1.00  0.00     0.268 C 
HETATM   19  C1  UNL     1      29.677  -0.542  53.637  1.00  0.00     0.037 C 
ENDBRANCH  16  18
ENDBRANCH  15  16
ENDBRANCH  10  15
ENDBRANCH   8   9
ENDBRANCH   7   8
ENDBRANCH   1   7
BRANCH   4  20
HETATM   20  C16 UNL     1      28.546   7.807  47.232  1.00  0.00     0.167 C 
HETATM   21  O2  UNL     1      28.724   7.703  45.985  1.00  0.00    -0.292 OA
BRANCH  20  22
HETATM   22  C17 UNL     1      29.113   8.957  47.972  1.00  0.00     0.102 C 
HETATM   23  C18 UNL     1      30.354   9.502  47.328  1.00  0.00     0.091 C 
HETATM   24  S1  UNL     1      31.383   8.250  48.140  1.00  0.00    -0.143 SA
HETATM   25  C19 UNL     1      29.920   8.580  49.195  1.00  0.00     0.149 C 
BRANCH  25  26
HETATM   26  N2  UNL     1      30.057   9.690  50.091  1.00  0.00    -0.417 N 
HETATM   27  H23 UNL     1      30.831  10.347  49.877  1.00  0.00     0.151 HD
HETATM   28  H24 UNL     1      29.914   9.483  51.094  1.00  0.00     0.151 HD
ENDBRANCH  25  26
ENDBRANCH  20  22
ENDBRANCH   4  20
TORSDOF 9
ENDMDL
MODEL 2
REMARK VINA RESULT:      -7.5      1.868      3.413
REMARK  9 active torsions:
REMARK  status: ('A' for Active; 'I' for Inactive)
REMARK    1  A    between atoms: C2_2  and  N1_3 
REMARK    2  A    between atoms: N1_3  and  C4_5 
REMARK    3  A    between atoms: C4_5  and  C5_6 
REMARK    4  A    between atoms: C10_11  and  C11_12 
REMARK    5  A    between atoms: C11_12  and  O1_13 
REMARK    6  A    between atoms: O1_13  and  C12_14 
REMARK    7  A    between atoms: C15_17  and  C16_18 
REMARK    8  A    between atoms: C16_18  and  C17_20 
REMARK    9  A    between atoms: C19_23  and  N2_24 
ROOT
HETATM    1  C12 UNL     1      25.680   4.415  49.473  1.00  0.00     0.069 A 
HETATM    2  C13 UNL     1      26.999   4.027  49.198  1.00  0.00     0.037 A 
HETATM    3  C14 UNL     1      27.916   4.922  48.633  1.00  0.00     0.018 A 
HETATM    4  C15 UNL     1      27.535   6.212  48.335  1.00  0.00     0.010 A 
HETATM    5  C20 UNL     1      26.239   6.595  48.604  1.00  0.00     0.018 A 
HETATM    6  C21 UNL     1      25.347   5.711  49.158  1.00  0.00     0.037 A 
ENDROOT
BRANCH   1   7
HETATM    7  O1  UNL     1      25.022   3.345  50.017  1.00  0.00    -0.347 OA
BRANCH   7   8
HETATM    8  C11 UNL     1      24.685   3.066  51.326  1.00  0.00     0.215 C 
BRANCH   8   9
HETATM    9  C10 UNL     1      25.267   1.812  51.812  1.00  0.00    -0.026 A 
HETATM   10  C5  UNL     1      24.346   1.046  52.541  1.00  0.00    -0.022 A 
HETATM   11  C6  UNL     1      24.787  -0.176  53.067  1.00  0.00     0.009 A 
HETATM   12  C7  UNL     1      26.062  -0.677  52.915  1.00  0.00     0.001 A 
HETATM   13  C8  UNL     1      26.956   0.088  52.196  1.00  0.00     0.001 A 
HETATM   14  C9  UNL     1      26.528   1.289  51.679  1.00  0.00     0.010 A 
BRANCH  10  15
HETATM   15  C4  UNL     1      22.923   1.461  52.796  1.00  0.00     0.311 C 
BRANCH  15  16
HETATM   16  N1  UNL     1      21.999   0.375  52.661  1.00  0.00     0.087 N 
HETATM   17  C3  UNL     1      21.280   0.337  51.415  1.00  0.00     0.310 C 
BRANCH  16  18
HETATM   18  C2  UNL     1      21.067   0.243  53.751  1.00  0.00     0.268 C 
HETATM   19  C1  UNL     1      21.480  -0.783  54.785  1.00  0.00     0.037 C 
ENDBRANCH  16  18
ENDBRANCH  15  16
ENDBRANCH  10  15
ENDBRANCH   8   9
ENDBRANCH   7   8
ENDBRANCH   1   7
BRANCH   4  20
HETATM   20  C16 UNL     1      28.463   7.171  47.751  1.00  0.00     0.167 C 
HETATM   21  O2  UNL     1      29.407   6.755  47.019  1.00  0.00    -0.292 OA
BRANCH  20  22
HETATM   22  C17 UNL     1      28.307   8.620  48.012  1.00  0.00     0.102 C 
HETATM   23  C18 UNL     1      29.453   9.429  47.479  1.00  0.00     0.091 C 
HETATM   24  S1  UNL     1      30.441   9.092  48.960  1.00  0.00    -0.143 SA
HETATM   25  C19 UNL     1      28.666   9.047  49.417  1.00  0.00     0.149 C 
BRANCH  25  26
HETATM   26  N2  UNL     1      28.090  10.319  49.739  1.00  0.00    -0.417 N 
HETATM   27  H23 UNL     1      27.690  10.845  48.940  1.00  0.00     0.151 HD
HETATM   28  H24 UNL     1      28.606  10.887  50.433  1.00  0.00     0.151 HD
ENDBRANCH  25  26
ENDBRANCH  20  22
ENDBRANCH   4  20
TORSDOF 9
ENDMDL
MODEL 3
REMARK VINA RESULT:      -7.4      1.505      1.809
REMARK  9 active torsions:
REMARK  status: ('A' for Active; 'I' for Inactive)
REMARK    1  A    between atoms: C2_2  and  N1_3 
REMARK    2  A    between atoms: N1_3  and  C4_5 
REMARK    3  A    between atoms: C4_5  and  C5_6 
REMARK    4  A    between atoms: C10_11  and  C11_12 
REMARK    5  A    between atoms: C11_12  and  O1_13 
REMARK    6  A    between atoms: O1_13  and  C12_14 
REMARK    7  A    between atoms: C15_17  and  C16_18 
REMARK    8  A    between atoms: C16_18  and  C17_20 
REMARK    9  A    between atoms: C19_23  and  N2_24 
ROOT
HETATM    1  C12 UNL     1      25.578   4.716  49.291  1.00  0.00     0.069 A 
HETATM    2  C13 UNL     1      26.882   4.212  49.170  1.00  0.00     0.037 A 
HETATM    3  C14 UNL     1      27.922   5.004  48.668  1.00  0.00     0.018 A 
HETATM    4  C15 UNL     1      27.682   6.305  48.281  1.00  0.00     0.010 A 
HETATM    5  C20 UNL     1      26.403   6.801  48.399  1.00  0.00     0.018 A 
HETATM    6  C21 UNL     1      25.388   6.018  48.892  1.00  0.00     0.037 A 
ENDROOT
BRANCH   1   7
HETATM    7  O1  UNL     1      24.782   3.729  49.806  1.00  0.00    -0.347 OA
BRANCH   7   8
HETATM    8  C11 UNL     1      24.966   2.901  50.894  1.00  0.00     0.215 C 
BRANCH   8   9
HETATM    9  C10 UNL     1      23.824   2.016  51.139  1.00  0.00    -0.026 A 
HETATM   10  C5  UNL     1      23.940   1.321  52.351  1.00  0.00    -0.022 A 
HETATM   11  C6  UNL     1      22.909   0.434  52.695  1.00  0.00     0.009 A 
HETATM   12  C7  UNL     1      21.792   0.199  51.924  1.00  0.00     0.001 A 
HETATM   13  C8  UNL     1      21.692   0.890  50.735  1.00  0.00     0.001 A 
HETATM   14  C9  UNL     1      22.701   1.761  50.393  1.00  0.00     0.010 A 
BRANCH  10  15
HETATM   15  C4  UNL     1      25.101   1.466  53.295  1.00  0.00     0.311 C 
BRANCH  15  16
HETATM   16  N1  UNL     1      25.750   0.219  53.569  1.00  0.00     0.087 N 
HETATM   17  C3  UNL     1      26.440   0.155  54.830  1.00  0.00     0.310 C 
BRANCH  16  18
HETATM   18  C2  UNL     1      26.626  -0.243  52.524  1.00  0.00     0.268 C 
HETATM   19  C1  UNL     1      26.834  -1.742  52.522  1.00  0.00     0.037 C 
ENDBRANCH  16  18
ENDBRANCH  15  16
ENDBRANCH  10  15
ENDBRANCH   8   9
ENDBRANCH   7   8
ENDBRANCH   1   7
BRANCH   4  20
HETATM   20  C16 UNL     1      28.741   7.158  47.759  1.00  0.00     0.167 C 
HETATM   21  O2  UNL     1      29.727   6.632  47.167  1.00  0.00    -0.292 OA
BRANCH  20  22
HETATM   22  C17 UNL     1      28.667   8.628  47.921  1.00  0.00     0.102 C 
HETATM   23  C18 UNL     1      29.941   9.316  47.527  1.00  0.00     0.091 C 
HETATM   24  S1  UNL     1      30.670   8.999  49.156  1.00  0.00    -0.143 SA
HETATM   25  C19 UNL     1      28.850   9.113  49.341  1.00  0.00     0.149 C 
BRANCH  25  26
HETATM   26  N2  UNL     1      28.339  10.441  49.508  1.00  0.00    -0.417 N 
HETATM   27  H23 UNL     1      28.822  11.021  50.220  1.00  0.00     0.151 HD
HETATM   28  H24 UNL     1      27.309  10.538  49.479  1.00  0.00     0.151 HD
ENDBRANCH  25  26
ENDBRANCH  20  22
ENDBRANCH   4  20
TORSDOF 9
ENDMDL
MODEL 4
REMARK VINA RESULT:      -7.2      6.318     10.142
REMARK  9 active torsions:
REMARK  status: ('A' for Active; 'I' for Inactive)
REMARK    1  A    between atoms: C2_2  and  N1_3 
REMARK    2  A    between atoms: N1_3  and  C4_5 
REMARK    3  A    between atoms: C4_5  and  C5_6 
REMARK    4  A    between atoms: C10_11  and  C11_12 
REMARK    5  A    between atoms: C11_12  and  O1_13 
REMARK    6  A    between atoms: O1_13  and  C12_14 
REMARK    7  A    between atoms: C15_17  and  C16_18 
REMARK    8  A    between atoms: C16_18  and  C17_20 
REMARK    9  A    between atoms: C19_23  and  N2_24 
ROOT
HETATM    1  C12 UNL     1      21.713  -0.746  54.405  1.00  0.00     0.069 A 
HETATM    2  C13 UNL     1      22.274  -0.121  53.282  1.00  0.00     0.037 A 
HETATM    3  C14 UNL     1      23.662  -0.035  53.117  1.00  0.00     0.018 A 
HETATM    4  C15 UNL     1      24.510  -0.568  54.064  1.00  0.00     0.010 A 
HETATM    5  C20 UNL     1      23.961  -1.182  55.168  1.00  0.00     0.018 A 
HETATM    6  C21 UNL     1      22.599  -1.262  55.322  1.00  0.00     0.037 A 
ENDROOT
BRANCH   1   7
HETATM    7  O1  UNL     1      20.351  -0.681  54.298  1.00  0.00    -0.347 OA
BRANCH   7   8
HETATM    8  C11 UNL     1      19.545  -0.440  53.204  1.00  0.00     0.215 C 
BRANCH   8   9
HETATM    9  C10 UNL     1      18.401  -1.352  53.122  1.00  0.00    -0.026 A 
HETATM   10  C5  UNL     1      17.359  -0.830  52.344  1.00  0.00    -0.022 A 
HETATM   11  C6  UNL     1      16.203  -1.610  52.196  1.00  0.00     0.009 A 
HETATM   12  C7  UNL     1      16.021  -2.852  52.763  1.00  0.00     0.001 A 
HETATM   13  C8  UNL     1      17.055  -3.352  53.526  1.00  0.00     0.001 A 
HETATM   14  C9  UNL     1      18.192  -2.591  53.674  1.00  0.00     0.010 A 
BRANCH  10  15
HETATM   15  C4  UNL     1      17.406   0.511  51.666  1.00  0.00     0.311 C 
BRANCH  15  16
HETATM   16  N1  UNL     1      16.194   0.822  50.971  1.00  0.00     0.087 N 
HETATM   17  C3  UNL     1      16.314   0.899  49.539  1.00  0.00     0.310 C 
BRANCH  16  18
HETATM   18  C2  UNL     1      15.510   1.994  51.452  1.00  0.00     0.268 C 
HETATM   19  C1  UNL     1      14.732   1.764  52.730  1.00  0.00     0.037 C 
ENDBRANCH  16  18
ENDBRANCH  15  16
ENDBRANCH  10  15
ENDBRANCH   8   9
ENDBRANCH   7   8
ENDBRANCH   1   7
BRANCH   4  20
HETATM   20  C16 UNL     1      25.958  -0.501  53.922  1.00  0.00     0.167 C 
HETATM   21  O2  UNL     1      26.572  -1.451  53.357  1.00  0.00    -0.292 OA
BRANCH  20  22
HETATM   22  C17 UNL     1      26.708   0.668  54.437  1.00  0.00     0.102 C 
HETATM   23  C18 UNL     1      26.166   1.971  53.926  1.00  0.00     0.091 C 
HETATM   24  S1  UNL     1      27.117   1.818  52.391  1.00  0.00    -0.143 SA
HETATM   25  C19 UNL     1      28.014   0.938  53.725  1.00  0.00     0.149 C 
BRANCH  25  26
HETATM   26  N2  UNL     1      28.879   1.760  54.518  1.00  0.00    -0.417 N 
HETATM   27  H23 UNL     1      28.729   1.712  55.544  1.00  0.00     0.151 HD
HETATM   28  H24 UNL     1      29.079   2.704  54.142  1.00  0.00     0.151 HD
ENDBRANCH  25  26
ENDBRANCH  20  22
ENDBRANCH   4  20
TORSDOF 9
ENDMDL
MODEL 5
REMARK VINA RESULT:      -7.1      1.707      3.556
REMARK  9 active torsions:
REMARK  status: ('A' for Active; 'I' for Inactive)
REMARK    1  A    between atoms: C2_2  and  N1_3 
REMARK    2  A    between atoms: N1_3  and  C4_5 
REMARK    3  A    between atoms: C4_5  and  C5_6 
REMARK    4  A    between atoms: C10_11  and  C11_12 
REMARK    5  A    between atoms: C11_12  and  O1_13 
REMARK    6  A    between atoms: O1_13  and  C12_14 
REMARK    7  A    between atoms: C15_17  and  C16_18 
REMARK    8  A    between atoms: C16_18  and  C17_20 
REMARK    9  A    between atoms: C19_23  and  N2_24 
ROOT
HETATM    1  C12 UNL     1      26.330   5.112  49.321  1.00  0.00     0.069 A 
HETATM    2  C13 UNL     1      25.947   6.451  49.156  1.00  0.00     0.037 A 
HETATM    3  C14 UNL     1      26.770   7.364  48.486  1.00  0.00     0.018 A 
HETATM    4  C15 UNL     1      27.983   6.960  47.973  1.00  0.00     0.010 A 
HETATM    5  C20 UNL     1      28.362   5.646  48.134  1.00  0.00     0.018 A 
HETATM    6  C21 UNL     1      27.549   4.757  48.792  1.00  0.00     0.037 A 
ENDROOT
BRANCH   1   7
HETATM    7  O1  UNL     1      25.339   4.462  50.004  1.00  0.00    -0.347 OA
BRANCH   7   8
HETATM    8  C11 UNL     1      24.825   3.190  49.851  1.00  0.00     0.215 C 
BRANCH   8   9
HETATM    9  C10 UNL     1      25.276   2.261  50.890  1.00  0.00    -0.026 A 
HETATM   10  C5  UNL     1      24.206   1.629  51.539  1.00  0.00    -0.022 A 
HETATM   11  C6  UNL     1      24.510   0.719  52.561  1.00  0.00     0.009 A 
HETATM   12  C7  UNL     1      25.786   0.403  52.971  1.00  0.00     0.001 A 
HETATM   13  C8  UNL     1      26.828   1.032  52.324  1.00  0.00     0.001 A 
HETATM   14  C9  UNL     1      26.535   1.926  51.320  1.00  0.00     0.010 A 
BRANCH  10  15
HETATM   15  C4  UNL     1      22.759   1.873  51.208  1.00  0.00     0.311 C 
BRANCH  15  16
HETATM   16  N1  UNL     1      22.058   2.545  52.260  1.00  0.00     0.087 N 
HETATM   17  C3  UNL     1      20.840   1.907  52.687  1.00  0.00     0.310 C 
BRANCH  16  18
HETATM   18  C2  UNL     1      21.801   3.940  52.014  1.00  0.00     0.268 C 
HETATM   19  C1  UNL     1      22.857   4.864  52.582  1.00  0.00     0.037 C 
ENDBRANCH  16  18
ENDBRANCH  15  16
ENDBRANCH  10  15
ENDBRANCH   8   9
ENDBRANCH   7   8
ENDBRANCH   1   7
BRANCH   4  20
HETATM   20  C16 UNL     1      28.863   7.882  47.267  1.00  0.00     0.167 C 
HETATM   21  O2  UNL     1      29.127   7.678  46.047  1.00  0.00    -0.292 OA
BRANCH  20  22
HETATM   22  C17 UNL     1      29.446   9.048  47.970  1.00  0.00     0.102 C 
HETATM   23  C18 UNL     1      30.750   9.488  47.372  1.00  0.00     0.091 C 
HETATM   24  S1  UNL     1      31.660   8.241  48.323  1.00  0.00    -0.143 SA
HETATM   25  C19 UNL     1      30.156   8.711  49.261  1.00  0.00     0.149 C 
BRANCH  25  26
HETATM   26  N2  UNL     1      30.299   9.868  50.094  1.00  0.00    -0.417 N 
HETATM   27  H23 UNL     1      30.677  10.714  49.628  1.00  0.00     0.151 HD
HETATM   28  H24 UNL     1      30.648   9.696  51.053  1.00  0.00     0.151 HD
ENDBRANCH  25  26
ENDBRANCH  20  22
ENDBRANCH   4  20
TORSDOF 9
ENDMDL
MODEL 6
REMARK VINA RESULT:      -7.1      5.840      9.839
REMARK  9 active torsions:
REMARK  status: ('A' for Active; 'I' for Inactive)
REMARK    1  A    between atoms: C2_2  and  N1_3 
REMARK    2  A    between atoms: N1_3  and  C4_5 
REMARK    3  A    between atoms: C4_5  and  C5_6 
REMARK    4  A    between atoms: C10_11  and  C11_12 
REMARK    5  A    between atoms: C11_12  and  O1_13 
REMARK    6  A    between atoms: O1_13  and  C12_14 
REMARK    7  A    between atoms: C15_17  and  C16_18 
REMARK    8  A    between atoms: C16_18  and  C17_20 
REMARK    9  A    between atoms: C19_23  and  N2_24 
ROOT
HETATM    1  C12 UNL     1      22.815  -0.204  53.803  1.00  0.00     0.069 A 
HETATM    2  C13 UNL     1      22.529   0.070  52.457  1.00  0.00     0.037 A 
HETATM    3  C14 UNL     1      21.217   0.030  51.971  1.00  0.00     0.018 A 
HETATM    4  C15 UNL     1      20.172  -0.283  52.814  1.00  0.00     0.010 A 
HETATM    5  C20 UNL     1      20.451  -0.553  54.135  1.00  0.00     0.018 A 
HETATM    6  C21 UNL     1      21.741  -0.511  54.603  1.00  0.00     0.037 A 
ENDROOT
BRANCH   1   7
HETATM    7  O1  UNL     1      24.166  -0.089  53.987  1.00  0.00    -0.347 OA
BRANCH   7   8
HETATM    8  C11 UNL     1      25.220  -0.452  53.173  1.00  0.00     0.215 C 
BRANCH   8   9
HETATM    9  C10 UNL     1      26.451   0.285  53.468  1.00  0.00    -0.026 A 
HETATM   10  C5  UNL     1      26.612   1.406  52.640  1.00  0.00    -0.022 A 
HETATM   11  C6  UNL     1      27.759   2.190  52.821  1.00  0.00     0.009 A 
HETATM   12  C7  UNL     1      28.739   1.937  53.756  1.00  0.00     0.001 A 
HETATM   13  C8  UNL     1      28.568   0.832  54.562  1.00  0.00     0.001 A 
HETATM   14  C9  UNL     1      27.443   0.058  54.388  1.00  0.00     0.010 A 
BRANCH  10  15
HETATM   15  C4  UNL     1      25.633   1.809  51.572  1.00  0.00     0.311 C 
BRANCH  15  16
HETATM   16  N1  UNL     1      25.117   3.130  51.766  1.00  0.00     0.087 N 
HETATM   17  C3  UNL     1      24.156   3.260  52.830  1.00  0.00     0.310 C 
BRANCH  16  18
HETATM   18  C2  UNL     1      24.593   3.750  50.576  1.00  0.00     0.268 C 
HETATM   19  C1  UNL     1      23.580   2.899  49.841  1.00  0.00     0.037 C 
ENDBRANCH  16  18
ENDBRANCH  15  16
ENDBRANCH  10  15
ENDBRANCH   8   9
ENDBRANCH   7   8
ENDBRANCH   1   7
BRANCH   4  20
HETATM   20  C16 UNL     1      18.794  -0.330  52.343  1.00  0.00     0.167 C 
HETATM   21  O2  UNL     1      17.900  -0.821  53.090  1.00  0.00    -0.292 OA
BRANCH  20  22
HETATM   22  C17 UNL     1      18.442   0.189  51.003  1.00  0.00     0.102 C 
HETATM   23  C18 UNL     1      18.140   1.659  51.015  1.00  0.00     0.091 C 
HETATM   24  S1  UNL     1      16.431   1.351  51.534  1.00  0.00    -0.143 SA
HETATM   25  C19 UNL     1      17.021  -0.095  50.573  1.00  0.00     0.149 C 
BRANCH  25  26
HETATM   26  N2  UNL     1      16.872   0.021  49.153  1.00  0.00    -0.417 N 
HETATM   27  H23 UNL     1      17.645  -0.378  48.586  1.00  0.00     0.151 HD
HETATM   28  H24 UNL     1      16.486   0.918  48.808  1.00  0.00     0.151 HD
ENDBRANCH  25  26
ENDBRANCH  20  22
ENDBRANCH   4  20
TORSDOF 9
ENDMDL
MODEL 7
REMARK VINA RESULT:      -7.0      2.207      3.209
REMARK  9 active torsions:
REMARK  status: ('A' for Active; 'I' for Inactive)
REMARK    1  A    between atoms: C2_2  and  N1_3 
REMARK    2  A    between atoms: N1_3  and  C4_5 
REMARK    3  A    between atoms: C4_5  and  C5_6 
REMARK    4  A    between atoms: C10_11  and  C11_12 
REMARK    5  A    between atoms: C11_12  and  O1_13 
REMARK    6  A    between atoms: O1_13  and  C12_14 
REMARK    7  A    between atoms: C15_17  and  C16_18 
REMARK    8  A    between atoms: C16_18  and  C17_20 
REMARK    9  A    between atoms: C19_23  and  N2_24 
ROOT
HETATM    1  C12 UNL     1      23.622   3.832  51.376  1.00  0.00     0.069 A 
HETATM    2  C13 UNL     1      24.581   3.422  50.437  1.00  0.00     0.037 A 
HETATM    3  C14 UNL     1      25.389   4.352  49.772  1.00  0.00     0.018 A 
HETATM    4  C15 UNL     1      25.255   5.700  50.030  1.00  0.00     0.010 A 
HETATM    5  C20 UNL     1      24.314   6.104  50.950  1.00  0.00     0.018 A 
HETATM    6  C21 UNL     1      23.526   5.185  51.598  1.00  0.00     0.037 A 
ENDROOT
BRANCH   1   7
HETATM    7  O1  UNL     1      22.991   2.718  51.859  1.00  0.00    -0.347 OA
BRANCH   7   8
HETATM    8  C11 UNL     1      23.270   1.378  51.683  1.00  0.00     0.215 C 
BRANCH   8   9
HETATM    9  C10 UNL     1      22.814   0.547  52.801  1.00  0.00    -0.026 A 
HETATM   10  C5  UNL     1      23.876  -0.095  53.453  1.00  0.00    -0.022 A 
HETATM   11  C6  UNL     1      23.566  -0.927  54.538  1.00  0.00     0.009 A 
HETATM   12  C7  UNL     1      22.292  -1.156  55.007  1.00  0.00     0.001 A 
HETATM   13  C8  UNL     1      21.258  -0.518  54.356  1.00  0.00     0.001 A 
HETATM   14  C9  UNL     1      21.557   0.299  53.290  1.00  0.00     0.010 A 
BRANCH  10  15
HETATM   15  C4  UNL     1      25.319   0.051  53.055  1.00  0.00     0.311 C 
BRANCH  15  16
HETATM   16  N1  UNL     1      26.067   0.852  53.976  1.00  0.00     0.087 N 
HETATM   17  C3  UNL     1      26.470   2.141  53.476  1.00  0.00     0.310 C 
BRANCH  16  18
HETATM   18  C2  UNL     1      27.208   0.192  54.556  1.00  0.00     0.268 C 
HETATM   19  C1  UNL     1      28.224  -0.278  53.537  1.00  0.00     0.037 C 
ENDBRANCH  16  18
ENDBRANCH  15  16
ENDBRANCH  10  15
ENDBRANCH   8   9
ENDBRANCH   7   8
ENDBRANCH   1   7
BRANCH   4  20
HETATM   20  C16 UNL     1      26.081   6.695  49.359  1.00  0.00     0.167 C 
HETATM   21  O2  UNL     1      26.501   6.467  48.188  1.00  0.00    -0.292 OA
BRANCH  20  22
HETATM   22  C17 UNL     1      26.429   7.962  50.041  1.00  0.00     0.102 C 
HETATM   23  C18 UNL     1      25.602   9.120  49.565  1.00  0.00     0.091 C 
HETATM   24  S1  UNL     1      26.699   9.380  48.146  1.00  0.00    -0.143 SA
HETATM   25  C19 UNL     1      27.673   8.639  49.511  1.00  0.00     0.149 C 
BRANCH  25  26
HETATM   26  N2  UNL     1      28.200   9.576  50.458  1.00  0.00    -0.417 N 
HETATM   27  H23 UNL     1      29.101   9.311  50.898  1.00  0.00     0.151 HD
HETATM   28  H24 UNL     1      27.511  10.020  51.088  1.00  0.00     0.151 HD
ENDBRANCH  25  26
ENDBRANCH  20  22
ENDBRANCH   4  20
TORSDOF 9
ENDMDL
MODEL 8
REMARK VINA RESULT:      -7.0      4.714      6.429
REMARK  9 active torsions:
REMARK  status: ('A' for Active; 'I' for Inactive)
REMARK    1  A    between atoms: C2_2  and  N1_3 
REMARK    2  A    between atoms: N1_3  and  C4_5 
REMARK    3  A    between atoms: C4_5  and  C5_6 
REMARK    4  A    between atoms: C10_11  and  C11_12 
REMARK    5  A    between atoms: C11_12  and  O1_13 
REMARK    6  A    between atoms: O1_13  and  C12_14 
REMARK    7  A    between atoms: C15_17  and  C16_18 
REMARK    8  A    between atoms: C16_18  and  C17_20 
REMARK    9  A    between atoms: C19_23  and  N2_24 
ROOT
HETATM    1  C12 UNL     1      26.481   2.906  51.051  1.00  0.00     0.069 A 
HETATM    2  C13 UNL     1      25.267   2.788  51.745  1.00  0.00     0.037 A 
HETATM    3  C14 UNL     1      24.052   3.144  51.148  1.00  0.00     0.018 A 
HETATM    4  C15 UNL     1      24.026   3.623  49.856  1.00  0.00     0.010 A 
HETATM    5  C20 UNL     1      25.216   3.740  49.173  1.00  0.00     0.018 A 
HETATM    6  C21 UNL     1      26.403   3.388  49.766  1.00  0.00     0.037 A 
ENDROOT
BRANCH   1   7
HETATM    7  O1  UNL     1      27.489   2.489  51.875  1.00  0.00    -0.347 OA
BRANCH   7   8
HETATM    8  C11 UNL     1      27.449   1.938  53.140  1.00  0.00     0.215 C 
BRANCH   8   9
HETATM    9  C10 UNL     1      28.176   0.670  53.237  1.00  0.00    -0.026 A 
HETATM   10  C5  UNL     1      27.378  -0.429  52.889  1.00  0.00    -0.022 A 
HETATM   11  C6  UNL     1      27.961  -1.703  52.949  1.00  0.00     0.009 A 
HETATM   12  C7  UNL     1      29.263  -1.948  53.325  1.00  0.00     0.001 A 
HETATM   13  C8  UNL     1      30.036  -0.858  53.664  1.00  0.00     0.001 A 
HETATM   14  C9  UNL     1      29.468   0.394  53.607  1.00  0.00     0.010 A 
BRANCH  10  15
HETATM   15  C4  UNL     1      25.940  -0.322  52.464  1.00  0.00     0.311 C 
BRANCH  15  16
HETATM   16  N1  UNL     1      25.033  -0.831  53.449  1.00  0.00     0.087 N 
HETATM   17  C3  UNL     1      23.656  -0.456  53.262  1.00  0.00     0.310 C 
BRANCH  16  18
HETATM   18  C2  UNL     1      25.417  -0.566  54.811  1.00  0.00     0.268 C 
HETATM   19  C1  UNL     1      24.531  -1.241  55.836  1.00  0.00     0.037 C 
ENDBRANCH  16  18
ENDBRANCH  15  16
ENDBRANCH  10  15
ENDBRANCH   8   9
ENDBRANCH   7   8
ENDBRANCH   1   7
BRANCH   4  20
HETATM   20  C16 UNL     1      22.780   3.999  49.202  1.00  0.00     0.167 C 
HETATM   21  O2  UNL     1      22.493   5.224  49.070  1.00  0.00    -0.292 OA
BRANCH  20  22
HETATM   22  C17 UNL     1      21.855   2.959  48.697  1.00  0.00     0.102 C 
HETATM   23  C18 UNL     1      22.415   2.209  47.524  1.00  0.00     0.091 C 
HETATM   24  S1  UNL     1      21.865   3.500  46.377  1.00  0.00    -0.143 SA
HETATM   25  C19 UNL     1      20.738   3.483  47.823  1.00  0.00     0.149 C 
BRANCH  25  26
HETATM   26  N2  UNL     1      19.658   2.545  47.738  1.00  0.00    -0.417 N 
HETATM   27  H23 UNL     1      18.829   2.861  47.200  1.00  0.00     0.151 HD
HETATM   28  H24 UNL     1      19.451   2.013  48.601  1.00  0.00     0.151 HD
ENDBRANCH  25  26
ENDBRANCH  20  22
ENDBRANCH   4  20
TORSDOF 9
ENDMDL
MODEL 9
REMARK VINA RESULT:      -7.0      6.432      9.506
REMARK  9 active torsions:
REMARK  status: ('A' for Active; 'I' for Inactive)
REMARK    1  A    between atoms: C2_2  and  N1_3 
REMARK    2  A    between atoms: N1_3  and  C4_5 
REMARK    3  A    between atoms: C4_5  and  C5_6 
REMARK    4  A    between atoms: C10_11  and  C11_12 
REMARK    5  A    between atoms: C11_12  and  O1_13 
REMARK    6  A    between atoms: O1_13  and  C12_14 
REMARK    7  A    between atoms: C15_17  and  C16_18 
REMARK    8  A    between atoms: C16_18  and  C17_20 
REMARK    9  A    between atoms: C19_23  and  N2_24 
ROOT
HETATM    1  C12 UNL     1      22.458   0.328  52.531  1.00  0.00     0.069 A 
HETATM    2  C13 UNL     1      23.069  -0.657  53.320  1.00  0.00     0.037 A 
HETATM    3  C14 UNL     1      24.351  -0.470  53.852  1.00  0.00     0.018 A 
HETATM    4  C15 UNL     1      25.042   0.697  53.606  1.00  0.00     0.010 A 
HETATM    5  C20 UNL     1      24.444   1.665  52.830  1.00  0.00     0.018 A 
HETATM    6  C21 UNL     1      23.187   1.473  52.313  1.00  0.00     0.037 A 
ENDROOT
BRANCH   1   7
HETATM    7  O1  UNL     1      21.223  -0.127  52.156  1.00  0.00    -0.347 OA
BRANCH   7   8
HETATM    8  C11 UNL     1      20.091   0.561  51.768  1.00  0.00     0.215 C 
BRANCH   8   9
HETATM    9  C10 UNL     1      18.853  -0.171  52.048  1.00  0.00    -0.026 A 
HETATM   10  C5  UNL     1      17.863   0.069  51.084  1.00  0.00    -0.022 A 
HETATM   11  C6  UNL     1      16.626  -0.570  51.247  1.00  0.00     0.009 A 
HETATM   12  C7  UNL     1      16.317  -1.418  52.288  1.00  0.00     0.001 A 
HETATM   13  C8  UNL     1      17.299  -1.644  53.229  1.00  0.00     0.001 A 
HETATM   14  C9  UNL     1      18.515  -1.018  53.073  1.00  0.00     0.010 A 
BRANCH  10  15
HETATM   15  C4  UNL     1      18.049   0.971  49.896  1.00  0.00     0.311 C 
BRANCH  15  16
HETATM   16  N1  UNL     1      17.164   2.097  49.913  1.00  0.00     0.087 N 
HETATM   17  C3  UNL     1      16.860   2.654  48.621  1.00  0.00     0.310 C 
BRANCH  16  18
HETATM   18  C2  UNL     1      17.559   3.156  50.805  1.00  0.00     0.268 C 
HETATM   19  C1  UNL     1      16.510   3.503  51.840  1.00  0.00     0.037 C 
ENDBRANCH  16  18
ENDBRANCH  15  16
ENDBRANCH  10  15
ENDBRANCH   8   9
ENDBRANCH   7   8
ENDBRANCH   1   7
BRANCH   4  20
HETATM   20  C16 UNL     1      26.375   0.928  54.147  1.00  0.00     0.167 C 
HETATM   21  O2  UNL     1      26.747   2.110  54.398  1.00  0.00    -0.292 OA
BRANCH  20  22
HETATM   22  C17 UNL     1      27.289  -0.209  54.398  1.00  0.00     0.102 C 
HETATM   23  C18 UNL     1      28.590   0.221  55.008  1.00  0.00     0.091 C 
HETATM   24  S1  UNL     1      29.271   0.633  53.380  1.00  0.00    -0.143 SA
HETATM   25  C19 UNL     1      28.030  -0.701  53.175  1.00  0.00     0.149 C 
BRANCH  25  26
HETATM   26  N2  UNL     1      28.530  -2.029  53.368  1.00  0.00    -0.417 N 
HETATM   27  H23 UNL     1      28.187  -2.741  52.695  1.00  0.00     0.151 HD
HETATM   28  H24 UNL     1      28.608  -2.347  54.350  1.00  0.00     0.151 HD
ENDBRANCH  25  26
ENDBRANCH  20  22
ENDBRANCH   4  20
TORSDOF 9
ENDMDL
