MODEL 1
REMARK VINA RESULT:      -7.7      0.000      0.000
REMARK  3 active torsions:
REMARK  status: ('A' for Active; 'I' for Inactive)
REMARK    1  A    between atoms: C3_3  and  C4_4 
REMARK    2  A    between atoms: C11_14  and  O1_15 
REMARK    3  A    between atoms: O1_15  and  C12_16 
ROOT
HETATM    1  C1  UNL     1      26.789   4.261  49.197  1.00  0.00     0.112 C 
HETATM    2  C2  UNL     1      25.372   4.460  49.495  1.00  0.00    -0.105 C 
HETATM    3  C3  UNL     1      24.165   4.615  49.728  1.00  0.00    -0.061 C 
ENDROOT
BRANCH   3   4
HETATM    4  C4  UNL     1      22.690   4.798  50.042  1.00  0.00     0.089 A 
HETATM    5  C5  UNL     1      22.723   4.838  51.377  1.00  0.00     0.081 A 
HETATM    6  N1  UNL     1      21.500   5.385  51.490  1.00  0.00    -0.243 NA
HETATM    7  C19 UNL     1      23.648   4.350  52.369  1.00  0.00     0.167 A 
HETATM    8  C6  UNL     1      20.687   5.698  50.435  1.00  0.00     0.235 A 
HETATM    9  N2  UNL     1      21.035   5.490  49.162  1.00  0.00    -0.223 NA
HETATM   10  C7  UNL     1      22.200   4.958  48.779  1.00  0.00     0.146 A 
HETATM   11  N3  UNL     1      22.697   4.568  47.547  1.00  0.00    -0.370 N 
HETATM   12  C8  UNL     1      22.198   3.144  47.569  1.00  0.00     0.148 C 
HETATM   13  H5  UNL     1      23.096   5.513  47.396  1.00  0.00     0.161 HD
HETATM   14  C9  UNL     1      22.544   2.493  48.849  1.00  0.00    -0.008 C 
HETATM   15  C10 UNL     1      22.911   1.846  49.938  1.00  0.00     0.008 C 
HETATM   16  C11 UNL     1      22.695   1.917  51.434  1.00  0.00     0.186 C 
HETATM   17  C18 UNL     1      23.307   3.121  52.044  1.00  0.00     0.031 A 
HETATM   18 CL1  UNL     1      24.498   2.844  53.342  1.00  0.00    -0.171 Cl
BRANCH  16  19
HETATM   19  O1  UNL     1      21.332   1.804  51.647  1.00  0.00    -0.367 OA
BRANCH  19  20
HETATM   20  C12 UNL     1      20.868   0.484  51.493  1.00  0.00     0.152 A 
HETATM   21  C13 UNL     1      21.228  -0.204  52.762  1.00  0.00     0.047 A 
HETATM   22  C14 UNL     1      20.482  -0.814  53.691  1.00  0.00     0.114 A 
HETATM   23  F1  UNL     1      21.060  -1.384  54.805  1.00  0.00    -0.206 F 
HETATM   24  C15 UNL     1      19.059  -0.833  53.386  1.00  0.00     0.038 A 
HETATM   25  C16 UNL     1      18.625  -0.277  52.288  1.00  0.00    -0.021 A 
HETATM   26  C17 UNL     1      19.389   0.415  51.211  1.00  0.00     0.063 A 
ENDBRANCH  19  20
ENDBRANCH  16  19
ENDBRANCH   3   4
TORSDOF 3
ENDMDL
MODEL 2
REMARK VINA RESULT:      -7.4      3.017      4.514
REMARK  3 active torsions:
REMARK  status: ('A' for Active; 'I' for Inactive)
REMARK    1  A    between atoms: C3_3  and  C4_4 
REMARK    2  A    between atoms: C11_14  and  O1_15 
REMARK    3  A    between atoms: O1_15  and  C12_16 
ROOT
HETATM    1  C1  UNL     1      22.525   2.053  47.179  1.00  0.00     0.112 C 
HETATM    2  C2  UNL     1      22.626   2.685  48.494  1.00  0.00    -0.105 C 
HETATM    3  C3  UNL     1      22.723   3.238  49.598  1.00  0.00    -0.061 C 
ENDROOT
BRANCH   3   4
HETATM    4  C4  UNL     1      22.815   3.912  50.957  1.00  0.00     0.089 A 
HETATM    5  C5  UNL     1      23.956   4.592  50.820  1.00  0.00     0.081 A 
HETATM    6  N1  UNL     1      23.710   5.408  51.860  1.00  0.00    -0.243 NA
HETATM    7  C19 UNL     1      25.115   4.442  49.976  1.00  0.00     0.167 A 
HETATM    8  C6  UNL     1      22.589   5.354  52.644  1.00  0.00     0.235 A 
HETATM    9  N2  UNL     1      21.608   4.469  52.449  1.00  0.00    -0.223 NA
HETATM   10  C7  UNL     1      21.609   3.547  51.481  1.00  0.00     0.146 A 
HETATM   11  N3  UNL     1      20.762   2.493  51.183  1.00  0.00    -0.370 N 
HETATM   12  C8  UNL     1      21.451   1.439  52.015  1.00  0.00     0.148 C 
HETATM   13  H5  UNL     1      20.190   3.109  50.576  1.00  0.00     0.161 HD
HETATM   14  C9  UNL     1      22.904   1.438  51.749  1.00  0.00    -0.008 C 
HETATM   15  C10 UNL     1      24.191   1.341  51.477  1.00  0.00     0.008 C 
HETATM   16  C11 UNL     1      25.441   2.188  51.562  1.00  0.00     0.186 C 
HETATM   17  C18 UNL     1      25.416   3.341  50.631  1.00  0.00     0.031 A 
HETATM   18 CL1  UNL     1      26.753   3.451  49.456  1.00  0.00    -0.171 Cl
BRANCH  16  19
HETATM   19  O1  UNL     1      25.598   2.538  52.892  1.00  0.00    -0.367 OA
BRANCH  19  20
HETATM   20  C12 UNL     1      26.542   1.730  53.555  1.00  0.00     0.152 A 
HETATM   21  C13 UNL     1      25.736   0.740  54.319  1.00  0.00     0.047 A 
HETATM   22  C14 UNL     1      25.691  -0.597  54.277  1.00  0.00     0.114 A 
HETATM   23  F1  UNL     1      24.841  -1.304  55.100  1.00  0.00    -0.206 F 
HETATM   24  C15 UNL     1      26.625  -1.190  53.332  1.00  0.00     0.038 A 
HETATM   25  C16 UNL     1      27.399  -0.421  52.618  1.00  0.00    -0.021 A 
HETATM   26  C17 UNL     1      27.509   1.066  52.609  1.00  0.00     0.063 A 
ENDBRANCH  19  20
ENDBRANCH  16  19
ENDBRANCH   3   4
TORSDOF 3
ENDMDL
MODEL 3
REMARK VINA RESULT:      -7.3      2.679      4.045
REMARK  3 active torsions:
REMARK  status: ('A' for Active; 'I' for Inactive)
REMARK    1  A    between atoms: C3_3  and  C4_4 
REMARK    2  A    between atoms: C11_14  and  O1_15 
REMARK    3  A    between atoms: O1_15  and  C12_16 
ROOT
HETATM    1  C1  UNL     1      21.123   7.008  49.062  1.00  0.00     0.112 C 
HETATM    2  C2  UNL     1      21.086   5.596  49.439  1.00  0.00    -0.105 C 
HETATM    3  C3  UNL     1      21.050   4.393  49.736  1.00  0.00    -0.061 C 
ENDROOT
BRANCH   3   4
HETATM    4  C4  UNL     1      21.031   2.922  50.113  1.00  0.00     0.089 A 
HETATM    5  C5  UNL     1      21.236   3.001  51.430  1.00  0.00     0.081 A 
HETATM    6  N1  UNL     1      20.806   1.750  51.672  1.00  0.00    -0.243 NA
HETATM    7  C19 UNL     1      21.835   3.989  52.291  1.00  0.00     0.167 A 
HETATM    8  C6  UNL     1      20.360   0.881  50.714  1.00  0.00     0.235 A 
HETATM    9  N2  UNL     1      20.303   1.195  49.417  1.00  0.00    -0.223 NA
HETATM   10  C7  UNL     1      20.674   2.378  48.914  1.00  0.00     0.146 A 
HETATM   11  N3  UNL     1      20.793   2.854  47.619  1.00  0.00    -0.370 N 
HETATM   12  C8  UNL     1      22.227   2.447  47.385  1.00  0.00     0.148 C 
HETATM   13  H5  UNL     1      19.811   3.186  47.639  1.00  0.00     0.161 HD
HETATM   14  C9  UNL     1      23.078   2.880  48.512  1.00  0.00    -0.008 C 
HETATM   15  C10 UNL     1      23.890   3.326  49.452  1.00  0.00     0.008 C 
HETATM   16  C11 UNL     1      24.112   3.160  50.940  1.00  0.00     0.186 C 
HETATM   17  C18 UNL     1      23.002   3.716  51.750  1.00  0.00     0.031 A 
HETATM   18 CL1  UNL     1      23.433   4.968  52.945  1.00  0.00    -0.171 Cl
BRANCH  16  19
HETATM   19  O1  UNL     1      24.356   1.816  51.160  1.00  0.00    -0.367 OA
BRANCH  19  20
HETATM   20  C12 UNL     1      25.279   1.598  52.201  1.00  0.00     0.152 A 
HETATM   21  C13 UNL     1      24.564   0.735  53.178  1.00  0.00     0.047 A 
HETATM   22  C14 UNL     1      24.831  -0.488  53.654  1.00  0.00     0.114 A 
HETATM   23  F1  UNL     1      23.996  -1.091  54.570  1.00  0.00    -0.206 F 
HETATM   24  C15 UNL     1      26.065  -1.064  53.142  1.00  0.00     0.038 A 
HETATM   25  C16 UNL     1      26.790  -0.390  52.292  1.00  0.00    -0.021 A 
HETATM   26  C17 UNL     1      26.562   0.967  51.720  1.00  0.00     0.063 A 
ENDBRANCH  19  20
ENDBRANCH  16  19
ENDBRANCH   3   4
TORSDOF 3
ENDMDL
MODEL 4
REMARK VINA RESULT:      -7.2      3.003      4.537
REMARK  3 active torsions:
REMARK  status: ('A' for Active; 'I' for Inactive)
REMARK    1  A    between atoms: C3_3  and  C4_4 
REMARK    2  A    between atoms: C11_14  and  O1_15 
REMARK    3  A    between atoms: O1_15  and  C12_16 
ROOT
HETATM    1  C1  UNL     1      20.711   6.070  47.774  1.00  0.00     0.112 C 
HETATM    2  C2  UNL     1      21.962   5.549  48.320  1.00  0.00    -0.105 C 
HETATM    3  C3  UNL     1      23.035   5.127  48.776  1.00  0.00    -0.061 C 
ENDROOT
BRANCH   3   4
HETATM    4  C4  UNL     1      24.336   4.603  49.359  1.00  0.00     0.089 A 
HETATM    5  C5  UNL     1      24.224   3.301  49.086  1.00  0.00     0.081 A 
HETATM    6  N1  UNL     1      25.532   3.049  49.267  1.00  0.00    -0.243 NA
HETATM    7  C19 UNL     1      23.108   2.425  48.831  1.00  0.00     0.167 A 
HETATM    8  C6  UNL     1      26.464   3.987  49.617  1.00  0.00     0.235 A 
HETATM    9  N2  UNL     1      26.162   5.273  49.816  1.00  0.00    -0.223 NA
HETATM   10  C7  UNL     1      24.932   5.783  49.699  1.00  0.00     0.146 A 
HETATM   11  N3  UNL     1      24.402   7.034  49.962  1.00  0.00    -0.370 N 
HETATM   12  C8  UNL     1      24.030   6.797  51.406  1.00  0.00     0.148 C 
HETATM   13  H5  UNL     1      24.603   7.336  48.991  1.00  0.00     0.161 HD
HETATM   14  C9  UNL     1      23.282   5.532  51.546  1.00  0.00    -0.008 C 
HETATM   15  C10 UNL     1      22.534   4.457  51.706  1.00  0.00     0.008 C 
HETATM   16  C11 UNL     1      22.633   2.959  51.513  1.00  0.00     0.186 C 
HETATM   17  C18 UNL     1      22.740   2.572  50.085  1.00  0.00     0.031 A 
HETATM   18 CL1  UNL     1      21.495   1.458  49.463  1.00  0.00    -0.171 Cl
BRANCH  16  19
HETATM   19  O1  UNL     1      23.686   2.524  52.298  1.00  0.00    -0.367 OA
BRANCH  19  20
HETATM   20  C12 UNL     1      23.985   1.163  52.095  1.00  0.00     0.152 A 
HETATM   21  C13 UNL     1      25.469   1.081  52.149  1.00  0.00     0.047 A 
HETATM   22  C14 UNL     1      26.298   0.401  52.952  1.00  0.00     0.114 A 
HETATM   23  F1  UNL     1      27.665   0.494  52.803  1.00  0.00    -0.206 F 
HETATM   24  C15 UNL     1      25.618  -0.432  53.932  1.00  0.00     0.038 A 
HETATM   25  C16 UNL     1      24.314  -0.457  53.968  1.00  0.00    -0.021 A 
HETATM   26  C17 UNL     1      23.330   0.264  53.112  1.00  0.00     0.063 A 
ENDBRANCH  19  20
ENDBRANCH  16  19
ENDBRANCH   3   4
TORSDOF 3
ENDMDL
MODEL 5
REMARK VINA RESULT:      -7.1      2.693      4.740
REMARK  3 active torsions:
REMARK  status: ('A' for Active; 'I' for Inactive)
REMARK    1  A    between atoms: C3_3  and  C4_4 
REMARK    2  A    between atoms: C11_14  and  O1_15 
REMARK    3  A    between atoms: O1_15  and  C12_16 
ROOT
HETATM    1  C1  UNL     1      17.708   3.732  51.587  1.00  0.00     0.112 C 
HETATM    2  C2  UNL     1      18.882   3.405  50.780  1.00  0.00    -0.105 C 
HETATM    3  C3  UNL     1      19.864   3.114  50.082  1.00  0.00    -0.061 C 
ENDROOT
BRANCH   3   4
HETATM    4  C4  UNL     1      21.075   2.786  49.224  1.00  0.00     0.089 A 
HETATM    5  C5  UNL     1      21.146   1.463  49.391  1.00  0.00     0.081 A 
HETATM    6  N1  UNL     1      21.940   1.272  48.324  1.00  0.00    -0.243 NA
HETATM    7  C19 UNL     1      20.679   0.557  50.410  1.00  0.00     0.167 A 
HETATM    8  C6  UNL     1      22.392   2.267  47.501  1.00  0.00     0.235 A 
HETATM    9  N2  UNL     1      22.081   3.554  47.678  1.00  0.00    -0.223 NA
HETATM   10  C7  UNL     1      21.305   4.010  48.667  1.00  0.00     0.146 A 
HETATM   11  N3  UNL     1      20.959   5.285  49.080  1.00  0.00    -0.370 N 
HETATM   12  C8  UNL     1      22.099   5.502  50.045  1.00  0.00     0.148 C 
HETATM   13  H5  UNL     1      20.132   5.276  48.455  1.00  0.00     0.161 HD
HETATM   14  C9  UNL     1      22.238   4.343  50.951  1.00  0.00    -0.008 C 
HETATM   15  C10 UNL     1      22.341   3.373  51.838  1.00  0.00     0.008 C 
HETATM   16  C11 UNL     1      22.626   1.887  51.874  1.00  0.00     0.186 C 
HETATM   17  C18 UNL     1      21.554   1.082  51.241  1.00  0.00     0.031 A 
HETATM   18 CL1  UNL     1      20.780  -0.162  52.257  1.00  0.00    -0.171 Cl
BRANCH  16  19
HETATM   19  O1  UNL     1      23.877   1.706  51.312  1.00  0.00    -0.367 OA
BRANCH  19  20
HETATM   20  C12 UNL     1      24.902   1.663  52.277  1.00  0.00     0.152 A 
HETATM   21  C13 UNL     1      24.432   0.689  53.298  1.00  0.00     0.047 A 
HETATM   22  C14 UNL     1      24.953  -0.463  53.741  1.00  0.00     0.114 A 
HETATM   23  F1  UNL     1      24.314  -1.203  54.712  1.00  0.00    -0.206 F 
HETATM   24  C15 UNL     1      26.227  -0.808  53.130  1.00  0.00     0.038 A 
HETATM   25  C16 UNL     1      26.750  -0.018  52.232  1.00  0.00    -0.021 A 
HETATM   26  C17 UNL     1      26.236   1.273  51.693  1.00  0.00     0.063 A 
ENDBRANCH  19  20
ENDBRANCH  16  19
ENDBRANCH   3   4
TORSDOF 3
ENDMDL
MODEL 6
REMARK VINA RESULT:      -7.1      3.188      6.159
REMARK  3 active torsions:
REMARK  status: ('A' for Active; 'I' for Inactive)
REMARK    1  A    between atoms: C3_3  and  C4_4 
REMARK    2  A    between atoms: C11_14  and  O1_15 
REMARK    3  A    between atoms: O1_15  and  C12_16 
ROOT
HETATM    1  C1  UNL     1      20.934  -0.415  54.447  1.00  0.00     0.112 C 
HETATM    2  C2  UNL     1      21.094   0.223  53.142  1.00  0.00    -0.105 C 
HETATM    3  C3  UNL     1      21.221   0.745  52.024  1.00  0.00    -0.061 C 
ENDROOT
BRANCH   3   4
HETATM    4  C4  UNL     1      21.364   1.407  50.664  1.00  0.00     0.089 A 
HETATM    5  C5  UNL     1      22.681   1.623  50.630  1.00  0.00     0.081 A 
HETATM    6  N1  UNL     1      22.715   1.812  49.300  1.00  0.00    -0.243 NA
HETATM    7  C19 UNL     1      23.699   1.756  51.642  1.00  0.00     0.167 A 
HETATM    8  C6  UNL     1      21.624   1.755  48.477  1.00  0.00     0.235 A 
HETATM    9  N2  UNL     1      20.390   1.497  48.921  1.00  0.00    -0.223 NA
HETATM   10  C7  UNL     1      20.086   1.271  50.204  1.00  0.00     0.146 A 
HETATM   11  N3  UNL     1      18.886   1.098  50.870  1.00  0.00    -0.370 N 
HETATM   12  C8  UNL     1      18.622   2.548  51.194  1.00  0.00     0.148 C 
HETATM   13  H5  UNL     1      18.935   0.074  50.717  1.00  0.00     0.161 HD
HETATM   14  C9  UNL     1      19.822   3.171  51.791  1.00  0.00    -0.008 C 
HETATM   15  C10 UNL     1      20.837   3.743  52.409  1.00  0.00     0.008 C 
HETATM   16  C11 UNL     1      22.285   4.092  52.141  1.00  0.00     0.186 C 
HETATM   17  C18 UNL     1      23.148   2.893  52.009  1.00  0.00     0.031 A 
HETATM   18 CL1  UNL     1      24.532   2.776  53.126  1.00  0.00    -0.171 Cl
BRANCH  16  19
HETATM   19  O1  UNL     1      22.298   4.924  51.036  1.00  0.00    -0.367 OA
BRANCH  19  20
HETATM   20  C12 UNL     1      22.450   6.280  51.382  1.00  0.00     0.152 A 
HETATM   21  C13 UNL     1      23.912   6.539  51.302  1.00  0.00     0.047 A 
HETATM   22  C14 UNL     1      24.630   7.392  50.561  1.00  0.00     0.114 A 
HETATM   23  F1  UNL     1      26.003   7.443  50.667  1.00  0.00    -0.206 F 
HETATM   24  C15 UNL     1      23.826   8.242  49.696  1.00  0.00     0.038 A 
HETATM   25  C16 UNL     1      22.528   8.120  49.694  1.00  0.00    -0.021 A 
HETATM   26  C17 UNL     1      21.661   7.202  50.487  1.00  0.00     0.063 A 
ENDBRANCH  19  20
ENDBRANCH  16  19
ENDBRANCH   3   4
TORSDOF 3
ENDMDL
MODEL 7
REMARK VINA RESULT:      -7.1      2.338      3.562
REMARK  3 active torsions:
REMARK  status: ('A' for Active; 'I' for Inactive)
REMARK    1  A    between atoms: C3_3  and  C4_4 
REMARK    2  A    between atoms: C11_14  and  O1_15 
REMARK    3  A    between atoms: O1_15  and  C12_16 
ROOT
HETATM    1  C1  UNL     1      23.765   5.759  48.185  1.00  0.00     0.112 C 
HETATM    2  C2  UNL     1      23.681   4.760  49.249  1.00  0.00    -0.105 C 
HETATM    3  C3  UNL     1      23.592   3.926  50.161  1.00  0.00    -0.061 C 
ENDROOT
BRANCH   3   4
HETATM    4  C4  UNL     1      23.482   2.882  51.260  1.00  0.00     0.089 A 
HETATM    5  C5  UNL     1      23.036   1.834  50.563  1.00  0.00     0.081 A 
HETATM    6  N1  UNL     1      23.363   0.938  51.510  1.00  0.00    -0.243 NA
HETATM    7  C19 UNL     1      22.325   1.691  49.317  1.00  0.00     0.167 A 
HETATM    8  C6  UNL     1      23.948   1.250  52.707  1.00  0.00     0.235 A 
HETATM    9  N2  UNL     1      24.259   2.500  53.061  1.00  0.00    -0.223 NA
HETATM   10  C7  UNL     1      24.037   3.574  52.296  1.00  0.00     0.146 A 
HETATM   11  N3  UNL     1      24.182   4.933  52.517  1.00  0.00    -0.370 N 
HETATM   12  C8  UNL     1      22.802   5.197  53.070  1.00  0.00     0.148 C 
HETATM   13  H5  UNL     1      25.155   4.899  52.160  1.00  0.00     0.161 HD
HETATM   14  C9  UNL     1      21.772   4.602  52.194  1.00  0.00    -0.008 C 
HETATM   15  C10 UNL     1      20.816   4.167  51.396  1.00  0.00     0.008 C 
HETATM   16  C11 UNL     1      20.312   2.857  50.830  1.00  0.00     0.186 C 
HETATM   17  C18 UNL     1      21.270   2.233  49.886  1.00  0.00     0.031 A 
HETATM   18 CL1  UNL     1      20.672   1.904  48.239  1.00  0.00    -0.171 Cl
BRANCH  16  19
HETATM   19  O1  UNL     1      19.978   2.058  51.909  1.00  0.00    -0.367 OA
BRANCH  19  20
HETATM   20  C12 UNL     1      19.778   0.712  51.544  1.00  0.00     0.152 A 
HETATM   21  C13 UNL     1      20.303  -0.082  52.687  1.00  0.00     0.047 A 
HETATM   22  C14 UNL     1      19.718  -0.966  53.504  1.00  0.00     0.114 A 
HETATM   23  F1  UNL     1      20.430  -1.580  54.512  1.00  0.00    -0.206 F 
HETATM   24  C15 UNL     1      18.318  -1.218  53.196  1.00  0.00     0.038 A 
HETATM   25  C16 UNL     1      17.752  -0.593  52.201  1.00  0.00    -0.021 A 
HETATM   26  C17 UNL     1      18.333   0.397  51.251  1.00  0.00     0.063 A 
ENDBRANCH  19  20
ENDBRANCH  16  19
ENDBRANCH   3   4
TORSDOF 3
ENDMDL
MODEL 8
REMARK VINA RESULT:      -6.9      3.599      6.529
REMARK  3 active torsions:
REMARK  status: ('A' for Active; 'I' for Inactive)
REMARK    1  A    between atoms: C3_3  and  C4_4 
REMARK    2  A    between atoms: C11_14  and  O1_15 
REMARK    3  A    between atoms: O1_15  and  C12_16 
ROOT
HETATM    1  C1  UNL     1      18.080   3.820  51.334  1.00  0.00     0.112 C 
HETATM    2  C2  UNL     1      19.478   3.398  51.388  1.00  0.00    -0.105 C 
HETATM    3  C3  UNL     1      20.671   3.061  51.428  1.00  0.00    -0.061 C 
ENDROOT
BRANCH   3   4
HETATM    4  C4  UNL     1      22.127   2.637  51.503  1.00  0.00     0.089 A 
HETATM    5  C5  UNL     1      22.679   3.733  52.028  1.00  0.00     0.081 A 
HETATM    6  N1  UNL     1      23.809   3.107  52.400  1.00  0.00    -0.243 NA
HETATM    7  C19 UNL     1      22.298   5.123  52.069  1.00  0.00     0.167 A 
HETATM    8  C6  UNL     1      24.069   1.780  52.191  1.00  0.00     0.235 A 
HETATM    9  N2  UNL     1      23.207   0.957  51.587  1.00  0.00    -0.223 NA
HETATM   10  C7  UNL     1      22.010   1.332  51.122  1.00  0.00     0.146 A 
HETATM   11  N3  UNL     1      21.038   0.675  50.387  1.00  0.00    -0.370 N 
HETATM   12  C8  UNL     1      21.545   1.037  49.012  1.00  0.00     0.148 C 
HETATM   13  H5  UNL     1      20.581   0.350  51.259  1.00  0.00     0.161 HD
HETATM   14  C9  UNL     1      21.815   2.487  48.926  1.00  0.00    -0.008 C 
HETATM   15  C10 UNL     1      21.984   3.787  48.776  1.00  0.00     0.008 C 
HETATM   16  C11 UNL     1      22.829   4.901  49.354  1.00  0.00     0.186 C 
HETATM   17  C18 UNL     1      22.504   5.191  50.771  1.00  0.00     0.031 A 
HETATM   18 CL1  UNL     1      22.011   6.861  51.154  1.00  0.00    -0.171 Cl
BRANCH  16  19
HETATM   19  O1  UNL     1      24.150   4.555  49.135  1.00  0.00    -0.367 OA
BRANCH  19  20
HETATM   20  C12 UNL     1      25.050   5.532  49.603  1.00  0.00     0.152 A 
HETATM   21  C13 UNL     1      26.402   4.978  49.325  1.00  0.00     0.047 A 
HETATM   22  C14 UNL     1      27.419   5.433  48.581  1.00  0.00     0.114 A 
HETATM   23  F1  UNL     1      28.595   4.722  48.476  1.00  0.00    -0.206 F 
HETATM   24  C15 UNL     1      27.161   6.720  47.954  1.00  0.00     0.038 A 
HETATM   25  C16 UNL     1      26.015   7.314  48.142  1.00  0.00    -0.021 A 
HETATM   26  C17 UNL     1      24.843   6.876  48.952  1.00  0.00     0.063 A 
ENDBRANCH  19  20
ENDBRANCH  16  19
ENDBRANCH   3   4
TORSDOF 3
ENDMDL
MODEL 9
REMARK VINA RESULT:      -6.8      9.949     12.890
REMARK  3 active torsions:
REMARK  status: ('A' for Active; 'I' for Inactive)
REMARK    1  A    between atoms: C3_3  and  C4_4 
REMARK    2  A    between atoms: C11_14  and  O1_15 
REMARK    3  A    between atoms: O1_15  and  C12_16 
ROOT
HETATM    1  C1  UNL     1      30.543  11.283  49.320  1.00  0.00     0.112 C 
HETATM    2  C2  UNL     1      30.896   9.908  48.972  1.00  0.00    -0.105 C 
HETATM    3  C3  UNL     1      31.176   8.735  48.686  1.00  0.00    -0.061 C 
ENDROOT
BRANCH   3   4
HETATM    4  C4  UNL     1      31.525   7.305  48.309  1.00  0.00     0.089 A 
HETATM    5  C5  UNL     1      32.781   7.461  47.882  1.00  0.00     0.081 A 
HETATM    6  N1  UNL     1      33.079   6.153  47.972  1.00  0.00    -0.243 NA
HETATM    7  C19 UNL     1      33.530   8.579  47.366  1.00  0.00     0.167 A 
HETATM    8  C6  UNL     1      32.208   5.183  48.388  1.00  0.00     0.235 A 
HETATM    9  N2  UNL     1      30.949   5.444  48.755  1.00  0.00    -0.223 NA
HETATM   10  C7  UNL     1      30.406   6.666  48.756  1.00  0.00     0.146 A 
HETATM   11  N3  UNL     1      29.121   7.124  48.990  1.00  0.00    -0.370 N 
HETATM   12  C8  UNL     1      28.613   7.036  47.571  1.00  0.00     0.148 C 
HETATM   13  H5  UNL     1      29.331   7.233  49.999  1.00  0.00     0.161 HD
HETATM   14  C9  UNL     1      29.566   7.675  46.641  1.00  0.00    -0.008 C 
HETATM   15  C10 UNL     1      30.343   8.312  45.786  1.00  0.00     0.008 C 
HETATM   16  C11 UNL     1      31.759   8.236  45.257  1.00  0.00     0.186 C 
HETATM   17  C18 UNL     1      32.774   8.555  46.290  1.00  0.00     0.031 A 
HETATM   18 CL1  UNL     1      33.887   9.901  45.930  1.00  0.00    -0.171 Cl
BRANCH  16  19
HETATM   19  O1  UNL     1      31.906   6.985  44.685  1.00  0.00    -0.367 OA
BRANCH  19  20
HETATM   20  C12 UNL     1      33.023   6.909  43.831  1.00  0.00     0.152 A 
HETATM   21  C13 UNL     1      33.863   5.814  44.387  1.00  0.00     0.047 A 
HETATM   22  C14 UNL     1      34.286   4.658  43.862  1.00  0.00     0.114 A 
HETATM   23  F1  UNL     1      35.068   3.790  44.594  1.00  0.00    -0.206 F 
HETATM   24  C15 UNL     1      33.871   4.449  42.483  1.00  0.00     0.038 A 
HETATM   25  C16 UNL     1      33.147   5.351  41.881  1.00  0.00    -0.021 A 
HETATM   26  C17 UNL     1      32.641   6.657  42.394  1.00  0.00     0.063 A 
ENDBRANCH  19  20
ENDBRANCH  16  19
ENDBRANCH   3   4
TORSDOF 3
ENDMDL
