MODEL 1
REMARK VINA RESULT:      -8.9      0.000      0.000
REMARK  3 active torsions:
REMARK  status: ('A' for Active; 'I' for Inactive)
REMARK    1  A    between atoms: C4_5  and  C5_6 
REMARK    2  A    between atoms: N2_8  and  C6_9 
REMARK    3  A    between atoms: C9_14  and  C10_15 
ROOT
HETATM    1  C5  UNL     1      23.266   0.984  52.240  1.00  0.00     0.067 C 
HETATM    2  N1  UNL     1      23.731   1.586  51.203  1.00  0.00    -0.173 NA
HETATM    3  N2  UNL     1      25.059   1.939  51.254  1.00  0.00    -0.236 N 
HETATM    4  C9  UNL     1      25.535   0.915  52.115  1.00  0.00     0.151 C 
HETATM    5  C16 UNL     1      24.434   0.899  53.164  1.00  0.00     0.094 C 
ENDROOT
BRANCH   1   6
HETATM    6  C4  UNL     1      21.883   0.522  52.394  1.00  0.00    -0.010 A 
HETATM    7  C3  UNL     1      20.915   0.725  51.450  1.00  0.00     0.015 A 
HETATM    8  C2  UNL     1      19.652   0.203  51.691  1.00  0.00     0.020 A 
HETATM    9  C1  UNL     1      19.412  -0.504  52.879  1.00  0.00     0.011 A 
HETATM   10 BR1  UNL     1      17.634  -1.187  53.136  1.00  0.00    -0.051 Br
HETATM   11  C18 UNL     1      20.412  -0.686  53.805  1.00  0.00     0.020 A 
HETATM   12  C17 UNL     1      21.674  -0.177  53.585  1.00  0.00     0.015 A 
ENDBRANCH   1   6
BRANCH   3  13
HETATM   13  C6  UNL     1      25.555   3.097  50.517  1.00  0.00     0.189 A 
HETATM   14  N3  UNL     1      26.781   3.158  49.757  1.00  0.00    -0.235 NA
HETATM   15  C7  UNL     1      26.861   4.368  49.223  1.00  0.00     0.127 A 
HETATM   16  C8  UNL     1      25.933   5.545  49.306  1.00  0.00     0.072 A 
HETATM   17  S1  UNL     1      24.690   4.710  50.388  1.00  0.00    -0.061 SA
ENDBRANCH   3  13
BRANCH   4  18
HETATM   18  C10 UNL     1      26.817   1.018  52.744  1.00  0.00    -0.033 A 
HETATM   19  C11 UNL     1      27.505  -0.194  52.918  1.00  0.00     0.009 A 
HETATM   20  C12 UNL     1      28.739  -0.346  53.481  1.00  0.00     0.001 A 
HETATM   21  C13 UNL     1      29.407   0.763  53.933  1.00  0.00     0.000 A 
HETATM   22  C14 UNL     1      28.787   1.987  53.793  1.00  0.00     0.001 A 
HETATM   23  C15 UNL     1      27.530   2.099  53.214  1.00  0.00     0.009 A 
ENDBRANCH   4  18
TORSDOF 3
ENDMDL
MODEL 2
REMARK VINA RESULT:      -8.6      3.560      6.902
REMARK  3 active torsions:
REMARK  status: ('A' for Active; 'I' for Inactive)
REMARK    1  A    between atoms: C4_5  and  C5_6 
REMARK    2  A    between atoms: N2_8  and  C6_9 
REMARK    3  A    between atoms: C9_14  and  C10_15 
ROOT
HETATM    1  C5  UNL     1      25.710   3.191  50.890  1.00  0.00     0.067 C 
HETATM    2  N1  UNL     1      26.551   2.227  51.023  1.00  0.00    -0.173 NA
HETATM    3  N2  UNL     1      26.179   1.213  51.874  1.00  0.00    -0.236 N 
HETATM    4  C9  UNL     1      24.769   1.299  51.730  1.00  0.00     0.151 C 
HETATM    5  C16 UNL     1      24.576   2.806  51.779  1.00  0.00     0.094 C 
ENDROOT
BRANCH   1   6
HETATM    6  C4  UNL     1      25.907   4.366  50.035  1.00  0.00    -0.010 A 
HETATM    7  C3  UNL     1      25.046   5.427  50.009  1.00  0.00     0.015 A 
HETATM    8  C2  UNL     1      25.362   6.501  49.188  1.00  0.00     0.020 A 
HETATM    9  C1  UNL     1      26.536   6.462  48.422  1.00  0.00     0.011 A 
HETATM   10 BR1  UNL     1      26.894   7.987  47.308  1.00  0.00    -0.051 Br
HETATM   11  C18 UNL     1      27.377   5.375  48.475  1.00  0.00     0.020 A 
HETATM   12  C17 UNL     1      27.083   4.299  49.283  1.00  0.00     0.015 A 
ENDBRANCH   1   6
BRANCH   3  13
HETATM   13  C6  UNL     1      27.182   0.431  52.590  1.00  0.00     0.189 A 
HETATM   14  N3  UNL     1      27.305  -1.007  52.576  1.00  0.00    -0.235 NA
HETATM   15  C7  UNL     1      28.347  -1.327  53.330  1.00  0.00     0.127 A 
HETATM   16  C8  UNL     1      29.302  -0.467  54.107  1.00  0.00     0.072 A 
HETATM   17  S1  UNL     1      28.513   1.136  53.639  1.00  0.00    -0.061 SA
ENDBRANCH   3  13
BRANCH   4  18
HETATM   18  C10 UNL     1      23.893   0.656  52.661  1.00  0.00    -0.033 A 
HETATM   19  C11 UNL     1      22.571   1.134  52.678  1.00  0.00     0.009 A 
HETATM   20  C12 UNL     1      21.560   0.674  53.470  1.00  0.00     0.001 A 
HETATM   21  C13 UNL     1      21.811  -0.349  54.347  1.00  0.00     0.000 A 
HETATM   22  C14 UNL     1      23.090  -0.865  54.382  1.00  0.00     0.001 A 
HETATM   23  C15 UNL     1      24.093  -0.369  53.559  1.00  0.00     0.009 A 
ENDBRANCH   4  18
TORSDOF 3
ENDMDL
MODEL 3
REMARK VINA RESULT:      -8.6      3.475      6.119
REMARK  3 active torsions:
REMARK  status: ('A' for Active; 'I' for Inactive)
REMARK    1  A    between atoms: C4_5  and  C5_6 
REMARK    2  A    between atoms: N2_8  and  C6_9 
REMARK    3  A    between atoms: C9_14  and  C10_15 
ROOT
HETATM    1  C5  UNL     1      25.665   2.431  51.412  1.00  0.00     0.067 C 
HETATM    2  N1  UNL     1      24.922   2.075  52.399  1.00  0.00    -0.173 NA
HETATM    3  N2  UNL     1      25.240   0.879  52.997  1.00  0.00    -0.236 N 
HETATM    4  C9  UNL     1      26.637   0.859  52.737  1.00  0.00     0.151 C 
HETATM    5  C16 UNL     1      26.658   1.323  51.290  1.00  0.00     0.094 C 
ENDROOT
BRANCH   1   6
HETATM    6  C4  UNL     1      25.501   3.665  50.638  1.00  0.00    -0.010 A 
HETATM    7  C3  UNL     1      24.464   4.536  50.826  1.00  0.00     0.015 A 
HETATM    8  C2  UNL     1      24.441   5.693  50.059  1.00  0.00     0.020 A 
HETATM    9  C1  UNL     1      25.464   5.928  49.130  1.00  0.00     0.011 A 
HETATM   10 BR1  UNL     1      25.350   7.550  48.106  1.00  0.00    -0.051 Br
HETATM   11  C18 UNL     1      26.491   5.027  48.970  1.00  0.00     0.020 A 
HETATM   12  C17 UNL     1      26.535   3.872  49.720  1.00  0.00     0.015 A 
ENDBRANCH   1   6
BRANCH   3  13
HETATM   13  C6  UNL     1      24.215   0.069  53.645  1.00  0.00     0.189 A 
HETATM   14  N3  UNL     1      24.407  -0.781  54.796  1.00  0.00    -0.235 NA
HETATM   15  C7  UNL     1      23.235  -1.327  55.091  1.00  0.00     0.127 A 
HETATM   16  C8  UNL     1      21.889  -1.181  54.443  1.00  0.00     0.072 A 
HETATM   17  S1  UNL     1      22.454  -0.006  53.134  1.00  0.00    -0.061 SA
ENDBRANCH   3  13
BRANCH   4  18
HETATM   18  C10 UNL     1      27.395  -0.346  52.882  1.00  0.00    -0.033 A 
HETATM   19  C11 UNL     1      28.694  -0.186  53.395  1.00  0.00     0.009 A 
HETATM   20  C12 UNL     1      29.596  -1.183  53.629  1.00  0.00     0.001 A 
HETATM   21  C13 UNL     1      29.245  -2.479  53.351  1.00  0.00     0.000 A 
HETATM   22  C14 UNL     1      27.983  -2.707  52.844  1.00  0.00     0.001 A 
HETATM   23  C15 UNL     1      27.093  -1.664  52.620  1.00  0.00     0.009 A 
ENDBRANCH   4  18
TORSDOF 3
ENDMDL
MODEL 4
REMARK VINA RESULT:      -8.5      4.113      7.066
REMARK  3 active torsions:
REMARK  status: ('A' for Active; 'I' for Inactive)
REMARK    1  A    between atoms: C4_5  and  C5_6 
REMARK    2  A    between atoms: N2_8  and  C6_9 
REMARK    3  A    between atoms: C9_14  and  C10_15 
ROOT
HETATM    1  C5  UNL     1      25.842   4.078  49.591  1.00  0.00     0.067 C 
HETATM    2  N1  UNL     1      24.562   3.964  49.645  1.00  0.00    -0.173 NA
HETATM    3  N2  UNL     1      24.080   2.871  50.327  1.00  0.00    -0.236 N 
HETATM    4  C9  UNL     1      25.141   2.695  51.254  1.00  0.00     0.151 C 
HETATM    5  C16 UNL     1      26.343   2.892  50.344  1.00  0.00     0.094 C 
ENDROOT
BRANCH   1   6
HETATM    6  C4  UNL     1      26.561   5.164  48.918  1.00  0.00    -0.010 A 
HETATM    7  C3  UNL     1      25.982   6.359  48.594  1.00  0.00     0.015 A 
HETATM    8  C2  UNL     1      26.779   7.326  47.996  1.00  0.00     0.020 A 
HETATM    9  C1  UNL     1      28.131   7.049  47.744  1.00  0.00     0.011 A 
HETATM   10 BR1  UNL     1      29.158   8.440  46.907  1.00  0.00    -0.051 Br
HETATM   11  C18 UNL     1      28.676   5.834  48.085  1.00  0.00     0.020 A 
HETATM   12  C17 UNL     1      27.904   4.860  48.680  1.00  0.00     0.015 A 
ENDBRANCH   1   6
BRANCH   3  13
HETATM   13  C6  UNL     1      22.797   2.274  49.972  1.00  0.00     0.189 A 
HETATM   14  N3  UNL     1      22.406   1.821  48.659  1.00  0.00    -0.235 NA
HETATM   15  C7  UNL     1      21.181   1.324  48.755  1.00  0.00     0.127 A 
HETATM   16  C8  UNL     1      20.261   1.192  49.934  1.00  0.00     0.072 A 
HETATM   17  S1  UNL     1      21.426   1.953  51.149  1.00  0.00    -0.061 SA
ENDBRANCH   3  13
BRANCH   4  18
HETATM   18  C10 UNL     1      25.275   1.479  51.997  1.00  0.00    -0.033 A 
HETATM   19  C11 UNL     1      26.425   0.721  51.716  1.00  0.00     0.009 A 
HETATM   20  C12 UNL     1      26.772  -0.462  52.300  1.00  0.00     0.001 A 
HETATM   21  C13 UNL     1      25.950  -1.000  53.256  1.00  0.00     0.000 A 
HETATM   22  C14 UNL     1      24.804  -0.307  53.581  1.00  0.00     0.001 A 
HETATM   23  C15 UNL     1      24.485   0.896  52.963  1.00  0.00     0.009 A 
ENDBRANCH   4  18
TORSDOF 3
ENDMDL
MODEL 5
REMARK VINA RESULT:      -8.1      4.295      7.064
REMARK  3 active torsions:
REMARK  status: ('A' for Active; 'I' for Inactive)
REMARK    1  A    between atoms: C4_5  and  C5_6 
REMARK    2  A    between atoms: N2_8  and  C6_9 
REMARK    3  A    between atoms: C9_14  and  C10_15 
ROOT
HETATM    1  C5  UNL     1      24.000   3.374  50.780  1.00  0.00     0.067 C 
HETATM    2  N1  UNL     1      22.794   3.808  50.877  1.00  0.00    -0.173 NA
HETATM    3  N2  UNL     1      21.908   2.991  51.540  1.00  0.00    -0.236 N 
HETATM    4  C9  UNL     1      22.813   2.342  52.422  1.00  0.00     0.151 C 
HETATM    5  C16 UNL     1      23.967   2.054  51.475  1.00  0.00     0.094 C 
ENDROOT
BRANCH   1   6
HETATM    6  C4  UNL     1      25.098   4.084  50.117  1.00  0.00    -0.010 A 
HETATM    7  C3  UNL     1      26.230   3.464  49.670  1.00  0.00     0.015 A 
HETATM    8  C2  UNL     1      27.181   4.238  49.019  1.00  0.00     0.020 A 
HETATM    9  C1  UNL     1      26.955   5.611  48.846  1.00  0.00     0.011 A 
HETATM   10 BR1  UNL     1      28.325   6.608  47.941  1.00  0.00    -0.051 Br
HETATM   11  C18 UNL     1      25.802   6.199  49.311  1.00  0.00     0.020 A 
HETATM   12  C17 UNL     1      24.844   5.450  49.960  1.00  0.00     0.015 A 
ENDBRANCH   1   6
BRANCH   3  13
HETATM   13  C6  UNL     1      20.486   3.007  51.214  1.00  0.00     0.189 A 
HETATM   14  N3  UNL     1      19.428   3.509  52.058  1.00  0.00    -0.235 NA
HETATM   15  C7  UNL     1      18.287   3.365  51.398  1.00  0.00     0.127 A 
HETATM   16  C8  UNL     1      18.002   2.807  50.034  1.00  0.00     0.072 A 
HETATM   17  S1  UNL     1      19.762   2.408  49.638  1.00  0.00    -0.061 SA
ENDBRANCH   3  13
BRANCH   4  18
HETATM   18  C10 UNL     1      22.435   1.151  53.120  1.00  0.00    -0.033 A 
HETATM   19  C11 UNL     1      23.475   0.240  53.371  1.00  0.00     0.009 A 
HETATM   20  C12 UNL     1      23.361  -0.953  54.023  1.00  0.00     0.001 A 
HETATM   21  C13 UNL     1      22.133  -1.340  54.495  1.00  0.00     0.000 A 
HETATM   22  C14 UNL     1      21.067  -0.492  54.282  1.00  0.00     0.001 A 
HETATM   23  C15 UNL     1      21.225   0.715  53.613  1.00  0.00     0.009 A 
ENDBRANCH   4  18
TORSDOF 3
ENDMDL
MODEL 6
REMARK VINA RESULT:      -8.0      3.503      6.879
REMARK  3 active torsions:
REMARK  status: ('A' for Active; 'I' for Inactive)
REMARK    1  A    between atoms: C4_5  and  C5_6 
REMARK    2  A    between atoms: N2_8  and  C6_9 
REMARK    3  A    between atoms: C9_14  and  C10_15 
ROOT
HETATM    1  C5  UNL     1      24.199   0.654  52.908  1.00  0.00     0.067 C 
HETATM    2  N1  UNL     1      23.692   1.819  52.708  1.00  0.00    -0.173 NA
HETATM    3  N2  UNL     1      22.335   1.859  52.488  1.00  0.00    -0.236 N 
HETATM    4  C9  UNL     1      21.950   0.713  53.234  1.00  0.00     0.151 C 
HETATM    5  C16 UNL     1      23.031  -0.269  52.814  1.00  0.00     0.094 C 
ENDROOT
BRANCH   1   6
HETATM    6  C4  UNL     1      25.618   0.387  53.162  1.00  0.00    -0.010 A 
HETATM    7  C3  UNL     1      26.413   1.210  53.910  1.00  0.00     0.015 A 
HETATM    8  C2  UNL     1      27.732   0.828  54.114  1.00  0.00     0.020 A 
HETATM    9  C1  UNL     1      28.200  -0.370  53.554  1.00  0.00     0.011 A 
HETATM   10 BR1  UNL     1      30.040  -0.819  53.880  1.00  0.00    -0.051 Br
HETATM   11  C18 UNL     1      27.368  -1.170  52.806  1.00  0.00     0.020 A 
HETATM   12  C17 UNL     1      26.056  -0.811  52.591  1.00  0.00     0.015 A 
ENDBRANCH   1   6
BRANCH   3  13
HETATM   13  C6  UNL     1      21.740   2.912  51.672  1.00  0.00     0.189 A 
HETATM   14  N3  UNL     1      20.887   3.974  52.149  1.00  0.00    -0.235 NA
HETATM   15  C7  UNL     1      20.572   4.733  51.108  1.00  0.00     0.127 A 
HETATM   16  C8  UNL     1      20.955   4.627  49.660  1.00  0.00     0.072 A 
HETATM   17  S1  UNL     1      21.985   3.107  49.864  1.00  0.00    -0.061 SA
ENDBRANCH   3  13
BRANCH   4  18
HETATM   18  C10 UNL     1      20.655   0.127  53.065  1.00  0.00    -0.033 A 
HETATM   19  C11 UNL     1      20.382  -0.984  53.881  1.00  0.00     0.009 A 
HETATM   20  C12 UNL     1      19.221  -1.699  53.905  1.00  0.00     0.001 A 
HETATM   21  C13 UNL     1      18.195  -1.335  53.072  1.00  0.00     0.000 A 
HETATM   22  C14 UNL     1      18.396  -0.251  52.243  1.00  0.00     0.001 A 
HETATM   23  C15 UNL     1      19.594   0.451  52.248  1.00  0.00     0.009 A 
ENDBRANCH   4  18
TORSDOF 3
ENDMDL
MODEL 7
REMARK VINA RESULT:      -7.7      3.841      7.651
REMARK  3 active torsions:
REMARK  status: ('A' for Active; 'I' for Inactive)
REMARK    1  A    between atoms: C4_5  and  C5_6 
REMARK    2  A    between atoms: N2_8  and  C6_9 
REMARK    3  A    between atoms: C9_14  and  C10_15 
ROOT
HETATM    1  C5  UNL     1      25.339   3.940  50.064  1.00  0.00     0.067 C 
HETATM    2  N1  UNL     1      25.798   2.855  50.579  1.00  0.00    -0.173 NA
HETATM    3  N2  UNL     1      24.895   2.087  51.276  1.00  0.00    -0.236 N 
HETATM    4  C9  UNL     1      23.709   2.442  50.581  1.00  0.00     0.151 C 
HETATM    5  C16 UNL     1      23.899   3.944  50.454  1.00  0.00     0.094 C 
ENDROOT
BRANCH   1   6
HETATM    6  C4  UNL     1      26.127   4.899  49.285  1.00  0.00    -0.010 A 
HETATM    7  C3  UNL     1      25.642   6.108  48.871  1.00  0.00     0.015 A 
HETATM    8  C2  UNL     1      26.499   6.949  48.175  1.00  0.00     0.020 A 
HETATM    9  C1  UNL     1      27.815   6.537  47.919  1.00  0.00     0.011 A 
HETATM   10 BR1  UNL     1      28.931   7.758  46.943  1.00  0.00    -0.051 Br
HETATM   11  C18 UNL     1      28.266   5.312  48.351  1.00  0.00     0.020 A 
HETATM   12  C17 UNL     1      27.432   4.461  49.045  1.00  0.00     0.015 A 
ENDBRANCH   1   6
BRANCH   3  13
HETATM   13  C6  UNL     1      25.330   1.235  52.379  1.00  0.00     0.189 A 
HETATM   14  N3  UNL     1      26.667   1.163  52.919  1.00  0.00    -0.235 NA
HETATM   15  C7  UNL     1      26.648   0.293  53.919  1.00  0.00     0.127 A 
HETATM   16  C8  UNL     1      25.529  -0.529  54.489  1.00  0.00     0.072 A 
HETATM   17  S1  UNL     1      24.241   0.097  53.321  1.00  0.00    -0.061 SA
ENDBRANCH   3  13
BRANCH   4  18
HETATM   18  C10 UNL     1      22.419   2.149  51.128  1.00  0.00    -0.033 A 
HETATM   19  C11 UNL     1      21.771   1.026  50.585  1.00  0.00     0.009 A 
HETATM   20  C12 UNL     1      20.546   0.549  50.951  1.00  0.00     0.001 A 
HETATM   21  C13 UNL     1      19.845   1.195  51.936  1.00  0.00     0.000 A 
HETATM   22  C14 UNL     1      20.424   2.306  52.512  1.00  0.00     0.001 A 
HETATM   23  C15 UNL     1      21.674   2.761  52.112  1.00  0.00     0.009 A 
ENDBRANCH   4  18
TORSDOF 3
ENDMDL
MODEL 8
REMARK VINA RESULT:      -7.7      1.862      2.669
REMARK  3 active torsions:
REMARK  status: ('A' for Active; 'I' for Inactive)
REMARK    1  A    between atoms: C4_5  and  C5_6 
REMARK    2  A    between atoms: N2_8  and  C6_9 
REMARK    3  A    between atoms: C9_14  and  C10_15 
ROOT
HETATM    1  C5  UNL     1      20.995   0.598  52.194  1.00  0.00     0.067 C 
HETATM    2  N1  UNL     1      21.440   1.578  51.491  1.00  0.00    -0.173 NA
HETATM    3  N2  UNL     1      22.767   1.895  51.666  1.00  0.00    -0.236 N 
HETATM    4  C9  UNL     1      23.263   0.613  52.025  1.00  0.00     0.151 C 
HETATM    5  C16 UNL     1      22.179   0.155  52.987  1.00  0.00     0.094 C 
ENDROOT
BRANCH   1   6
HETATM    6  C4  UNL     1      19.618   0.097  52.161  1.00  0.00    -0.010 A 
HETATM    7  C3  UNL     1      18.749   0.361  51.140  1.00  0.00     0.015 A 
HETATM    8  C2  UNL     1      17.482  -0.205  51.202  1.00  0.00     0.020 A 
HETATM    9  C1  UNL     1      17.140  -1.015  52.294  1.00  0.00     0.011 A 
HETATM   10 BR1  UNL     1      15.365  -1.752  52.304  1.00  0.00    -0.051 Br
HETATM   11  C18 UNL     1      18.043  -1.256  53.303  1.00  0.00     0.020 A 
HETATM   12  C17 UNL     1      19.305  -0.705  53.262  1.00  0.00     0.015 A 
ENDBRANCH   1   6
BRANCH   3  13
HETATM   13  C6  UNL     1      23.244   3.259  51.464  1.00  0.00     0.189 A 
HETATM   14  N3  UNL     1      22.890   4.409  52.262  1.00  0.00    -0.235 NA
HETATM   15  C7  UNL     1      23.544   5.453  51.773  1.00  0.00     0.127 A 
HETATM   16  C8  UNL     1      24.499   5.565  50.619  1.00  0.00     0.072 A 
HETATM   17  S1  UNL     1      24.422   3.778  50.156  1.00  0.00    -0.061 SA
ENDBRANCH   3  13
BRANCH   4  18
HETATM   18  C10 UNL     1      24.554   0.464  52.624  1.00  0.00    -0.033 A 
HETATM   19  C11 UNL     1      24.566  -0.137  53.894  1.00  0.00     0.009 A 
HETATM   20  C12 UNL     1      25.670  -0.391  54.654  1.00  0.00     0.001 A 
HETATM   21  C13 UNL     1      26.906  -0.043  54.172  1.00  0.00     0.000 A 
HETATM   22  C14 UNL     1      26.966   0.552  52.930  1.00  0.00     0.001 A 
HETATM   23  C15 UNL     1      25.817   0.794  52.187  1.00  0.00     0.009 A 
ENDBRANCH   4  18
TORSDOF 3
ENDMDL
MODEL 9
REMARK VINA RESULT:      -7.6      2.886      4.929
REMARK  3 active torsions:
REMARK  status: ('A' for Active; 'I' for Inactive)
REMARK    1  A    between atoms: C4_5  and  C5_6 
REMARK    2  A    between atoms: N2_8  and  C6_9 
REMARK    3  A    between atoms: C9_14  and  C10_15 
ROOT
HETATM    1  C5  UNL     1      23.719   3.037  50.985  1.00  0.00     0.067 C 
HETATM    2  N1  UNL     1      22.911   3.766  50.301  1.00  0.00    -0.173 NA
HETATM    3  N2  UNL     1      23.477   4.813  49.611  1.00  0.00    -0.236 N 
HETATM    4  C9  UNL     1      24.768   4.265  49.386  1.00  0.00     0.151 C 
HETATM    5  C16 UNL     1      25.055   3.657  50.749  1.00  0.00     0.094 C 
ENDROOT
BRANCH   1   6
HETATM    6  C4  UNL     1      23.326   1.875  51.789  1.00  0.00    -0.010 A 
HETATM    7  C3  UNL     1      24.126   1.324  52.751  1.00  0.00     0.015 A 
HETATM    8  C2  UNL     1      23.626   0.251  53.476  1.00  0.00     0.020 A 
HETATM    9  C1  UNL     1      22.336  -0.227  53.201  1.00  0.00     0.011 A 
HETATM   10 BR1  UNL     1      21.726  -1.720  54.246  1.00  0.00    -0.051 Br
HETATM   11  C18 UNL     1      21.562   0.354  52.225  1.00  0.00     0.020 A 
HETATM   12  C17 UNL     1      22.038   1.421  51.493  1.00  0.00     0.015 A 
ENDBRANCH   1   6
BRANCH   3  13
HETATM   13  C6  UNL     1      22.715   6.025  49.332  1.00  0.00     0.189 A 
HETATM   14  N3  UNL     1      22.164   6.406  48.053  1.00  0.00    -0.235 NA
HETATM   15  C7  UNL     1      21.528   7.557  48.217  1.00  0.00     0.127 A 
HETATM   16  C8  UNL     1      21.335   8.410  49.437  1.00  0.00     0.072 A 
HETATM   17  S1  UNL     1      22.280   7.303  50.574  1.00  0.00    -0.061 SA
ENDBRANCH   3  13
BRANCH   4  18
HETATM   18  C10 UNL     1      25.858   5.096  48.974  1.00  0.00    -0.033 A 
HETATM   19  C11 UNL     1      27.111   4.463  48.908  1.00  0.00     0.009 A 
HETATM   20  C12 UNL     1      28.288   5.044  48.536  1.00  0.00     0.001 A 
HETATM   21  C13 UNL     1      28.296   6.370  48.185  1.00  0.00     0.000 A 
HETATM   22  C14 UNL     1      27.099   7.052  48.228  1.00  0.00     0.001 A 
HETATM   23  C15 UNL     1      25.922   6.424  48.613  1.00  0.00     0.009 A 
ENDBRANCH   4  18
TORSDOF 3
ENDMDL
