MODEL 1
REMARK VINA RESULT:      -9.6      0.000      0.000
REMARK  6 active torsions:
REMARK  status: ('A' for Active; 'I' for Inactive)
REMARK    1  A    between atoms: C5_5  and  N1_6 
REMARK       I    between atoms: N1_6  and  C6_7 
REMARK    2  A    between atoms: C6_7  and  C7_9 
REMARK    3  A    between atoms: C7_9  and  C8_10 
REMARK    4  A    between atoms: C15_18  and  N2_19 
REMARK    5  A    between atoms: N2_19  and  C16_20 
REMARK    6  A    between atoms: C19_24  and  C20_25 
ROOT
HETATM    1  C1  UNL     1      24.841   6.516  49.918  1.00  0.00     0.050 C 
HETATM    2  C2  UNL     1      26.187   6.310  49.291  1.00  0.00    -0.035 A 
HETATM    3  C3  UNL     1      26.990   7.332  48.859  1.00  0.00     0.011 A 
HETATM    4  C4  UNL     1      28.239   7.127  48.273  1.00  0.00     0.030 A 
HETATM    5  C5  UNL     1      28.679   5.812  48.127  1.00  0.00     0.037 A 
HETATM    6  C14 UNL     1      27.871   4.786  48.563  1.00  0.00     0.060 A 
HETATM    7  C15 UNL     1      26.641   5.010  49.140  1.00  0.00     0.057 A 
ENDROOT
BRANCH   7   8
HETATM    8  N2  UNL     1      25.862   3.936  49.588  1.00  0.00    -0.188 N 
HETATM    9  H14 UNL     1      25.217   3.444  48.914  1.00  0.00     0.184 HD
BRANCH   8  10
HETATM   10  C16 UNL     1      25.696   3.259  50.822  1.00  0.00     0.727 A 
HETATM   11  N3  UNL     1      24.542   3.466  51.522  1.00  0.00    -0.075 NA
HETATM   12  C17 UNL     1      24.391   2.800  52.686  1.00  0.00     0.139 A 
HETATM   13  C18 UNL     1      25.336   1.936  53.187  1.00  0.00     0.053 A 
HETATM   14  C19 UNL     1      26.495   1.738  52.471  1.00  0.00     0.089 A 
HETATM   15  N5  UNL     1      26.600   2.420  51.324  1.00  0.00    -0.062 NA
BRANCH  14  16
HETATM   16  C20 UNL     1      27.548   0.838  52.901  1.00  0.00     0.011 A 
HETATM   17  C21 UNL     1      27.435  -0.530  52.788  1.00  0.00     0.017 A 
HETATM   18  C22 UNL     1      28.428  -1.394  53.202  1.00  0.00     0.020 A 
HETATM   19  C23 UNL     1      29.613  -0.900  53.764  1.00  0.00     0.116 A 
HETATM   20  N4  UNL     1      29.729   0.456  53.877  1.00  0.00    -0.272 NA
HETATM   21  C24 UNL     1      28.736   1.259  53.460  1.00  0.00     0.130 A 
ENDBRANCH  14  16
ENDBRANCH   8  10
ENDBRANCH   7   8
BRANCH   5  22
HETATM   22  N1  UNL     1      29.961   5.745  47.526  1.00  0.00    -0.324 N 
HETATM   23  C6  UNL     1      31.122   5.579  48.288  1.00  0.00     0.246 C 
HETATM   24  O1  UNL     1      30.592   5.529  49.454  1.00  0.00    -0.268 OA
HETATM   25  H6  UNL     1      30.115   5.812  46.481  1.00  0.00     0.169 HD
BRANCH  23  26
HETATM   26  C7  UNL     1      32.532   5.476  48.059  1.00  0.00     0.087 C 
BRANCH  26  27
HETATM   27  C8  UNL     1      33.355   4.907  47.243  1.00  0.00    -0.010 A 
HETATM   28  C9  UNL     1      34.201   3.802  47.566  1.00  0.00     0.009 A 
HETATM   29  C10 UNL     1      35.035   3.249  46.727  1.00  0.00    -0.022 A 
HETATM   30  C11 UNL     1      35.179   3.729  45.347  1.00  0.00     0.056 A 
HETATM   31  C12 UNL     1      34.313   4.875  44.984  1.00  0.00     0.002 A 
HETATM   32  C13 UNL     1      33.509   5.360  45.895  1.00  0.00     0.041 A 
HETATM   33 CL1  UNL     1      32.547   6.721  45.324  1.00  0.00    -0.084 Cl
ENDBRANCH  26  27
ENDBRANCH  23  26
ENDBRANCH   5  22
TORSDOF 6
ENDMDL
MODEL 2
REMARK VINA RESULT:      -9.5      3.266      5.019
REMARK  6 active torsions:
REMARK  status: ('A' for Active; 'I' for Inactive)
REMARK    1  A    between atoms: C5_5  and  N1_6 
REMARK       I    between atoms: N1_6  and  C6_7 
REMARK    2  A    between atoms: C6_7  and  C7_9 
REMARK    3  A    between atoms: C7_9  and  C8_10 
REMARK    4  A    between atoms: C15_18  and  N2_19 
REMARK    5  A    between atoms: N2_19  and  C16_20 
REMARK    6  A    between atoms: C19_24  and  C20_25 
ROOT
HETATM    1  C1  UNL     1      21.063   0.720  50.254  1.00  0.00     0.050 C 
HETATM    2  C2  UNL     1      22.110   1.755  49.970  1.00  0.00    -0.035 A 
HETATM    3  C3  UNL     1      22.357   2.265  48.723  1.00  0.00     0.011 A 
HETATM    4  C4  UNL     1      23.338   3.225  48.472  1.00  0.00     0.030 A 
HETATM    5  C5  UNL     1      24.095   3.677  49.552  1.00  0.00     0.037 A 
HETATM    6  C14 UNL     1      23.845   3.163  50.804  1.00  0.00     0.060 A 
HETATM    7  C15 UNL     1      22.871   2.216  51.032  1.00  0.00     0.057 A 
ENDROOT
BRANCH   7   8
HETATM    8  N2  UNL     1      22.637   1.738  52.327  1.00  0.00    -0.188 N 
HETATM    9  H14 UNL     1      21.828   2.121  52.884  1.00  0.00     0.184 HD
BRANCH   8  10
HETATM   10  C16 UNL     1      23.250   0.779  53.172  1.00  0.00     0.727 A 
HETATM   11  N3  UNL     1      22.446  -0.021  53.931  1.00  0.00    -0.075 NA
HETATM   12  C17 UNL     1      23.043  -0.942  54.715  1.00  0.00     0.139 A 
HETATM   13  C18 UNL     1      24.408  -1.104  54.780  1.00  0.00     0.053 A 
HETATM   14  C19 UNL     1      25.207  -0.289  54.009  1.00  0.00     0.089 A 
HETATM   15  N5  UNL     1      24.568   0.608  53.248  1.00  0.00    -0.062 NA
BRANCH  14  16
HETATM   16  C20 UNL     1      26.654  -0.386  53.990  1.00  0.00     0.011 A 
HETATM   17  C21 UNL     1      27.323  -1.187  53.092  1.00  0.00     0.017 A 
HETATM   18  C22 UNL     1      28.699  -1.292  53.072  1.00  0.00     0.020 A 
HETATM   19  C23 UNL     1      29.481  -0.572  53.984  1.00  0.00     0.116 A 
HETATM   20  N4  UNL     1      28.821   0.223  54.877  1.00  0.00    -0.272 NA
HETATM   21  C24 UNL     1      27.480   0.294  54.859  1.00  0.00     0.130 A 
ENDBRANCH  14  16
ENDBRANCH   8  10
ENDBRANCH   7   8
BRANCH   5  22
HETATM   22  N1  UNL     1      25.049   4.652  49.161  1.00  0.00    -0.324 N 
HETATM   23  C6  UNL     1      26.412   4.352  49.076  1.00  0.00     0.246 C 
HETATM   24  O1  UNL     1      26.370   3.119  49.421  1.00  0.00    -0.268 OA
HETATM   25  H6  UNL     1      24.790   5.647  48.913  1.00  0.00     0.169 HD
BRANCH  23  26
HETATM   26  C7  UNL     1      27.625   5.035  48.741  1.00  0.00     0.087 C 
BRANCH  26  27
HETATM   27  C8  UNL     1      28.013   6.145  48.206  1.00  0.00    -0.010 A 
HETATM   28  C9  UNL     1      27.191   7.299  48.023  1.00  0.00     0.009 A 
HETATM   29  C10 UNL     1      27.601   8.409  47.470  1.00  0.00    -0.022 A 
HETATM   30  C11 UNL     1      28.975   8.567  46.975  1.00  0.00     0.056 A 
HETATM   31  C12 UNL     1      29.850   7.385  47.153  1.00  0.00     0.002 A 
HETATM   32  C13 UNL     1      29.346   6.318  47.719  1.00  0.00     0.041 A 
HETATM   33 CL1  UNL     1      30.498   4.991  47.857  1.00  0.00    -0.084 Cl
ENDBRANCH  26  27
ENDBRANCH  23  26
ENDBRANCH   5  22
TORSDOF 6
ENDMDL
MODEL 3
REMARK VINA RESULT:      -9.5      1.440      1.625
REMARK  6 active torsions:
REMARK  status: ('A' for Active; 'I' for Inactive)
REMARK    1  A    between atoms: C5_5  and  N1_6 
REMARK       I    between atoms: N1_6  and  C6_7 
REMARK    2  A    between atoms: C6_7  and  C7_9 
REMARK    3  A    between atoms: C7_9  and  C8_10 
REMARK    4  A    between atoms: C15_18  and  N2_19 
REMARK    5  A    between atoms: N2_19  and  C16_20 
REMARK    6  A    between atoms: C19_24  and  C20_25 
ROOT
HETATM    1  C1  UNL     1      24.026   6.413  50.981  1.00  0.00     0.050 C 
HETATM    2  C2  UNL     1      25.268   6.480  50.146  1.00  0.00    -0.035 A 
HETATM    3  C3  UNL     1      26.043   7.603  50.024  1.00  0.00     0.011 A 
HETATM    4  C4  UNL     1      27.196   7.654  49.239  1.00  0.00     0.030 A 
HETATM    5  C5  UNL     1      27.564   6.498  48.552  1.00  0.00     0.037 A 
HETATM    6  C14 UNL     1      26.784   5.370  48.676  1.00  0.00     0.060 A 
HETATM    7  C15 UNL     1      25.650   5.340  49.456  1.00  0.00     0.057 A 
ENDROOT
BRANCH   7   8
HETATM    8  N2  UNL     1      24.899   4.164  49.570  1.00  0.00    -0.188 N 
HETATM    9  H14 UNL     1      24.218   3.906  48.807  1.00  0.00     0.184 HD
BRANCH   8  10
HETATM   10  C16 UNL     1      24.802   3.120  50.524  1.00  0.00     0.727 A 
HETATM   11  N3  UNL     1      23.584   2.538  50.724  1.00  0.00    -0.075 NA
HETATM   12  C17 UNL     1      23.512   1.533  51.621  1.00  0.00     0.139 A 
HETATM   13  C18 UNL     1      24.599   1.079  52.332  1.00  0.00     0.053 A 
HETATM   14  C19 UNL     1      25.821   1.676  52.120  1.00  0.00     0.089 A 
HETATM   15  N5  UNL     1      25.843   2.668  51.222  1.00  0.00    -0.062 NA
BRANCH  14  16
HETATM   16  C20 UNL     1      27.033   1.264  52.804  1.00  0.00     0.011 A 
HETATM   17  C21 UNL     1      27.467  -0.042  52.803  1.00  0.00     0.017 A 
HETATM   18  C22 UNL     1      28.614  -0.444  53.457  1.00  0.00     0.020 A 
HETATM   19  C23 UNL     1      29.394   0.483  54.161  1.00  0.00     0.116 A 
HETATM   20  N4  UNL     1      28.967   1.780  54.163  1.00  0.00    -0.272 NA
HETATM   21  C24 UNL     1      27.844   2.125  53.512  1.00  0.00     0.130 A 
ENDBRANCH  14  16
ENDBRANCH   8  10
ENDBRANCH   7   8
BRANCH   5  22
HETATM   22  N1  UNL     1      28.752   6.683  47.800  1.00  0.00    -0.324 N 
HETATM   23  C6  UNL     1      29.876   5.873  47.993  1.00  0.00     0.246 C 
HETATM   24  O1  UNL     1      29.418   5.108  48.912  1.00  0.00    -0.268 OA
HETATM   25  H6  UNL     1      28.858   7.431  47.059  1.00  0.00     0.169 HD
BRANCH  23  26
HETATM   26  C7  UNL     1      31.200   5.757  47.458  1.00  0.00     0.087 C 
BRANCH  26  27
HETATM   27  C8  UNL     1      32.221   4.969  47.525  1.00  0.00    -0.010 A 
HETATM   28  C9  UNL     1      32.228   3.597  47.127  1.00  0.00     0.009 A 
HETATM   29  C10 UNL     1      33.270   2.816  47.214  1.00  0.00    -0.022 A 
HETATM   30  C11 UNL     1      34.554   3.291  47.744  1.00  0.00     0.056 A 
HETATM   31  C12 UNL     1      34.576   4.712  48.165  1.00  0.00     0.002 A 
HETATM   32  C13 UNL     1      33.480   5.415  48.038  1.00  0.00     0.041 A 
HETATM   33 CL1  UNL     1      33.652   7.081  48.584  1.00  0.00    -0.084 Cl
ENDBRANCH  26  27
ENDBRANCH  23  26
ENDBRANCH   5  22
TORSDOF 6
ENDMDL
MODEL 4
REMARK VINA RESULT:      -9.4      4.429      8.458
REMARK  6 active torsions:
REMARK  status: ('A' for Active; 'I' for Inactive)
REMARK    1  A    between atoms: C5_5  and  N1_6 
REMARK       I    between atoms: N1_6  and  C6_7 
REMARK    2  A    between atoms: C6_7  and  C7_9 
REMARK    3  A    between atoms: C7_9  and  C8_10 
REMARK    4  A    between atoms: C15_18  and  N2_19 
REMARK    5  A    between atoms: N2_19  and  C16_20 
REMARK    6  A    between atoms: C19_24  and  C20_25 
ROOT
HETATM    1  C1  UNL     1      19.976   3.377  49.344  1.00  0.00     0.050 C 
HETATM    2  C2  UNL     1      20.787   2.604  50.339  1.00  0.00    -0.035 A 
HETATM    3  C3  UNL     1      20.843   1.236  50.377  1.00  0.00     0.011 A 
HETATM    4  C4  UNL     1      21.599   0.528  51.311  1.00  0.00     0.030 A 
HETATM    5  C5  UNL     1      22.328   1.262  52.246  1.00  0.00     0.037 A 
HETATM    6  C14 UNL     1      22.271   2.637  52.206  1.00  0.00     0.060 A 
HETATM    7  C15 UNL     1      21.519   3.317  51.274  1.00  0.00     0.057 A 
ENDROOT
BRANCH   7   8
HETATM    8  N2  UNL     1      21.509   4.717  51.258  1.00  0.00    -0.188 N 
HETATM    9  H14 UNL     1      20.717   5.237  51.722  1.00  0.00     0.184 HD
BRANCH   8  10
HETATM   10  C16 UNL     1      22.363   5.724  50.742  1.00  0.00     0.727 A 
HETATM   11  N3  UNL     1      21.917   7.014  50.745  1.00  0.00    -0.075 NA
HETATM   12  C17 UNL     1      22.748   7.963  50.268  1.00  0.00     0.139 A 
HETATM   13  C18 UNL     1      24.007   7.688  49.786  1.00  0.00     0.053 A 
HETATM   14  C19 UNL     1      24.444   6.382  49.788  1.00  0.00     0.089 A 
HETATM   15  N5  UNL     1      23.584   5.476  50.270  1.00  0.00    -0.062 NA
BRANCH  14  16
HETATM   16  C20 UNL     1      25.757   5.985  49.318  1.00  0.00     0.011 A 
HETATM   17  C21 UNL     1      26.628   6.878  48.736  1.00  0.00     0.017 A 
HETATM   18  C22 UNL     1      27.876   6.507  48.278  1.00  0.00     0.020 A 
HETATM   19  C23 UNL     1      28.311   5.180  48.391  1.00  0.00     0.116 A 
HETATM   20  N4  UNL     1      27.449   4.291  48.968  1.00  0.00    -0.272 NA
HETATM   21  C24 UNL     1      26.243   4.698  49.399  1.00  0.00     0.130 A 
ENDBRANCH  14  16
ENDBRANCH   8  10
ENDBRANCH   7   8
BRANCH   5  22
HETATM   22  N1  UNL     1      23.054   0.424  53.130  1.00  0.00    -0.324 N 
HETATM   23  C6  UNL     1      24.447   0.319  53.064  1.00  0.00     0.246 C 
HETATM   24  O1  UNL     1      24.665   1.128  52.095  1.00  0.00    -0.268 OA
HETATM   25  H6  UNL     1      22.593  -0.162  53.881  1.00  0.00     0.169 HD
BRANCH  23  26
HETATM   26  C7  UNL     1      25.487  -0.390  53.747  1.00  0.00     0.087 C 
BRANCH  26  27
HETATM   27  C8  UNL     1      26.775  -0.387  53.848  1.00  0.00    -0.010 A 
HETATM   28  C9  UNL     1      27.534   0.513  54.657  1.00  0.00     0.009 A 
HETATM   29  C10 UNL     1      28.837   0.504  54.736  1.00  0.00    -0.022 A 
HETATM   30  C11 UNL     1      29.653  -0.454  53.979  1.00  0.00     0.056 A 
HETATM   31  C12 UNL     1      28.892  -1.401  53.131  1.00  0.00     0.002 A 
HETATM   32  C13 UNL     1      27.586  -1.313  53.119  1.00  0.00     0.041 A 
HETATM   33 CL1  UNL     1      26.817  -2.494  52.062  1.00  0.00    -0.084 Cl
ENDBRANCH  26  27
ENDBRANCH  23  26
ENDBRANCH   5  22
TORSDOF 6
ENDMDL
MODEL 5
REMARK VINA RESULT:      -9.3      1.945      3.303
REMARK  6 active torsions:
REMARK  status: ('A' for Active; 'I' for Inactive)
REMARK    1  A    between atoms: C5_5  and  N1_6 
REMARK       I    between atoms: N1_6  and  C6_7 
REMARK    2  A    between atoms: C6_7  and  C7_9 
REMARK    3  A    between atoms: C7_9  and  C8_10 
REMARK    4  A    between atoms: C15_18  and  N2_19 
REMARK    5  A    between atoms: N2_19  and  C16_20 
REMARK    6  A    between atoms: C19_24  and  C20_25 
ROOT
HETATM    1  C1  UNL     1      24.492   6.846  50.946  1.00  0.00     0.050 C 
HETATM    2  C2  UNL     1      25.682   6.785  50.037  1.00  0.00    -0.035 A 
HETATM    3  C3  UNL     1      26.445   7.873  49.708  1.00  0.00     0.011 A 
HETATM    4  C4  UNL     1      27.548   7.803  48.857  1.00  0.00     0.030 A 
HETATM    5  C5  UNL     1      27.877   6.559  48.323  1.00  0.00     0.037 A 
HETATM    6  C14 UNL     1      27.109   5.465  48.654  1.00  0.00     0.060 A 
HETATM    7  C15 UNL     1      26.024   5.555  49.498  1.00  0.00     0.057 A 
ENDROOT
BRANCH   7   8
HETATM    8  N2  UNL     1      25.285   4.412  49.825  1.00  0.00    -0.188 N 
HETATM    9  H14 UNL     1      24.342   4.257  49.379  1.00  0.00     0.184 HD
BRANCH   8  10
HETATM   10  C16 UNL     1      25.484   3.292  50.671  1.00  0.00     0.727 A 
HETATM   11  N3  UNL     1      26.764   2.897  50.930  1.00  0.00    -0.075 NA
HETATM   12  C17 UNL     1      26.937   1.842  51.752  1.00  0.00     0.139 A 
HETATM   13  C18 UNL     1      25.892   1.159  52.332  1.00  0.00     0.053 A 
HETATM   14  C19 UNL     1      24.606   1.570  52.062  1.00  0.00     0.089 A 
HETATM   15  N5  UNL     1      24.485   2.620  51.240  1.00  0.00    -0.062 NA
BRANCH  14  16
HETATM   16  C20 UNL     1      23.434   0.932  52.632  1.00  0.00     0.011 A 
HETATM   17  C21 UNL     1      23.505  -0.273  53.294  1.00  0.00     0.017 A 
HETATM   18  C22 UNL     1      22.395  -0.891  53.832  1.00  0.00     0.020 A 
HETATM   19  C23 UNL     1      21.128  -0.302  53.722  1.00  0.00     0.116 A 
HETATM   20  N4  UNL     1      21.054   0.894  53.067  1.00  0.00    -0.272 NA
HETATM   21  C24 UNL     1      22.162   1.459  52.559  1.00  0.00     0.130 A 
ENDBRANCH  14  16
ENDBRANCH   8  10
ENDBRANCH   7   8
BRANCH   5  22
HETATM   22  N1  UNL     1      29.018   6.626  47.482  1.00  0.00    -0.324 N 
HETATM   23  C6  UNL     1      30.206   5.963  47.804  1.00  0.00     0.246 C 
HETATM   24  O1  UNL     1      29.844   5.422  48.907  1.00  0.00    -0.268 OA
HETATM   25  H6  UNL     1      29.038   7.171  46.576  1.00  0.00     0.169 HD
BRANCH  23  26
HETATM   26  C7  UNL     1      31.513   5.802  47.240  1.00  0.00     0.087 C 
BRANCH  26  27
HETATM   27  C8  UNL     1      32.508   4.979  47.284  1.00  0.00    -0.010 A 
HETATM   28  C9  UNL     1      32.494   3.645  46.771  1.00  0.00     0.009 A 
HETATM   29  C10 UNL     1      33.509   2.827  46.836  1.00  0.00    -0.022 A 
HETATM   30  C11 UNL     1      34.781   3.215  47.459  1.00  0.00     0.056 A 
HETATM   31  C12 UNL     1      34.823   4.594  47.999  1.00  0.00     0.002 A 
HETATM   32  C13 UNL     1      33.754   5.340  47.885  1.00  0.00     0.041 A 
HETATM   33 CL1  UNL     1      33.948   6.949  48.578  1.00  0.00    -0.084 Cl
ENDBRANCH  26  27
ENDBRANCH  23  26
ENDBRANCH   5  22
TORSDOF 6
ENDMDL
MODEL 6
REMARK VINA RESULT:      -9.2      2.968      7.633
REMARK  6 active torsions:
REMARK  status: ('A' for Active; 'I' for Inactive)
REMARK    1  A    between atoms: C5_5  and  N1_6 
REMARK       I    between atoms: N1_6  and  C6_7 
REMARK    2  A    between atoms: C6_7  and  C7_9 
REMARK    3  A    between atoms: C7_9  and  C8_10 
REMARK    4  A    between atoms: C15_18  and  N2_19 
REMARK    5  A    between atoms: N2_19  and  C16_20 
REMARK    6  A    between atoms: C19_24  and  C20_25 
ROOT
HETATM    1  C1  UNL     1      24.624   7.903  46.773  1.00  0.00     0.050 C 
HETATM    2  C2  UNL     1      24.827   6.887  47.855  1.00  0.00    -0.035 A 
HETATM    3  C3  UNL     1      23.819   6.125  48.383  1.00  0.00     0.011 A 
HETATM    4  C4  UNL     1      24.021   5.184  49.393  1.00  0.00     0.030 A 
HETATM    5  C5  UNL     1      25.318   5.024  49.880  1.00  0.00     0.037 A 
HETATM    6  C14 UNL     1      26.330   5.790  49.348  1.00  0.00     0.060 A 
HETATM    7  C15 UNL     1      26.110   6.712  48.349  1.00  0.00     0.057 A 
ENDROOT
BRANCH   7   8
HETATM    8  N2  UNL     1      27.174   7.454  47.823  1.00  0.00    -0.188 N 
HETATM    9  H14 UNL     1      27.033   8.011  46.938  1.00  0.00     0.184 HD
BRANCH   8  10
HETATM   10  C16 UNL     1      28.521   7.688  48.198  1.00  0.00     0.727 A 
HETATM   11  N3  UNL     1      28.829   8.876  48.795  1.00  0.00    -0.075 NA
HETATM   12  C17 UNL     1      30.111   9.076  49.163  1.00  0.00     0.139 A 
HETATM   13  C18 UNL     1      31.105   8.145  48.965  1.00  0.00     0.053 A 
HETATM   14  C19 UNL     1      30.780   6.951  48.362  1.00  0.00     0.089 A 
HETATM   15  N5  UNL     1      29.496   6.799  48.014  1.00  0.00    -0.062 NA
BRANCH  14  16
HETATM   16  C20 UNL     1      31.746   5.896  48.120  1.00  0.00     0.011 A 
HETATM   17  C21 UNL     1      31.411   4.730  47.471  1.00  0.00     0.017 A 
HETATM   18  C22 UNL     1      32.320   3.718  47.244  1.00  0.00     0.020 A 
HETATM   19  C23 UNL     1      33.648   3.843  47.675  1.00  0.00     0.116 A 
HETATM   20  N4  UNL     1      33.985   5.000  48.319  1.00  0.00    -0.272 NA
HETATM   21  C24 UNL     1      33.065   5.958  48.518  1.00  0.00     0.130 A 
ENDBRANCH  14  16
ENDBRANCH   8  10
ENDBRANCH   7   8
BRANCH   5  22
HETATM   22  N1  UNL     1      25.385   4.036  50.896  1.00  0.00    -0.324 N 
HETATM   23  C6  UNL     1      26.227   2.925  50.784  1.00  0.00     0.246 C 
HETATM   24  O1  UNL     1      26.751   3.182  49.643  1.00  0.00    -0.268 OA
HETATM   25  H6  UNL     1      24.814   4.081  51.785  1.00  0.00     0.169 HD
BRANCH  23  26
HETATM   26  C7  UNL     1      26.555   1.765  51.558  1.00  0.00     0.087 C 
BRANCH  26  27
HETATM   27  C8  UNL     1      27.365   1.409  52.498  1.00  0.00    -0.010 A 
HETATM   28  C9  UNL     1      28.212   2.295  53.233  1.00  0.00     0.009 A 
HETATM   29  C10 UNL     1      29.032   1.911  54.174  1.00  0.00    -0.022 A 
HETATM   30  C11 UNL     1      29.159   0.500  54.563  1.00  0.00     0.056 A 
HETATM   31  C12 UNL     1      28.292  -0.441  53.817  1.00  0.00     0.002 A 
HETATM   32  C13 UNL     1      27.502   0.041  52.892  1.00  0.00     0.041 A 
HETATM   33 CL1  UNL     1      26.538  -1.193  52.086  1.00  0.00    -0.084 Cl
ENDBRANCH  26  27
ENDBRANCH  23  26
ENDBRANCH   5  22
TORSDOF 6
ENDMDL
MODEL 7
REMARK VINA RESULT:      -9.1      2.208      3.493
REMARK  6 active torsions:
REMARK  status: ('A' for Active; 'I' for Inactive)
REMARK    1  A    between atoms: C5_5  and  N1_6 
REMARK       I    between atoms: N1_6  and  C6_7 
REMARK    2  A    between atoms: C6_7  and  C7_9 
REMARK    3  A    between atoms: C7_9  and  C8_10 
REMARK    4  A    between atoms: C15_18  and  N2_19 
REMARK    5  A    between atoms: N2_19  and  C16_20 
REMARK    6  A    between atoms: C19_24  and  C20_25 
ROOT
HETATM    1  C1  UNL     1      21.615   3.874  50.880  1.00  0.00     0.050 C 
HETATM    2  C2  UNL     1      22.929   4.420  50.410  1.00  0.00    -0.035 A 
HETATM    3  C3  UNL     1      23.083   5.153  49.263  1.00  0.00     0.011 A 
HETATM    4  C4  UNL     1      24.313   5.652  48.834  1.00  0.00     0.030 A 
HETATM    5  C5  UNL     1      25.432   5.383  49.621  1.00  0.00     0.037 A 
HETATM    6  C14 UNL     1      25.276   4.647  50.774  1.00  0.00     0.060 A 
HETATM    7  C15 UNL     1      24.052   4.164  51.181  1.00  0.00     0.057 A 
ENDROOT
BRANCH   7   8
HETATM    8  N2  UNL     1      23.938   3.438  52.372  1.00  0.00    -0.188 N 
HETATM    9  H14 UNL     1      23.538   3.905  53.230  1.00  0.00     0.184 HD
BRANCH   8  10
HETATM   10  C16 UNL     1      24.237   2.113  52.777  1.00  0.00     0.727 A 
HETATM   11  N3  UNL     1      23.198   1.258  53.007  1.00  0.00    -0.075 NA
HETATM   12  C17 UNL     1      23.500  -0.006  53.373  1.00  0.00     0.139 A 
HETATM   13  C18 UNL     1      24.790  -0.459  53.520  1.00  0.00     0.053 A 
HETATM   14  C19 UNL     1      25.828   0.415  53.284  1.00  0.00     0.089 A 
HETATM   15  N5  UNL     1      25.479   1.656  52.925  1.00  0.00    -0.062 NA
BRANCH  14  16
HETATM   16  C20 UNL     1      27.223   0.036  53.395  1.00  0.00     0.011 A 
HETATM   17  C21 UNL     1      27.665  -1.233  53.096  1.00  0.00     0.017 A 
HETATM   18  C22 UNL     1      28.989  -1.604  53.206  1.00  0.00     0.020 A 
HETATM   19  C23 UNL     1      29.954  -0.683  53.636  1.00  0.00     0.116 A 
HETATM   20  N4  UNL     1      29.519   0.577  53.933  1.00  0.00    -0.272 NA
HETATM   21  C24 UNL     1      28.220   0.894  53.811  1.00  0.00     0.130 A 
ENDBRANCH  14  16
ENDBRANCH   8  10
ENDBRANCH   7   8
BRANCH   5  22
HETATM   22  N1  UNL     1      26.613   5.950  49.077  1.00  0.00    -0.324 N 
HETATM   23  C6  UNL     1      27.685   5.154  48.661  1.00  0.00     0.246 C 
HETATM   24  O1  UNL     1      27.198   4.001  48.935  1.00  0.00    -0.268 OA
HETATM   25  H6  UNL     1      26.751   6.992  48.954  1.00  0.00     0.169 HD
BRANCH  23  26
HETATM   26  C7  UNL     1      28.986   5.345  48.093  1.00  0.00     0.087 C 
BRANCH  26  27
HETATM   27  C8  UNL     1      29.966   6.184  48.145  1.00  0.00    -0.010 A 
HETATM   28  C9  UNL     1      29.855   7.557  48.526  1.00  0.00     0.009 A 
HETATM   29  C10 UNL     1      30.859   8.390  48.560  1.00  0.00    -0.022 A 
HETATM   30  C11 UNL     1      32.221   7.978  48.199  1.00  0.00     0.056 A 
HETATM   31  C12 UNL     1      32.367   6.559  47.800  1.00  0.00     0.002 A 
HETATM   32  C13 UNL     1      31.300   5.801  47.797  1.00  0.00     0.041 A 
HETATM   33 CL1  UNL     1      31.622   4.143  47.295  1.00  0.00    -0.084 Cl
ENDBRANCH  26  27
ENDBRANCH  23  26
ENDBRANCH   5  22
TORSDOF 6
ENDMDL
MODEL 8
REMARK VINA RESULT:      -9.1      2.704      8.540
REMARK  6 active torsions:
REMARK  status: ('A' for Active; 'I' for Inactive)
REMARK    1  A    between atoms: C5_5  and  N1_6 
REMARK       I    between atoms: N1_6  and  C6_7 
REMARK    2  A    between atoms: C6_7  and  C7_9 
REMARK    3  A    between atoms: C7_9  and  C8_10 
REMARK    4  A    between atoms: C15_18  and  N2_19 
REMARK    5  A    between atoms: N2_19  and  C16_20 
REMARK    6  A    between atoms: C19_24  and  C20_25 
ROOT
HETATM    1  C1  UNL     1      26.788   8.456  48.553  1.00  0.00     0.050 C 
HETATM    2  C2  UNL     1      26.549   7.016  48.892  1.00  0.00    -0.035 A 
HETATM    3  C3  UNL     1      25.453   6.568  49.580  1.00  0.00     0.011 A 
HETATM    4  C4  UNL     1      25.244   5.224  49.893  1.00  0.00     0.030 A 
HETATM    5  C5  UNL     1      26.208   4.305  49.480  1.00  0.00     0.037 A 
HETATM    6  C14 UNL     1      27.309   4.757  48.788  1.00  0.00     0.060 A 
HETATM    7  C15 UNL     1      27.496   6.088  48.488  1.00  0.00     0.057 A 
ENDROOT
BRANCH   7   8
HETATM    8  N2  UNL     1      28.620   6.500  47.763  1.00  0.00    -0.188 N 
HETATM    9  H14 UNL     1      28.515   6.771  46.749  1.00  0.00     0.184 HD
BRANCH   8  10
HETATM   10  C16 UNL     1      29.997   6.674  48.054  1.00  0.00     0.727 A 
HETATM   11  N3  UNL     1      30.351   7.636  48.955  1.00  0.00    -0.075 NA
HETATM   12  C17 UNL     1      31.663   7.776  49.235  1.00  0.00     0.139 A 
HETATM   13  C18 UNL     1      32.643   7.002  48.659  1.00  0.00     0.053 A 
HETATM   14  C19 UNL     1      32.271   6.035  47.751  1.00  0.00     0.089 A 
HETATM   15  N5  UNL     1      30.959   5.934  47.505  1.00  0.00    -0.062 NA
BRANCH  14  16
HETATM   16  C20 UNL     1      33.221   5.155  47.098  1.00  0.00     0.011 A 
HETATM   17  C21 UNL     1      34.076   4.342  47.807  1.00  0.00     0.017 A 
HETATM   18  C22 UNL     1      34.988   3.508  47.195  1.00  0.00     0.020 A 
HETATM   19  C23 UNL     1      35.079   3.456  45.797  1.00  0.00     0.116 A 
HETATM   20  N4  UNL     1      34.232   4.260  45.090  1.00  0.00    -0.272 NA
HETATM   21  C24 UNL     1      33.360   5.057  45.729  1.00  0.00     0.130 A 
ENDBRANCH  14  16
ENDBRANCH   8  10
ENDBRANCH   7   8
BRANCH   5  22
HETATM   22  N1  UNL     1      25.872   2.979  49.856  1.00  0.00    -0.324 N 
HETATM   23  C6  UNL     1      26.544   2.317  50.888  1.00  0.00     0.246 C 
HETATM   24  O1  UNL     1      27.364   3.243  51.223  1.00  0.00    -0.268 OA
HETATM   25  H6  UNL     1      25.105   2.421  49.387  1.00  0.00     0.169 HD
BRANCH  23  26
HETATM   26  C7  UNL     1      26.501   1.036  51.526  1.00  0.00     0.087 C 
BRANCH  26  27
HETATM   27  C8  UNL     1      26.157   0.512  52.656  1.00  0.00    -0.010 A 
HETATM   28  C9  UNL     1      24.895  -0.100  52.927  1.00  0.00     0.009 A 
HETATM   29  C10 UNL     1      24.564  -0.614  54.081  1.00  0.00    -0.022 A 
HETATM   30  C11 UNL     1      25.484  -0.606  55.226  1.00  0.00     0.056 A 
HETATM   31  C12 UNL     1      26.802   0.022  54.972  1.00  0.00     0.002 A 
HETATM   32  C13 UNL     1      27.039   0.510  53.781  1.00  0.00     0.041 A 
HETATM   33 CL1  UNL     1      28.640   1.231  53.629  1.00  0.00    -0.084 Cl
ENDBRANCH  26  27
ENDBRANCH  23  26
ENDBRANCH   5  22
TORSDOF 6
ENDMDL
MODEL 9
REMARK VINA RESULT:      -9.1      2.655      3.704
REMARK  6 active torsions:
REMARK  status: ('A' for Active; 'I' for Inactive)
REMARK    1  A    between atoms: C5_5  and  N1_6 
REMARK       I    between atoms: N1_6  and  C6_7 
REMARK    2  A    between atoms: C6_7  and  C7_9 
REMARK    3  A    between atoms: C7_9  and  C8_10 
REMARK    4  A    between atoms: C15_18  and  N2_19 
REMARK    5  A    between atoms: N2_19  and  C16_20 
REMARK    6  A    between atoms: C19_24  and  C20_25 
ROOT
HETATM    1  C1  UNL     1      21.313   7.334  50.757  1.00  0.00     0.050 C 
HETATM    2  C2  UNL     1      22.785   7.447  50.498  1.00  0.00    -0.035 A 
HETATM    3  C3  UNL     1      23.339   8.357  49.638  1.00  0.00     0.011 A 
HETATM    4  C4  UNL     1      24.711   8.448  49.402  1.00  0.00     0.030 A 
HETATM    5  C5  UNL     1      25.547   7.564  50.083  1.00  0.00     0.037 A 
HETATM    6  C14 UNL     1      24.988   6.651  50.949  1.00  0.00     0.060 A 
HETATM    7  C15 UNL     1      23.631   6.577  51.168  1.00  0.00     0.057 A 
ENDROOT
BRANCH   7   8
HETATM    8  N2  UNL     1      23.109   5.646  52.074  1.00  0.00    -0.188 N 
HETATM    9  H14 UNL     1      22.643   5.985  52.958  1.00  0.00     0.184 HD
BRANCH   8  10
HETATM   10  C16 UNL     1      23.023   4.232  52.128  1.00  0.00     0.727 A 
HETATM   11  N3  UNL     1      21.885   3.635  51.667  1.00  0.00    -0.075 NA
HETATM   12  C17 UNL     1      21.827   2.288  51.707  1.00  0.00     0.139 A 
HETATM   13  C18 UNL     1      22.851   1.504  52.185  1.00  0.00     0.053 A 
HETATM   14  C19 UNL     1      23.993   2.119  52.647  1.00  0.00     0.089 A 
HETATM   15  N5  UNL     1      24.004   3.457  52.588  1.00  0.00    -0.062 NA
BRANCH  14  16
HETATM   16  C20 UNL     1      25.137   1.388  53.157  1.00  0.00     0.011 A 
HETATM   17  C21 UNL     1      25.350   0.061  52.860  1.00  0.00     0.017 A 
HETATM   18  C22 UNL     1      26.431  -0.645  53.347  1.00  0.00     0.020 A 
HETATM   19  C23 UNL     1      27.371  -0.024  54.180  1.00  0.00     0.116 A 
HETATM   20  N4  UNL     1      27.164   1.293  54.475  1.00  0.00    -0.272 NA
HETATM   21  C24 UNL     1      26.097   1.940  53.978  1.00  0.00     0.130 A 
ENDBRANCH  14  16
ENDBRANCH   8  10
ENDBRANCH   7   8
BRANCH   5  22
HETATM   22  N1  UNL     1      26.912   7.767  49.759  1.00  0.00    -0.324 N 
HETATM   23  C6  UNL     1      27.489   7.196  48.621  1.00  0.00     0.246 C 
HETATM   24  O1  UNL     1      26.462   6.586  48.158  1.00  0.00    -0.268 OA
HETATM   25  H6  UNL     1      27.566   8.355  50.349  1.00  0.00     0.169 HD
BRANCH  23  26
HETATM   26  C7  UNL     1      28.774   7.165  47.988  1.00  0.00     0.087 C 
BRANCH  26  27
HETATM   27  C8  UNL     1      29.966   6.719  48.206  1.00  0.00    -0.010 A 
HETATM   28  C9  UNL     1      30.430   5.413  47.860  1.00  0.00     0.009 A 
HETATM   29  C10 UNL     1      31.638   4.979  48.100  1.00  0.00    -0.022 A 
HETATM   30  C11 UNL     1      32.645   5.816  48.764  1.00  0.00     0.056 A 
HETATM   31  C12 UNL     1      32.191   7.177  49.133  1.00  0.00     0.002 A 
HETATM   32  C13 UNL     1      30.961   7.520  48.850  1.00  0.00     0.041 A 
HETATM   33 CL1  UNL     1      30.560   9.160  49.354  1.00  0.00    -0.084 Cl
ENDBRANCH  26  27
ENDBRANCH  23  26
ENDBRANCH   5  22
TORSDOF 6
ENDMDL
