MODEL 1
REMARK VINA RESULT:      -9.7      0.000      0.000
REMARK  5 active torsions:
REMARK  status: ('A' for Active; 'I' for Inactive)
REMARK    1  A    between atoms: C7_9  and  C8_10 
REMARK    2  A    between atoms: C9_11  and  C10_12 
REMARK    3  A    between atoms: C10_12  and  N3_13 
REMARK    4  A    between atoms: C17_21  and  N4_22 
REMARK    5  A    between atoms: N4_22  and  C18_23 
ROOT
HETATM    1  N1  UNL     1      22.163  -1.086  55.199  1.00  0.00    -0.191 NA
HETATM    2  C1  UNL     1      22.227  -0.534  54.185  1.00  0.00     0.103 C 
HETATM    3  C2  UNL     1      22.299   0.164  52.931  1.00  0.00     0.089 A 
HETATM    4  C3  UNL     1      21.278   0.025  51.996  1.00  0.00     0.142 A 
HETATM    5  N2  UNL     1      21.335   0.674  50.820  1.00  0.00    -0.259 NA
HETATM    6  C4  UNL     1      22.369   1.474  50.504  1.00  0.00     0.069 A 
HETATM    7  C5  UNL     1      22.418   2.135  49.296  1.00  0.00     0.033 A 
HETATM    8  C6  UNL     1      23.457   2.965  48.927  1.00  0.00     0.014 A 
HETATM    9  C7  UNL     1      24.520   3.154  49.817  1.00  0.00    -0.035 A 
HETATM   10  C15 UNL     1      24.454   2.484  51.024  1.00  0.00     0.027 A 
HETATM   11  C16 UNL     1      23.415   1.655  51.389  1.00  0.00     0.022 A 
HETATM   12  C17 UNL     1      23.357   0.990  52.595  1.00  0.00     0.067 A 
ENDROOT
BRANCH  12  13
HETATM   13  N4  UNL     1      24.413   1.165  53.501  1.00  0.00    -0.354 N 
HETATM   14  H17 UNL     1      24.271   1.825  54.299  1.00  0.00     0.166 HD
BRANCH  13  15
HETATM   15  C18 UNL     1      25.680   0.505  53.418  1.00  0.00     0.034 A 
HETATM   16  C19 UNL     1      25.840  -0.758  52.861  1.00  0.00     0.032 A 
HETATM   17  C20 UNL     1      27.090  -1.341  52.811  1.00  0.00     0.046 A 
HETATM   18  C21 UNL     1      28.195  -0.675  53.313  1.00  0.00     0.138 A 
HETATM   19  F1  UNL     1      29.427  -1.267  53.255  1.00  0.00    -0.204 F 
HETATM   20  C22 UNL     1      28.082   0.589  53.878  1.00  0.00     0.074 A 
HETATM   21 CL1  UNL     1      29.489   1.420  54.509  1.00  0.00    -0.081 Cl
HETATM   22  C23 UNL     1      26.804   1.154  53.915  1.00  0.00     0.056 A 
ENDBRANCH  13  15
ENDBRANCH  12  13
BRANCH   9  23
HETATM   23  C8  UNL     1      25.649   4.014  49.499  1.00  0.00     0.009 C 
HETATM   24  C9  UNL     1      25.584   5.244  48.975  1.00  0.00     0.004 C 
BRANCH  24  25
HETATM   25  C10 UNL     1      26.837   6.020  48.697  1.00  0.00     0.300 C 
BRANCH  25  26
HETATM   26  N3  UNL     1      26.832   7.334  49.258  1.00  0.00     0.096 N 
HETATM   27  C11 UNL     1      28.001   8.114  48.920  1.00  0.00     0.299 C 
HETATM   28  C12 UNL     1      27.743   9.576  49.220  1.00  0.00     0.198 C 
HETATM   29  O1  UNL     1      26.829   9.762  50.227  1.00  0.00    -0.388 OA
HETATM   30  C13 UNL     1      25.572   9.253  49.961  1.00  0.00     0.198 C 
HETATM   31  C14 UNL     1      25.614   8.050  49.047  1.00  0.00     0.299 C 
ENDBRANCH  25  26
ENDBRANCH  24  25
ENDBRANCH   9  23
TORSDOF 5
ENDMDL
MODEL 2
REMARK VINA RESULT:      -9.2      3.700      6.720
REMARK  5 active torsions:
REMARK  status: ('A' for Active; 'I' for Inactive)
REMARK    1  A    between atoms: C7_9  and  C8_10 
REMARK    2  A    between atoms: C9_11  and  C10_12 
REMARK    3  A    between atoms: C10_12  and  N3_13 
REMARK    4  A    between atoms: C17_21  and  N4_22 
REMARK    5  A    between atoms: N4_22  and  C18_23 
ROOT
HETATM    1  N1  UNL     1      19.755   3.110  47.330  1.00  0.00    -0.191 NA
HETATM    2  C1  UNL     1      19.823   2.535  48.331  1.00  0.00     0.103 C 
HETATM    3  C2  UNL     1      19.906   1.805  49.567  1.00  0.00     0.089 A 
HETATM    4  C3  UNL     1      18.748   1.359  50.194  1.00  0.00     0.142 A 
HETATM    5  N2  UNL     1      18.814   0.676  51.349  1.00  0.00    -0.259 NA
HETATM    6  C4  UNL     1      19.992   0.400  51.939  1.00  0.00     0.069 A 
HETATM    7  C5  UNL     1      20.050  -0.301  53.124  1.00  0.00     0.033 A 
HETATM    8  C6  UNL     1      21.232  -0.608  53.766  1.00  0.00     0.014 A 
HETATM    9  C7  UNL     1      22.440  -0.191  53.195  1.00  0.00    -0.035 A 
HETATM   10  C15 UNL     1      22.362   0.510  52.007  1.00  0.00     0.027 A 
HETATM   11  C16 UNL     1      21.180   0.815  51.368  1.00  0.00     0.022 A 
HETATM   12  C17 UNL     1      21.111   1.516  50.183  1.00  0.00     0.067 A 
ENDROOT
BRANCH  12  13
HETATM   13  N4  UNL     1      22.310   1.943  49.594  1.00  0.00    -0.354 N 
HETATM   14  H17 UNL     1      22.733   1.343  48.850  1.00  0.00     0.166 HD
BRANCH  13  15
HETATM   15  C18 UNL     1      23.006   3.146  49.936  1.00  0.00     0.034 A 
HETATM   16  C19 UNL     1      22.460   4.130  50.751  1.00  0.00     0.032 A 
HETATM   17  C20 UNL     1      23.184   5.268  51.043  1.00  0.00     0.046 A 
HETATM   18  C21 UNL     1      24.456   5.442  50.528  1.00  0.00     0.138 A 
HETATM   19  F1  UNL     1      25.159   6.577  50.828  1.00  0.00    -0.204 F 
HETATM   20  C22 UNL     1      25.041   4.485  49.708  1.00  0.00     0.074 A 
HETATM   21 CL1  UNL     1      26.653   4.718  49.063  1.00  0.00    -0.081 Cl
HETATM   22  C23 UNL     1      24.285   3.343  49.430  1.00  0.00     0.056 A 
ENDBRANCH  13  15
ENDBRANCH  12  13
BRANCH   9  23
HETATM   23  C8  UNL     1      23.725  -0.477  53.813  1.00  0.00     0.009 C 
HETATM   24  C9  UNL     1      24.929  -0.289  53.259  1.00  0.00     0.004 C 
BRANCH  24  25
HETATM   25  C10 UNL     1      26.177  -0.632  54.018  1.00  0.00     0.300 C 
BRANCH  25  26
HETATM   26  N3  UNL     1      27.096   0.457  54.125  1.00  0.00     0.096 N 
HETATM   27  C11 UNL     1      28.329   0.111  54.795  1.00  0.00     0.299 C 
HETATM   28  C12 UNL     1      29.371   1.178  54.530  1.00  0.00     0.198 C 
HETATM   29  O1  UNL     1      28.822   2.414  54.293  1.00  0.00    -0.388 OA
HETATM   30  C13 UNL     1      27.999   2.472  53.184  1.00  0.00     0.198 C 
HETATM   31  C14 UNL     1      27.314   1.156  52.899  1.00  0.00     0.299 C 
ENDBRANCH  25  26
ENDBRANCH  24  25
ENDBRANCH   9  23
TORSDOF 5
ENDMDL
MODEL 3
REMARK VINA RESULT:      -9.1      4.729      7.831
REMARK  5 active torsions:
REMARK  status: ('A' for Active; 'I' for Inactive)
REMARK    1  A    between atoms: C7_9  and  C8_10 
REMARK    2  A    between atoms: C9_11  and  C10_12 
REMARK    3  A    between atoms: C10_12  and  N3_13 
REMARK    4  A    between atoms: C17_21  and  N4_22 
REMARK    5  A    between atoms: N4_22  and  C18_23 
ROOT
HETATM    1  N1  UNL     1      28.316   1.760  52.709  1.00  0.00    -0.191 NA
HETATM    2  C1  UNL     1      27.382   1.213  53.117  1.00  0.00     0.103 C 
HETATM    3  C2  UNL     1      26.219   0.546  53.634  1.00  0.00     0.089 A 
HETATM    4  C3  UNL     1      26.321  -0.260  54.764  1.00  0.00     0.142 A 
HETATM    5  N2  UNL     1      25.239  -0.888  55.255  1.00  0.00    -0.259 NA
HETATM    6  C4  UNL     1      24.028  -0.763  54.682  1.00  0.00     0.069 A 
HETATM    7  C5  UNL     1      22.925  -1.411  55.195  1.00  0.00     0.033 A 
HETATM    8  C6  UNL     1      21.664  -1.313  54.642  1.00  0.00     0.014 A 
HETATM    9  C7  UNL     1      21.484  -0.519  53.504  1.00  0.00    -0.035 A 
HETATM   10  C15 UNL     1      22.601   0.123  53.004  1.00  0.00     0.027 A 
HETATM   11  C16 UNL     1      23.860   0.023  53.558  1.00  0.00     0.022 A 
HETATM   12  C17 UNL     1      24.969   0.667  53.054  1.00  0.00     0.067 A 
ENDROOT
BRANCH  12  13
HETATM   13  N4  UNL     1      24.810   1.468  51.913  1.00  0.00    -0.354 N 
HETATM   14  H17 UNL     1      25.272   1.158  51.028  1.00  0.00     0.166 HD
BRANCH  13  15
HETATM   15  C18 UNL     1      24.058   2.684  51.865  1.00  0.00     0.034 A 
HETATM   16  C19 UNL     1      24.068   3.620  52.893  1.00  0.00     0.032 A 
HETATM   17  C20 UNL     1      23.320   4.775  52.785  1.00  0.00     0.046 A 
HETATM   18  C21 UNL     1      22.554   5.012  51.657  1.00  0.00     0.138 A 
HETATM   19  F1  UNL     1      21.819   6.162  51.568  1.00  0.00    -0.204 F 
HETATM   20  C22 UNL     1      22.514   4.105  50.606  1.00  0.00     0.074 A 
HETATM   21 CL1  UNL     1      21.541   4.419  49.184  1.00  0.00    -0.081 Cl
HETATM   22  C23 UNL     1      23.282   2.945  50.742  1.00  0.00     0.056 A 
ENDBRANCH  13  15
ENDBRANCH  12  13
BRANCH   9  23
HETATM   23  C8  UNL     1      20.186  -0.368  52.866  1.00  0.00     0.009 C 
HETATM   24  C9  UNL     1      19.935   0.291  51.729  1.00  0.00     0.004 C 
BRANCH  24  25
HETATM   25  C10 UNL     1      18.539   0.366  51.185  1.00  0.00     0.300 C 
BRANCH  25  26
HETATM   26  N3  UNL     1      17.835   1.545  51.582  1.00  0.00     0.096 N 
HETATM   27  C11 UNL     1      18.549   2.769  51.298  1.00  0.00     0.299 C 
HETATM   28  C12 UNL     1      17.600   3.946  51.387  1.00  0.00     0.198 C 
HETATM   29  O1  UNL     1      16.551   3.723  52.247  1.00  0.00    -0.388 OA
HETATM   30  C13 UNL     1      15.735   2.666  51.892  1.00  0.00     0.198 C 
HETATM   31  C14 UNL     1      16.477   1.585  51.140  1.00  0.00     0.299 C 
ENDBRANCH  25  26
ENDBRANCH  24  25
ENDBRANCH   9  23
TORSDOF 5
ENDMDL
MODEL 4
REMARK VINA RESULT:      -9.0      3.570      7.202
REMARK  5 active torsions:
REMARK  status: ('A' for Active; 'I' for Inactive)
REMARK    1  A    between atoms: C7_9  and  C8_10 
REMARK    2  A    between atoms: C9_11  and  C10_12 
REMARK    3  A    between atoms: C10_12  and  N3_13 
REMARK    4  A    between atoms: C17_21  and  N4_22 
REMARK    5  A    between atoms: N4_22  and  C18_23 
ROOT
HETATM    1  N1  UNL     1      22.978   7.238  46.398  1.00  0.00    -0.191 NA
HETATM    2  C1  UNL     1      22.713   6.224  46.887  1.00  0.00     0.103 C 
HETATM    3  C2  UNL     1      22.394   4.957  47.486  1.00  0.00     0.089 A 
HETATM    4  C3  UNL     1      21.483   4.104  46.871  1.00  0.00     0.142 A 
HETATM    5  N2  UNL     1      21.178   2.917  47.423  1.00  0.00    -0.259 NA
HETATM    6  C4  UNL     1      21.736   2.510  48.577  1.00  0.00     0.069 A 
HETATM    7  C5  UNL     1      21.417   1.291  49.134  1.00  0.00     0.033 A 
HETATM    8  C6  UNL     1      21.963   0.831  50.316  1.00  0.00     0.014 A 
HETATM    9  C7  UNL     1      22.888   1.634  50.991  1.00  0.00    -0.035 A 
HETATM   10  C15 UNL     1      23.196   2.854  50.418  1.00  0.00     0.027 A 
HETATM   11  C16 UNL     1      22.649   3.310  49.238  1.00  0.00     0.022 A 
HETATM   12  C17 UNL     1      22.961   4.528  48.672  1.00  0.00     0.067 A 
ENDROOT
BRANCH  12  13
HETATM   13  N4  UNL     1      23.886   5.349  49.335  1.00  0.00    -0.354 N 
HETATM   14  H17 UNL     1      23.536   5.958  50.108  1.00  0.00     0.166 HD
BRANCH  13  15
HETATM   15  C18 UNL     1      25.283   5.418  49.031  1.00  0.00     0.034 A 
HETATM   16  C19 UNL     1      26.151   4.350  49.217  1.00  0.00     0.032 A 
HETATM   17  C20 UNL     1      27.489   4.481  48.904  1.00  0.00     0.046 A 
HETATM   18  C21 UNL     1      27.978   5.675  48.403  1.00  0.00     0.138 A 
HETATM   19  F1  UNL     1      29.307   5.788  48.098  1.00  0.00    -0.204 F 
HETATM   20  C22 UNL     1      27.147   6.769  48.201  1.00  0.00     0.074 A 
HETATM   21 CL1  UNL     1      27.780   8.274  47.566  1.00  0.00    -0.081 Cl
HETATM   22  C23 UNL     1      25.797   6.607  48.526  1.00  0.00     0.056 A 
ENDBRANCH  13  15
ENDBRANCH  12  13
BRANCH   9  23
HETATM   23  C8  UNL     1      23.504   1.217  52.241  1.00  0.00     0.009 C 
HETATM   24  C9  UNL     1      24.787   0.877  52.415  1.00  0.00     0.004 C 
BRANCH  24  25
HETATM   25  C10 UNL     1      25.287   0.463  53.767  1.00  0.00     0.300 C 
BRANCH  25  26
HETATM   26  N3  UNL     1      26.592   0.963  54.070  1.00  0.00     0.096 N 
HETATM   27  C11 UNL     1      27.465  -0.021  54.668  1.00  0.00     0.299 C 
HETATM   28  C12 UNL     1      28.899   0.461  54.601  1.00  0.00     0.198 C 
HETATM   29  O1  UNL     1      29.003   1.830  54.589  1.00  0.00    -0.388 OA
HETATM   30  C13 UNL     1      28.397   2.441  53.507  1.00  0.00     0.198 C 
HETATM   31  C14 UNL     1      27.210   1.663  52.989  1.00  0.00     0.299 C 
ENDBRANCH  25  26
ENDBRANCH  24  25
ENDBRANCH   9  23
TORSDOF 5
ENDMDL
MODEL 5
REMARK VINA RESULT:      -8.8      3.487      5.075
REMARK  5 active torsions:
REMARK  status: ('A' for Active; 'I' for Inactive)
REMARK    1  A    between atoms: C7_9  and  C8_10 
REMARK    2  A    between atoms: C9_11  and  C10_12 
REMARK    3  A    between atoms: C10_12  and  N3_13 
REMARK    4  A    between atoms: C17_21  and  N4_22 
REMARK    5  A    between atoms: N4_22  and  C18_23 
ROOT
HETATM    1  N1  UNL     1      22.042  -1.588  55.261  1.00  0.00    -0.191 NA
HETATM    2  C1  UNL     1      22.840  -1.059  54.613  1.00  0.00     0.103 C 
HETATM    3  C2  UNL     1      23.827  -0.410  53.794  1.00  0.00     0.089 A 
HETATM    4  C3  UNL     1      25.108  -0.944  53.690  1.00  0.00     0.142 A 
HETATM    5  N2  UNL     1      26.039  -0.345  52.927  1.00  0.00    -0.259 NA
HETATM    6  C4  UNL     1      25.772   0.781  52.242  1.00  0.00     0.069 A 
HETATM    7  C5  UNL     1      26.733   1.387  51.462  1.00  0.00     0.033 A 
HETATM    8  C6  UNL     1      26.508   2.542  50.742  1.00  0.00     0.014 A 
HETATM    9  C7  UNL     1      25.242   3.138  50.797  1.00  0.00    -0.035 A 
HETATM   10  C15 UNL     1      24.291   2.516  51.584  1.00  0.00     0.027 A 
HETATM   11  C16 UNL     1      24.520   1.362  52.303  1.00  0.00     0.022 A 
HETATM   12  C17 UNL     1      23.565   0.748  53.085  1.00  0.00     0.067 A 
ENDROOT
BRANCH  12  13
HETATM   13  N4  UNL     1      22.290   1.330  53.155  1.00  0.00    -0.354 N 
HETATM   14  H17 UNL     1      22.136   2.091  53.854  1.00  0.00     0.166 HD
BRANCH  13  15
HETATM   15  C18 UNL     1      21.176   0.959  52.337  1.00  0.00     0.034 A 
HETATM   16  C19 UNL     1      21.120   1.217  50.973  1.00  0.00     0.032 A 
HETATM   17  C20 UNL     1      20.015   0.832  50.240  1.00  0.00     0.046 A 
HETATM   18  C21 UNL     1      18.955   0.188  50.854  1.00  0.00     0.138 A 
HETATM   19  F1  UNL     1      17.868  -0.186  50.112  1.00  0.00    -0.204 F 
HETATM   20  C22 UNL     1      18.969  -0.090  52.215  1.00  0.00     0.074 A 
HETATM   21 CL1  UNL     1      17.620  -0.907  52.978  1.00  0.00    -0.081 Cl
HETATM   22  C23 UNL     1      20.100   0.310  52.931  1.00  0.00     0.056 A 
ENDBRANCH  13  15
ENDBRANCH  12  13
BRANCH   9  23
HETATM   23  C8  UNL     1      24.930   4.355  50.066  1.00  0.00     0.009 C 
HETATM   24  C9  UNL     1      25.815   5.203  49.526  1.00  0.00     0.004 C 
BRANCH  24  25
HETATM   25  C10 UNL     1      25.347   6.427  48.796  1.00  0.00     0.300 C 
BRANCH  25  26
HETATM   26  N3  UNL     1      26.284   7.505  48.831  1.00  0.00     0.096 N 
HETATM   27  C11 UNL     1      26.141   8.360  49.988  1.00  0.00     0.299 C 
HETATM   28  C12 UNL     1      27.379   9.217  50.146  1.00  0.00     0.198 C 
HETATM   29  O1  UNL     1      28.017   9.459  48.954  1.00  0.00    -0.388 OA
HETATM   30  C13 UNL     1      28.480   8.325  48.312  1.00  0.00     0.198 C 
HETATM   31  C14 UNL     1      27.637   7.106  48.607  1.00  0.00     0.299 C 
ENDBRANCH  25  26
ENDBRANCH  24  25
ENDBRANCH   9  23
TORSDOF 5
ENDMDL
MODEL 6
REMARK VINA RESULT:      -8.7      3.002      3.992
REMARK  5 active torsions:
REMARK  status: ('A' for Active; 'I' for Inactive)
REMARK    1  A    between atoms: C7_9  and  C8_10 
REMARK    2  A    between atoms: C9_11  and  C10_12 
REMARK    3  A    between atoms: C10_12  and  N3_13 
REMARK    4  A    between atoms: C17_21  and  N4_22 
REMARK    5  A    between atoms: N4_22  and  C18_23 
ROOT
HETATM    1  N1  UNL     1      21.237   1.412  52.862  1.00  0.00    -0.191 NA
HETATM    2  C1  UNL     1      21.820   2.271  52.351  1.00  0.00     0.103 C 
HETATM    3  C2  UNL     1      22.551   3.342  51.732  1.00  0.00     0.089 A 
HETATM    4  C3  UNL     1      22.043   4.637  51.750  1.00  0.00     0.142 A 
HETATM    5  N2  UNL     1      22.719   5.645  51.174  1.00  0.00    -0.259 NA
HETATM    6  C4  UNL     1      23.901   5.445  50.563  1.00  0.00     0.069 A 
HETATM    7  C5  UNL     1      24.587   6.486  49.975  1.00  0.00     0.033 A 
HETATM    8  C6  UNL     1      25.801   6.329  49.337  1.00  0.00     0.014 A 
HETATM    9  C7  UNL     1      26.375   5.055  49.279  1.00  0.00    -0.035 A 
HETATM   10  C15 UNL     1      25.673   4.023  49.874  1.00  0.00     0.027 A 
HETATM   11  C16 UNL     1      24.461   4.182  50.509  1.00  0.00     0.022 A 
HETATM   12  C17 UNL     1      23.767   3.148  51.101  1.00  0.00     0.067 A 
ENDROOT
BRANCH  12  13
HETATM   13  N4  UNL     1      24.325   1.862  51.052  1.00  0.00    -0.354 N 
HETATM   14  H17 UNL     1      24.043   1.234  50.266  1.00  0.00     0.166 HD
BRANCH  13  15
HETATM   15  C18 UNL     1      25.258   1.338  52.003  1.00  0.00     0.034 A 
HETATM   16  C19 UNL     1      26.623   1.591  51.942  1.00  0.00     0.032 A 
HETATM   17  C20 UNL     1      27.470   1.056  52.891  1.00  0.00     0.046 A 
HETATM   18  C21 UNL     1      26.970   0.264  53.910  1.00  0.00     0.138 A 
HETATM   19  F1  UNL     1      27.825  -0.258  54.843  1.00  0.00    -0.204 F 
HETATM   20  C22 UNL     1      25.613  -0.015  54.011  1.00  0.00     0.074 A 
HETATM   21 CL1  UNL     1      24.995  -1.018  55.307  1.00  0.00    -0.081 Cl
HETATM   22  C23 UNL     1      24.780   0.541  53.036  1.00  0.00     0.056 A 
ENDBRANCH  13  15
ENDBRANCH  12  13
BRANCH   9  23
HETATM   23  C8  UNL     1      27.651   4.813  48.624  1.00  0.00     0.009 C 
HETATM   24  C9  UNL     1      28.652   5.692  48.493  1.00  0.00     0.004 C 
BRANCH  24  25
HETATM   25  C10 UNL     1      29.918   5.303  47.789  1.00  0.00     0.300 C 
BRANCH  25  26
HETATM   26  N3  UNL     1      31.030   6.142  48.110  1.00  0.00     0.096 N 
HETATM   27  C11 UNL     1      30.653   7.389  48.737  1.00  0.00     0.299 C 
HETATM   28  C12 UNL     1      31.869   8.026  49.378  1.00  0.00     0.198 C 
HETATM   29  O1  UNL     1      33.043   7.679  48.757  1.00  0.00    -0.388 OA
HETATM   30  C13 UNL     1      33.327   6.327  48.782  1.00  0.00     0.198 C 
HETATM   31  C14 UNL     1      32.081   5.472  48.807  1.00  0.00     0.299 C 
ENDBRANCH  25  26
ENDBRANCH  24  25
ENDBRANCH   9  23
TORSDOF 5
ENDMDL
MODEL 7
REMARK VINA RESULT:      -8.7      4.845      8.812
REMARK  5 active torsions:
REMARK  status: ('A' for Active; 'I' for Inactive)
REMARK    1  A    between atoms: C7_9  and  C8_10 
REMARK    2  A    between atoms: C9_11  and  C10_12 
REMARK    3  A    between atoms: C10_12  and  N3_13 
REMARK    4  A    between atoms: C17_21  and  N4_22 
REMARK    5  A    between atoms: N4_22  and  C18_23 
ROOT
HETATM    1  N1  UNL     1      26.863   3.164  50.323  1.00  0.00    -0.191 NA
HETATM    2  C1  UNL     1      26.436   2.443  51.119  1.00  0.00     0.103 C 
HETATM    3  C2  UNL     1      25.903   1.559  52.120  1.00  0.00     0.089 A 
HETATM    4  C3  UNL     1      26.737   1.032  53.101  1.00  0.00     0.142 A 
HETATM    5  N2  UNL     1      26.249   0.204  54.041  1.00  0.00    -0.259 NA
HETATM    6  C4  UNL     1      24.949  -0.142  54.071  1.00  0.00     0.069 A 
HETATM    7  C5  UNL     1      24.459  -0.991  55.039  1.00  0.00     0.033 A 
HETATM    8  C6  UNL     1      23.135  -1.375  55.111  1.00  0.00     0.014 A 
HETATM    9  C7  UNL     1      22.236  -0.884  54.157  1.00  0.00    -0.035 A 
HETATM   10  C15 UNL     1      22.746  -0.034  53.194  1.00  0.00     0.027 A 
HETATM   11  C16 UNL     1      24.068   0.347  53.125  1.00  0.00     0.022 A 
HETATM   12  C17 UNL     1      24.569   1.196  52.161  1.00  0.00     0.067 A 
ENDROOT
BRANCH  12  13
HETATM   13  N4  UNL     1      23.684   1.698  51.195  1.00  0.00    -0.354 N 
HETATM   14  H17 UNL     1      23.387   1.061  50.422  1.00  0.00     0.166 HD
BRANCH  13  15
HETATM   15  C18 UNL     1      23.153   3.027  51.186  1.00  0.00     0.034 A 
HETATM   16  C19 UNL     1      22.652   3.649  52.323  1.00  0.00     0.032 A 
HETATM   17  C20 UNL     1      22.152   4.934  52.247  1.00  0.00     0.046 A 
HETATM   18  C21 UNL     1      22.145   5.613  51.041  1.00  0.00     0.138 A 
HETATM   19  F1  UNL     1      21.646   6.886  50.984  1.00  0.00    -0.204 F 
HETATM   20  C22 UNL     1      22.635   5.030  49.879  1.00  0.00     0.074 A 
HETATM   21 CL1  UNL     1      22.620   5.902  48.360  1.00  0.00    -0.081 Cl
HETATM   22  C23 UNL     1      23.135   3.729  49.987  1.00  0.00     0.056 A 
ENDBRANCH  13  15
ENDBRANCH  12  13
BRANCH   9  23
HETATM   23  C8  UNL     1      20.827  -1.244  54.168  1.00  0.00     0.009 C 
HETATM   24  C9  UNL     1      19.892  -0.809  53.315  1.00  0.00     0.004 C 
BRANCH  24  25
HETATM   25  C10 UNL     1      18.470  -1.266  53.447  1.00  0.00     0.300 C 
BRANCH  25  26
HETATM   26  N3  UNL     1      17.652  -0.917  52.328  1.00  0.00     0.096 N 
HETATM   27  C11 UNL     1      16.301  -0.552  52.689  1.00  0.00     0.299 C 
HETATM   28  C12 UNL     1      15.636   0.157  51.526  1.00  0.00     0.198 C 
HETATM   29  O1  UNL     1      16.144  -0.222  50.308  1.00  0.00    -0.388 OA
HETATM   30  C13 UNL     1      17.488   0.052  50.138  1.00  0.00     0.198 C 
HETATM   31  C14 UNL     1      18.257   0.023  51.438  1.00  0.00     0.299 C 
ENDBRANCH  25  26
ENDBRANCH  24  25
ENDBRANCH   9  23
TORSDOF 5
ENDMDL
MODEL 8
REMARK VINA RESULT:      -8.7      3.915      6.740
REMARK  5 active torsions:
REMARK  status: ('A' for Active; 'I' for Inactive)
REMARK    1  A    between atoms: C7_9  and  C8_10 
REMARK    2  A    between atoms: C9_11  and  C10_12 
REMARK    3  A    between atoms: C10_12  and  N3_13 
REMARK    4  A    between atoms: C17_21  and  N4_22 
REMARK    5  A    between atoms: N4_22  and  C18_23 
ROOT
HETATM    1  N1  UNL     1      18.183   4.426  50.684  1.00  0.00    -0.191 NA
HETATM    2  C1  UNL     1      18.530   3.439  51.175  1.00  0.00     0.103 C 
HETATM    3  C2  UNL     1      18.967   2.205  51.770  1.00  0.00     0.089 A 
HETATM    4  C3  UNL     1      18.134   1.091  51.759  1.00  0.00     0.142 A 
HETATM    5  N2  UNL     1      18.533  -0.067  52.313  1.00  0.00    -0.259 NA
HETATM    6  C4  UNL     1      19.740  -0.193  52.894  1.00  0.00     0.069 A 
HETATM    7  C5  UNL     1      20.140  -1.384  53.458  1.00  0.00     0.033 A 
HETATM    8  C6  UNL     1      21.367  -1.562  54.065  1.00  0.00     0.014 A 
HETATM    9  C7  UNL     1      22.259  -0.485  54.114  1.00  0.00    -0.035 A 
HETATM   10  C15 UNL     1      21.841   0.702  53.542  1.00  0.00     0.027 A 
HETATM   11  C16 UNL     1      20.615   0.876  52.938  1.00  0.00     0.022 A 
HETATM   12  C17 UNL     1      20.205   2.064  52.369  1.00  0.00     0.067 A 
ENDROOT
BRANCH  12  13
HETATM   13  N4  UNL     1      21.085   3.156  52.409  1.00  0.00    -0.354 N 
HETATM   14  H17 UNL     1      20.983   3.840  53.192  1.00  0.00     0.166 HD
BRANCH  13  15
HETATM   15  C18 UNL     1      22.119   3.408  51.453  1.00  0.00     0.034 A 
HETATM   16  C19 UNL     1      22.418   2.535  50.414  1.00  0.00     0.032 A 
HETATM   17  C20 UNL     1      23.430   2.837  49.524  1.00  0.00     0.046 A 
HETATM   18  C21 UNL     1      24.154   4.009  49.657  1.00  0.00     0.138 A 
HETATM   19  F1  UNL     1      25.152   4.292  48.766  1.00  0.00    -0.204 F 
HETATM   20  C22 UNL     1      23.890   4.910  50.680  1.00  0.00     0.074 A 
HETATM   21 CL1  UNL     1      24.814   6.390  50.836  1.00  0.00    -0.081 Cl
HETATM   22  C23 UNL     1      22.860   4.579  51.565  1.00  0.00     0.056 A 
ENDBRANCH  13  15
ENDBRANCH  12  13
BRANCH   9  23
HETATM   23  C8  UNL     1      23.569  -0.596  54.736  1.00  0.00     0.009 C 
HETATM   24  C9  UNL     1      24.747  -0.361  54.146  1.00  0.00     0.004 C 
BRANCH  24  25
HETATM   25  C10 UNL     1      26.027  -0.517  54.913  1.00  0.00     0.300 C 
BRANCH  25  26
HETATM   26  N3  UNL     1      26.966   0.534  54.677  1.00  0.00     0.096 N 
HETATM   27  C11 UNL     1      28.337   0.155  54.933  1.00  0.00     0.299 C 
HETATM   28  C12 UNL     1      29.272   1.168  54.306  1.00  0.00     0.198 C 
HETATM   29  O1  UNL     1      28.715   2.419  54.206  1.00  0.00    -0.388 OA
HETATM   30  C13 UNL     1      27.583   2.480  53.415  1.00  0.00     0.198 C 
HETATM   31  C14 UNL     1      26.802   1.187  53.417  1.00  0.00     0.299 C 
ENDBRANCH  25  26
ENDBRANCH  24  25
ENDBRANCH   9  23
TORSDOF 5
ENDMDL
MODEL 9
REMARK VINA RESULT:      -8.4      4.693      8.301
REMARK  5 active torsions:
REMARK  status: ('A' for Active; 'I' for Inactive)
REMARK    1  A    between atoms: C7_9  and  C8_10 
REMARK    2  A    between atoms: C9_11  and  C10_12 
REMARK    3  A    between atoms: C10_12  and  N3_13 
REMARK    4  A    between atoms: C17_21  and  N4_22 
REMARK    5  A    between atoms: N4_22  and  C18_23 
ROOT
HETATM    1  N1  UNL     1      28.343   2.638  53.904  1.00  0.00    -0.191 NA
HETATM    2  C1  UNL     1      27.385   2.000  53.796  1.00  0.00     0.103 C 
HETATM    3  C2  UNL     1      26.191   1.208  53.679  1.00  0.00     0.089 A 
HETATM    4  C3  UNL     1      26.227  -0.155  53.953  1.00  0.00     0.142 A 
HETATM    5  N2  UNL     1      25.116  -0.904  53.846  1.00  0.00    -0.259 NA
HETATM    6  C4  UNL     1      23.938  -0.371  53.474  1.00  0.00     0.069 A 
HETATM    7  C5  UNL     1      22.805  -1.148  53.368  1.00  0.00     0.033 A 
HETATM    8  C6  UNL     1      21.575  -0.647  52.991  1.00  0.00     0.014 A 
HETATM    9  C7  UNL     1      21.461   0.717  52.699  1.00  0.00    -0.035 A 
HETATM   10  C15 UNL     1      22.608   1.480  52.812  1.00  0.00     0.027 A 
HETATM   11  C16 UNL     1      23.835   0.977  53.188  1.00  0.00     0.022 A 
HETATM   12  C17 UNL     1      24.974   1.745  53.298  1.00  0.00     0.067 A 
ENDROOT
BRANCH  12  13
HETATM   13  N4  UNL     1      24.881   3.115  53.009  1.00  0.00    -0.354 N 
HETATM   14  H17 UNL     1      24.984   3.791  53.799  1.00  0.00     0.166 HD
BRANCH  13  15
HETATM   15  C18 UNL     1      24.655   3.662  51.707  1.00  0.00     0.034 A 
HETATM   16  C19 UNL     1      25.251   3.154  50.558  1.00  0.00     0.032 A 
HETATM   17  C20 UNL     1      24.991   3.728  49.330  1.00  0.00     0.046 A 
HETATM   18  C21 UNL     1      24.138   4.814  49.230  1.00  0.00     0.138 A 
HETATM   19  F1  UNL     1      23.892   5.371  48.005  1.00  0.00    -0.204 F 
HETATM   20  C22 UNL     1      23.522   5.355  50.351  1.00  0.00     0.074 A 
HETATM   21 CL1  UNL     1      22.444   6.729  50.209  1.00  0.00    -0.081 Cl
HETATM   22  C23 UNL     1      23.802   4.752  51.580  1.00  0.00     0.056 A 
ENDBRANCH  13  15
ENDBRANCH  12  13
BRANCH   9  23
HETATM   23  C8  UNL     1      20.199   1.317  52.296  1.00  0.00     0.009 C 
HETATM   24  C9  UNL     1      19.445   0.947  51.253  1.00  0.00     0.004 C 
BRANCH  24  25
HETATM   25  C10 UNL     1      18.160   1.660  50.953  1.00  0.00     0.300 C 
BRANCH  25  26
HETATM   26  N3  UNL     1      17.066   1.230  51.767  1.00  0.00     0.096 N 
HETATM   27  C11 UNL     1      15.892   2.065  51.646  1.00  0.00     0.299 C 
HETATM   28  C12 UNL     1      14.691   1.342  52.221  1.00  0.00     0.198 C 
HETATM   29  O1  UNL     1      15.028   0.442  53.202  1.00  0.00    -0.388 OA
HETATM   30  C13 UNL     1      15.859  -0.579  52.782  1.00  0.00     0.198 C 
HETATM   31  C14 UNL     1      16.766  -0.161  51.648  1.00  0.00     0.299 C 
ENDBRANCH  25  26
ENDBRANCH  24  25
ENDBRANCH   9  23
TORSDOF 5
ENDMDL
