MODEL 1
REMARK VINA RESULT:      -6.7      0.000      0.000
REMARK  3 active torsions:
REMARK  status: ('A' for Active; 'I' for Inactive)
REMARK    1  A    between atoms: C14_18  and  C15_19 
REMARK    2  A    between atoms: C15_19  and  C16_20 
REMARK    3  A    between atoms: C16_20  and  O4_21 
ROOT
HETATM    1  O1  UNL     1      21.390   6.211  51.166  1.00  0.00    -0.293 OA
HETATM    2  C1  UNL     1      21.474   4.949  51.298  1.00  0.00     0.156 C 
HETATM    3  C2  UNL     1      20.547   3.863  50.815  1.00  0.00     0.093 C 
HETATM    4  C3  UNL     1      19.704   3.343  51.945  1.00  0.00     0.082 C 
HETATM    5  S1  UNL     1      19.051   1.673  51.600  1.00  0.00    -0.153 SA
HETATM    6  C4  UNL     1      20.424   0.488  52.023  1.00  0.00     0.041 A 
HETATM    7  C5  UNL     1      20.721   0.346  50.747  1.00  0.00     0.028 A 
HETATM    8  C6  UNL     1      21.486   0.023  51.892  1.00  0.00     0.072 A 
HETATM    9  C7  UNL     1      22.301  -0.323  52.961  1.00  0.00     0.055 A 
HETATM   10  C8  UNL     1      21.475   0.047  54.036  1.00  0.00     0.030 A 
HETATM   11  C9  UNL     1      20.334   0.541  53.378  1.00  0.00    -0.003 A 
HETATM   12  O2  UNL     1      23.396  -0.788  53.662  1.00  0.00    -0.330 OA
HETATM   13  C10 UNL     1      24.728  -0.500  53.399  1.00  0.00     0.350 C 
HETATM   14  O3  UNL     1      25.099   0.877  53.504  1.00  0.00    -0.338 OA
HETATM   15  C11 UNL     1      24.303   1.903  53.015  1.00  0.00     0.137 C 
HETATM   16  C12 UNL     1      24.556   3.194  53.271  1.00  0.00     0.025 C 
HETATM   17  C13 UNL     1      23.779   4.366  52.816  1.00  0.00     0.013 C 
HETATM   18  C14 UNL     1      22.688   4.577  52.094  1.00  0.00    -0.010 C 
ENDROOT
BRANCH  18  19
HETATM   19  C15 UNL     1      22.993   3.523  51.032  1.00  0.00     0.068 C 
BRANCH  19  20
HETATM   20  C16 UNL     1      23.919   4.145  49.982  1.00  0.00     0.168 C 
BRANCH  20  21
HETATM   21  O4  UNL     1      24.914   3.282  49.595  1.00  0.00    -0.401 OA
HETATM   22  H18 UNL     1      25.330   3.554  48.717  1.00  0.00     0.209 HD
ENDBRANCH  20  21
ENDBRANCH  19  20
ENDBRANCH  18  19
TORSDOF 3
ENDMDL
MODEL 2
REMARK VINA RESULT:      -6.6      2.401      4.498
REMARK  3 active torsions:
REMARK  status: ('A' for Active; 'I' for Inactive)
REMARK    1  A    between atoms: C14_18  and  C15_19 
REMARK    2  A    between atoms: C15_19  and  C16_20 
REMARK    3  A    between atoms: C16_20  and  O4_21 
ROOT
HETATM    1  O1  UNL     1      22.559   3.444  48.849  1.00  0.00    -0.293 OA
HETATM    2  C1  UNL     1      23.077   2.967  49.907  1.00  0.00     0.156 C 
HETATM    3  C2  UNL     1      24.331   3.374  50.639  1.00  0.00     0.093 C 
HETATM    4  C3  UNL     1      25.448   2.411  50.352  1.00  0.00     0.082 C 
HETATM    5  S1  UNL     1      26.744   2.464  51.638  1.00  0.00    -0.153 SA
HETATM    6  C4  UNL     1      26.125   1.398  53.033  1.00  0.00     0.041 A 
HETATM    7  C5  UNL     1      25.773   2.466  53.720  1.00  0.00     0.028 A 
HETATM    8  C6  UNL     1      25.385   1.117  53.891  1.00  0.00     0.072 A 
HETATM    9  C7  UNL     1      24.954  -0.181  54.127  1.00  0.00     0.055 A 
HETATM   10  C8  UNL     1      25.643  -0.864  53.111  1.00  0.00     0.030 A 
HETATM   11  C9  UNL     1      26.345   0.178  52.476  1.00  0.00    -0.003 A 
HETATM   12  O2  UNL     1      24.286  -1.243  54.704  1.00  0.00    -0.330 OA
HETATM   13  C10 UNL     1      22.948  -1.274  55.073  1.00  0.00     0.350 C 
HETATM   14  O3  UNL     1      22.005  -1.107  54.011  1.00  0.00    -0.338 OA
HETATM   15  C11 UNL     1      22.180  -0.173  52.999  1.00  0.00     0.137 C 
HETATM   16  C12 UNL     1      21.399  -0.138  51.910  1.00  0.00     0.025 C 
HETATM   17  C13 UNL     1      21.495   0.798  50.771  1.00  0.00     0.013 C 
HETATM   18  C14 UNL     1      22.272   1.811  50.418  1.00  0.00    -0.010 C 
ENDROOT
BRANCH  18  19
HETATM   19  C15 UNL     1      22.356   2.439  51.808  1.00  0.00     0.068 C 
BRANCH  19  20
HETATM   20  C16 UNL     1      21.202   3.435  51.960  1.00  0.00     0.168 C 
BRANCH  20  21
HETATM   21  O4  UNL     1      20.355   3.090  52.984  1.00  0.00    -0.401 OA
HETATM   22  H18 UNL     1      19.816   3.878  53.311  1.00  0.00     0.209 HD
ENDBRANCH  20  21
ENDBRANCH  19  20
ENDBRANCH  18  19
TORSDOF 3
ENDMDL
MODEL 3
REMARK VINA RESULT:      -6.6      1.813      5.095
REMARK  3 active torsions:
REMARK  status: ('A' for Active; 'I' for Inactive)
REMARK    1  A    between atoms: C14_18  and  C15_19 
REMARK    2  A    between atoms: C15_19  and  C16_20 
REMARK    3  A    between atoms: C16_20  and  O4_21 
ROOT
HETATM    1  O1  UNL     1      23.938  -1.095  54.123  1.00  0.00    -0.293 OA
HETATM    2  C1  UNL     1      23.832  -0.009  53.473  1.00  0.00     0.156 C 
HETATM    3  C2  UNL     1      22.687   0.969  53.403  1.00  0.00     0.093 C 
HETATM    4  C3  UNL     1      21.925   0.802  52.119  1.00  0.00     0.082 C 
HETATM    5  S1  UNL     1      20.970   2.299  51.691  1.00  0.00    -0.153 SA
HETATM    6  C4  UNL     1      22.176   3.460  50.874  1.00  0.00     0.041 A 
HETATM    7  C5  UNL     1      22.278   4.165  51.983  1.00  0.00     0.028 A 
HETATM    8  C6  UNL     1      23.122   4.143  50.849  1.00  0.00     0.072 A 
HETATM    9  C7  UNL     1      24.002   4.181  49.776  1.00  0.00     0.055 A 
HETATM   10  C8  UNL     1      23.394   3.248  48.919  1.00  0.00     0.030 A 
HETATM   11  C9  UNL     1      22.272   2.845  49.667  1.00  0.00    -0.003 A 
HETATM   12  O2  UNL     1      25.089   4.531  49.000  1.00  0.00    -0.330 OA
HETATM   13  C10 UNL     1      26.404   4.650  49.426  1.00  0.00     0.350 C 
HETATM   14  O3  UNL     1      27.005   3.456  49.934  1.00  0.00    -0.338 OA
HETATM   15  C11 UNL     1      26.329   2.580  50.771  1.00  0.00     0.137 C 
HETATM   16  C12 UNL     1      26.819   1.376  51.099  1.00  0.00     0.025 C 
HETATM   17  C13 UNL     1      26.190   0.360  51.968  1.00  0.00     0.013 C 
HETATM   18  C14 UNL     1      25.064   0.245  52.656  1.00  0.00    -0.010 C 
ENDROOT
BRANCH  18  19
HETATM   19  C15 UNL     1      25.052   1.677  53.185  1.00  0.00     0.068 C 
BRANCH  19  20
HETATM   20  C16 UNL     1      26.064   1.780  54.331  1.00  0.00     0.168 C 
BRANCH  20  21
HETATM   21  O4  UNL     1      26.897   2.861  54.188  1.00  0.00    -0.401 OA
HETATM   22  H18 UNL     1      26.995   3.379  55.048  1.00  0.00     0.209 HD
ENDBRANCH  20  21
ENDBRANCH  19  20
ENDBRANCH  18  19
TORSDOF 3
ENDMDL
MODEL 4
REMARK VINA RESULT:      -6.2      8.984     11.334
REMARK  3 active torsions:
REMARK  status: ('A' for Active; 'I' for Inactive)
REMARK    1  A    between atoms: C14_18  and  C15_19 
REMARK    2  A    between atoms: C15_19  and  C16_20 
REMARK    3  A    between atoms: C16_20  and  O4_21 
ROOT
HETATM    1  O1  UNL     1      25.614  10.075  47.198  1.00  0.00    -0.293 OA
HETATM    2  C1  UNL     1      26.847   9.867  47.424  1.00  0.00     0.156 C 
HETATM    3  C2  UNL     1      28.002  10.836  47.457  1.00  0.00     0.093 C 
HETATM    4  C3  UNL     1      28.812  10.738  46.195  1.00  0.00     0.082 C 
HETATM    5  S1  UNL     1      30.506  11.381  46.420  1.00  0.00    -0.153 SA
HETATM    6  C4  UNL     1      31.480  10.001  47.203  1.00  0.00     0.041 A 
HETATM    7  C5  UNL     1      31.389  10.580  48.383  1.00  0.00     0.028 A 
HETATM    8  C6  UNL     1      31.729   9.246  48.058  1.00  0.00     0.072 A 
HETATM    9  C7  UNL     1      32.072   7.922  47.826  1.00  0.00     0.055 A 
HETATM   10  C8  UNL     1      32.005   7.887  46.422  1.00  0.00     0.030 A 
HETATM   11  C9  UNL     1      31.632   9.208  46.110  1.00  0.00    -0.003 A 
HETATM   12  O2  UNL     1      32.431   6.611  48.070  1.00  0.00    -0.330 OA
HETATM   13  C10 UNL     1      31.880   5.769  49.026  1.00  0.00     0.350 C 
HETATM   14  O3  UNL     1      30.488   5.481  48.875  1.00  0.00    -0.338 OA
HETATM   15  C11 UNL     1      29.559   6.454  48.531  1.00  0.00     0.137 C 
HETATM   16  C12 UNL     1      28.292   6.157  48.211  1.00  0.00     0.025 C 
HETATM   17  C13 UNL     1      27.223   7.100  47.821  1.00  0.00     0.013 C 
HETATM   18  C14 UNL     1      27.108   8.408  47.651  1.00  0.00    -0.010 C 
ENDROOT
BRANCH  18  19
HETATM   19  C15 UNL     1      27.934   8.802  48.872  1.00  0.00     0.068 C 
BRANCH  19  20
HETATM   20  C16 UNL     1      27.003   8.870  50.087  1.00  0.00     0.168 C 
BRANCH  20  21
HETATM   21  O4  UNL     1      27.545   9.606  51.111  1.00  0.00    -0.401 OA
HETATM   22  H18 UNL     1      27.135  10.526  51.173  1.00  0.00     0.209 HD
ENDBRANCH  20  21
ENDBRANCH  19  20
ENDBRANCH  18  19
TORSDOF 3
ENDMDL
MODEL 5
REMARK VINA RESULT:      -6.1      2.701      4.838
REMARK  3 active torsions:
REMARK  status: ('A' for Active; 'I' for Inactive)
REMARK    1  A    between atoms: C14_18  and  C15_19 
REMARK    2  A    between atoms: C15_19  and  C16_20 
REMARK    3  A    between atoms: C16_20  and  O4_21 
ROOT
HETATM    1  O1  UNL     1      27.091   4.860  48.547  1.00  0.00    -0.293 OA
HETATM    2  C1  UNL     1      26.311   4.395  49.436  1.00  0.00     0.156 C 
HETATM    3  C2  UNL     1      26.626   3.621  50.692  1.00  0.00     0.093 C 
HETATM    4  C3  UNL     1      26.338   2.159  50.499  1.00  0.00     0.082 C 
HETATM    5  S1  UNL     1      26.094   1.296  52.090  1.00  0.00    -0.153 SA
HETATM    6  C4  UNL     1      24.329   1.622  52.585  1.00  0.00     0.041 A 
HETATM    7  C5  UNL     1      24.720   2.540  53.447  1.00  0.00     0.028 A 
HETATM    8  C6  UNL     1      23.436   2.306  52.900  1.00  0.00     0.072 A 
HETATM    9  C7  UNL     1      22.148   2.145  52.411  1.00  0.00     0.055 A 
HETATM   10  C8  UNL     1      22.337   1.043  51.560  1.00  0.00     0.030 A 
HETATM   11  C9  UNL     1      23.710   0.778  51.719  1.00  0.00    -0.003 A 
HETATM   12  O2  UNL     1      20.799   2.361  52.208  1.00  0.00    -0.330 OA
HETATM   13  C10 UNL     1      20.184   3.586  51.986  1.00  0.00     0.350 C 
HETATM   14  O3  UNL     1      20.592   4.282  50.806  1.00  0.00    -0.338 OA
HETATM   15  C11 UNL     1      21.919   4.356  50.406  1.00  0.00     0.137 C 
HETATM   16  C12 UNL     1      22.284   4.847  49.213  1.00  0.00     0.025 C 
HETATM   17  C13 UNL     1      23.655   4.967  48.677  1.00  0.00     0.013 C 
HETATM   18  C14 UNL     1      24.880   4.676  49.089  1.00  0.00    -0.010 C 
ENDROOT
BRANCH  18  19
HETATM   19  C15 UNL     1      24.681   5.149  50.527  1.00  0.00     0.068 C 
BRANCH  19  20
HETATM   20  C16 UNL     1      24.872   6.668  50.570  1.00  0.00     0.168 C 
BRANCH  20  21
HETATM   21  O4  UNL     1      24.637   7.182  51.820  1.00  0.00    -0.401 OA
HETATM   22  H18 UNL     1      25.365   7.818  52.110  1.00  0.00     0.209 HD
ENDBRANCH  20  21
ENDBRANCH  19  20
ENDBRANCH  18  19
TORSDOF 3
ENDMDL
MODEL 6
REMARK VINA RESULT:      -6.1      1.880      4.676
REMARK  3 active torsions:
REMARK  status: ('A' for Active; 'I' for Inactive)
REMARK    1  A    between atoms: C14_18  and  C15_19 
REMARK    2  A    between atoms: C15_19  and  C16_20 
REMARK    3  A    between atoms: C16_20  and  O4_21 
ROOT
HETATM    1  O1  UNL     1      26.230  -0.510  52.889  1.00  0.00    -0.293 OA
HETATM    2  C1  UNL     1      25.040  -0.079  53.000  1.00  0.00     0.156 C 
HETATM    3  C2  UNL     1      23.933  -0.520  53.924  1.00  0.00     0.093 C 
HETATM    4  C3  UNL     1      22.938  -1.374  53.189  1.00  0.00     0.082 C 
HETATM    5  S1  UNL     1      21.318  -1.412  54.029  1.00  0.00    -0.153 SA
HETATM    6  C4  UNL     1      20.433   0.142  53.509  1.00  0.00     0.041 A 
HETATM    7  C5  UNL     1      20.719   0.714  54.662  1.00  0.00     0.028 A 
HETATM    8  C6  UNL     1      20.294   1.299  53.447  1.00  0.00     0.072 A 
HETATM    9  C7  UNL     1      19.881   1.953  52.294  1.00  0.00     0.055 A 
HETATM   10  C8  UNL     1      19.733   0.860  51.424  1.00  0.00     0.030 A 
HETATM   11  C9  UNL     1      20.093  -0.224  52.246  1.00  0.00    -0.003 A 
HETATM   12  O2  UNL     1      19.524   2.976  51.438  1.00  0.00    -0.330 OA
HETATM   13  C10 UNL     1      20.188   4.184  51.274  1.00  0.00     0.350 C 
HETATM   14  O3  UNL     1      21.532   4.096  50.795  1.00  0.00    -0.338 OA
HETATM   15  C11 UNL     1      22.426   3.140  51.257  1.00  0.00     0.137 C 
HETATM   16  C12 UNL     1      23.621   2.937  50.684  1.00  0.00     0.025 C 
HETATM   17  C13 UNL     1      24.646   1.949  51.079  1.00  0.00     0.013 C 
HETATM   18  C14 UNL     1      24.773   1.010  52.005  1.00  0.00    -0.010 C 
ENDROOT
BRANCH  18  19
HETATM   19  C15 UNL     1      24.154   1.821  53.141  1.00  0.00     0.068 C 
BRANCH  19  20
HETATM   20  C16 UNL     1      25.188   2.839  53.631  1.00  0.00     0.168 C 
BRANCH  20  21
HETATM   21  O4  UNL     1      26.227   2.238  54.298  1.00  0.00    -0.401 OA
HETATM   22  H18 UNL     1      25.981   1.317  54.630  1.00  0.00     0.209 HD
ENDBRANCH  20  21
ENDBRANCH  19  20
ENDBRANCH  18  19
TORSDOF 3
ENDMDL
MODEL 7
REMARK VINA RESULT:      -5.9      2.262      4.372
REMARK  3 active torsions:
REMARK  status: ('A' for Active; 'I' for Inactive)
REMARK    1  A    between atoms: C14_18  and  C15_19 
REMARK    2  A    between atoms: C15_19  and  C16_20 
REMARK    3  A    between atoms: C16_20  and  O4_21 
ROOT
HETATM    1  O1  UNL     1      20.466   4.087  47.681  1.00  0.00    -0.293 OA
HETATM    2  C1  UNL     1      21.096   3.812  48.750  1.00  0.00     0.156 C 
HETATM    3  C2  UNL     1      22.140   4.609  49.490  1.00  0.00     0.093 C 
HETATM    4  C3  UNL     1      23.513   4.058  49.227  1.00  0.00     0.082 C 
HETATM    5  S1  UNL     1      24.703   4.539  50.526  1.00  0.00    -0.153 SA
HETATM    6  C4  UNL     1      24.445   3.340  51.927  1.00  0.00     0.041 A 
HETATM    7  C5  UNL     1      23.755   4.241  52.597  1.00  0.00     0.028 A 
HETATM    8  C6  UNL     1      23.824   2.840  52.779  1.00  0.00     0.072 A 
HETATM    9  C7  UNL     1      23.834   1.475  53.026  1.00  0.00     0.055 A 
HETATM   10  C8  UNL     1      24.721   1.045  52.025  1.00  0.00     0.030 A 
HETATM   11  C9  UNL     1      25.056   2.253  51.386  1.00  0.00    -0.003 A 
HETATM   12  O2  UNL     1      23.538   0.258  53.608  1.00  0.00    -0.330 OA
HETATM   13  C10 UNL     1      22.278  -0.203  53.963  1.00  0.00     0.350 C 
HETATM   14  O3  UNL     1      21.347  -0.359  52.890  1.00  0.00    -0.338 OA
HETATM   15  C11 UNL     1      21.223   0.574  51.869  1.00  0.00     0.137 C 
HETATM   16  C12 UNL     1      20.488   0.346  50.772  1.00  0.00     0.025 C 
HETATM   17  C13 UNL     1      20.291   1.253  49.622  1.00  0.00     0.013 C 
HETATM   18  C14 UNL     1      20.702   2.461  49.267  1.00  0.00    -0.010 C 
ENDROOT
BRANCH  18  19
HETATM   19  C15 UNL     1      20.559   3.092  50.649  1.00  0.00     0.068 C 
BRANCH  19  20
HETATM   20  C16 UNL     1      19.118   3.588  50.809  1.00  0.00     0.168 C 
BRANCH  20  21
HETATM   21  O4  UNL     1      18.711   3.575  52.120  1.00  0.00    -0.401 OA
HETATM   22  H18 UNL     1      17.957   2.922  52.275  1.00  0.00     0.209 HD
ENDBRANCH  20  21
ENDBRANCH  19  20
ENDBRANCH  18  19
TORSDOF 3
ENDMDL
MODEL 8
REMARK VINA RESULT:      -5.9      2.304      3.003
REMARK  3 active torsions:
REMARK  status: ('A' for Active; 'I' for Inactive)
REMARK    1  A    between atoms: C14_18  and  C15_19 
REMARK    2  A    between atoms: C15_19  and  C16_20 
REMARK    3  A    between atoms: C16_20  and  O4_21 
ROOT
HETATM    1  O1  UNL     1      23.486   7.376  49.223  1.00  0.00    -0.293 OA
HETATM    2  C1  UNL     1      23.212   6.135  49.256  1.00  0.00     0.156 C 
HETATM    3  C2  UNL     1      22.755   5.215  48.153  1.00  0.00     0.093 C 
HETATM    4  C3  UNL     1      21.280   4.952  48.259  1.00  0.00     0.082 C 
HETATM    5  S1  UNL     1      20.795   3.419  47.394  1.00  0.00    -0.153 SA
HETATM    6  C4  UNL     1      21.171   2.025  48.570  1.00  0.00     0.041 A 
HETATM    7  C5  UNL     1      22.272   1.736  47.906  1.00  0.00     0.028 A 
HETATM    8  C6  UNL     1      21.881   1.355  49.210  1.00  0.00     0.072 A 
HETATM    9  C7  UNL     1      21.574   0.937  50.498  1.00  0.00     0.055 A 
HETATM   10  C8  UNL     1      20.313   1.536  50.662  1.00  0.00     0.030 A 
HETATM   11  C9  UNL     1      20.133   2.192  49.430  1.00  0.00    -0.003 A 
HETATM   12  O2  UNL     1      21.697   0.322  51.728  1.00  0.00    -0.330 OA
HETATM   13  C10 UNL     1      22.819   0.327  52.544  1.00  0.00     0.350 C 
HETATM   14  O3  UNL     1      23.241   1.610  53.014  1.00  0.00    -0.338 OA
HETATM   15  C11 UNL     1      23.262   2.733  52.198  1.00  0.00     0.137 C 
HETATM   16  C12 UNL     1      23.479   3.966  52.676  1.00  0.00     0.025 C 
HETATM   17  C13 UNL     1      23.515   5.229  51.911  1.00  0.00     0.013 C 
HETATM   18  C14 UNL     1      23.363   5.594  50.646  1.00  0.00    -0.010 C 
ENDROOT
BRANCH  18  19
HETATM   19  C15 UNL     1      24.145   4.427  50.048  1.00  0.00     0.068 C 
BRANCH  19  20
HETATM   20  C16 UNL     1      25.625   4.815  49.986  1.00  0.00     0.168 C 
BRANCH  20  21
HETATM   21  O4  UNL     1      26.422   3.918  50.653  1.00  0.00    -0.401 OA
HETATM   22  H18 UNL     1      26.656   4.237  51.581  1.00  0.00     0.209 HD
ENDBRANCH  20  21
ENDBRANCH  19  20
ENDBRANCH  18  19
TORSDOF 3
ENDMDL
MODEL 9
REMARK VINA RESULT:      -5.8     11.419     14.056
REMARK  3 active torsions:
REMARK  status: ('A' for Active; 'I' for Inactive)
REMARK    1  A    between atoms: C14_18  and  C15_19 
REMARK    2  A    between atoms: C15_19  and  C16_20 
REMARK    3  A    between atoms: C16_20  and  O4_21 
ROOT
HETATM    1  O1  UNL     1      31.664   5.484  50.049  1.00  0.00    -0.293 OA
HETATM    2  C1  UNL     1      32.228   6.013  49.040  1.00  0.00     0.156 C 
HETATM    3  C2  UNL     1      32.763   7.410  48.854  1.00  0.00     0.093 C 
HETATM    4  C3  UNL     1      31.816   8.235  48.029  1.00  0.00     0.082 C 
HETATM    5  S1  UNL     1      32.650   9.665  47.256  1.00  0.00    -0.153 SA
HETATM    6  C4  UNL     1      33.478   9.008  45.724  1.00  0.00     0.041 A 
HETATM    7  C5  UNL     1      34.646   8.997  46.336  1.00  0.00     0.028 A 
HETATM    8  C6  UNL     1      34.245   8.340  45.149  1.00  0.00     0.072 A 
HETATM    9  C7  UNL     1      33.933   7.663  43.979  1.00  0.00     0.055 A 
HETATM   10  C8  UNL     1      32.590   8.044  43.818  1.00  0.00     0.030 A 
HETATM   11  C9  UNL     1      32.381   8.873  44.935  1.00  0.00    -0.003 A 
HETATM   12  O2  UNL     1      34.076   6.853  42.870  1.00  0.00    -0.330 OA
HETATM   13  C10 UNL     1      34.676   5.602  42.833  1.00  0.00     0.350 C 
HETATM   14  O3  UNL     1      34.059   4.592  43.634  1.00  0.00    -0.338 OA
HETATM   15  C11 UNL     1      33.594   4.840  44.918  1.00  0.00     0.137 C 
HETATM   16  C12 UNL     1      32.856   3.953  45.600  1.00  0.00     0.025 C 
HETATM   17  C13 UNL     1      32.300   4.109  46.961  1.00  0.00     0.013 C 
HETATM   18  C14 UNL     1      32.302   5.042  47.901  1.00  0.00    -0.010 C 
ENDROOT
BRANCH  18  19
HETATM   19  C15 UNL     1      33.764   5.443  47.726  1.00  0.00     0.068 C 
BRANCH  19  20
HETATM   20  C16 UNL     1      34.644   4.354  48.346  1.00  0.00     0.168 C 
BRANCH  20  21
HETATM   21  O4  UNL     1      35.398   4.832  49.390  1.00  0.00    -0.401 OA
HETATM   22  H18 UNL     1      34.963   4.653  50.283  1.00  0.00     0.209 HD
ENDBRANCH  20  21
ENDBRANCH  19  20
ENDBRANCH  18  19
TORSDOF 3
ENDMDL
