MODEL 1
REMARK VINA RESULT:      -8.6      0.000      0.000
REMARK  5 active torsions:
REMARK  status: ('A' for Active; 'I' for Inactive)
REMARK    1  A    between atoms: C5_6  and  N1_7 
REMARK    2  A    between atoms: N1_7  and  C6_8 
REMARK    3  A    between atoms: C10_14  and  O1_15 
REMARK    4  A    between atoms: O1_15  and  C11_16 
REMARK    5  A    between atoms: C11_16  and  C12_17 
ROOT
HETATM    1  C6  UNL     1      25.076   1.439  52.447  1.00  0.00     0.144 A 
HETATM    2  N2  UNL     1      25.773   2.306  51.666  1.00  0.00    -0.223 NA
HETATM    3  C7  UNL     1      25.230   2.889  50.568  1.00  0.00     0.236 A 
HETATM    4  N3  UNL     1      23.953   2.623  50.205  1.00  0.00    -0.241 NA
HETATM    5  C8  UNL     1      23.213   1.758  50.960  1.00  0.00     0.077 A 
HETATM    6  C9  UNL     1      21.909   1.462  50.616  1.00  0.00     0.072 A 
HETATM    7  C10 UNL     1      21.225   0.572  51.430  1.00  0.00     0.107 A 
HETATM    8  C15 UNL     1      21.795  -0.010  52.543  1.00  0.00     0.136 A 
HETATM    9  C16 UNL     1      23.104   0.291  52.883  1.00  0.00     0.121 A 
HETATM   10  C17 UNL     1      23.777   1.174  52.072  1.00  0.00     0.075 A 
HETATM   11  O3  UNL     1      23.694  -0.289  54.003  1.00  0.00    -0.345 OA
HETATM   12  C18 UNL     1      23.035  -1.180  54.851  1.00  0.00     0.202 C 
HETATM   13  C19 UNL     1      21.715  -1.677  54.375  1.00  0.00     0.202 C 
HETATM   14  O4  UNL     1      21.114  -0.902  53.362  1.00  0.00    -0.344 OA
ENDROOT
BRANCH   1  15
HETATM   15  N1  UNL     1      25.803   0.922  53.553  1.00  0.00    -0.340 N 
HETATM   16  H4  UNL     1      25.322   1.127  54.460  1.00  0.00     0.167 HD
BRANCH  15  17
HETATM   17  C5  UNL     1      27.027   0.210  53.521  1.00  0.00     0.036 A 
HETATM   18  C4  UNL     1      28.191   0.855  53.917  1.00  0.00     0.029 A 
HETATM   19  C3  UNL     1      29.401   0.176  53.902  1.00  0.00     0.005 A 
HETATM   20  C2  UNL     1      29.447  -1.158  53.487  1.00  0.00     0.042 A 
HETATM   21  C1  UNL     1      28.243  -1.709  53.114  1.00  0.00     0.118 A 
HETATM   22  F1  UNL     1      28.312  -3.012  52.709  1.00  0.00    -0.206 F 
HETATM   23  C20 UNL     1      26.998  -1.120  53.096  1.00  0.00     0.071 A 
ENDBRANCH  15  17
ENDBRANCH   1  15
BRANCH   7  24
HETATM   24  O1  UNL     1      19.915   0.266  51.094  1.00  0.00    -0.348 OA
BRANCH  24  25
HETATM   25  C11 UNL     1      18.966   1.139  50.583  1.00  0.00     0.184 C 
BRANCH  25  26
HETATM   26  C12 UNL     1      18.312   2.025  51.594  1.00  0.00     0.057 C 
HETATM   27  C13 UNL     1      18.840   3.466  51.589  1.00  0.00     0.176 C 
HETATM   28  O2  UNL     1      17.562   3.831  52.003  1.00  0.00    -0.390 OA
HETATM   29  C14 UNL     1      17.076   2.762  51.240  1.00  0.00     0.176 C 
ENDBRANCH  25  26
ENDBRANCH  24  25
ENDBRANCH   7  24
TORSDOF 5
ENDMDL
MODEL 2
REMARK VINA RESULT:      -8.5      2.182      3.614
REMARK  5 active torsions:
REMARK  status: ('A' for Active; 'I' for Inactive)
REMARK    1  A    between atoms: C5_6  and  N1_7 
REMARK    2  A    between atoms: N1_7  and  C6_8 
REMARK    3  A    between atoms: C10_14  and  O1_15 
REMARK    4  A    between atoms: O1_15  and  C11_16 
REMARK    5  A    between atoms: C11_16  and  C12_17 
ROOT
HETATM    1  C6  UNL     1      24.532  -0.226  53.881  1.00  0.00     0.144 A 
HETATM    2  N2  UNL     1      24.917  -0.949  54.967  1.00  0.00    -0.223 NA
HETATM    3  C7  UNL     1      24.026  -1.582  55.769  1.00  0.00     0.236 A 
HETATM    4  N3  UNL     1      22.697  -1.516  55.513  1.00  0.00    -0.241 NA
HETATM    5  C8  UNL     1      22.263  -0.802  54.433  1.00  0.00     0.077 A 
HETATM    6  C9  UNL     1      20.915  -0.712  54.146  1.00  0.00     0.072 A 
HETATM    7  C10 UNL     1      20.553   0.035  53.034  1.00  0.00     0.107 A 
HETATM    8  C15 UNL     1      21.476   0.671  52.230  1.00  0.00     0.136 A 
HETATM    9  C16 UNL     1      22.826   0.577  52.524  1.00  0.00     0.121 A 
HETATM   10  C17 UNL     1      23.179  -0.164  53.627  1.00  0.00     0.075 A 
HETATM   11  O3  UNL     1      23.769   1.215  51.723  1.00  0.00    -0.345 OA
HETATM   12  C18 UNL     1      23.444   1.964  50.592  1.00  0.00     0.202 C 
HETATM   13  C19 UNL     1      21.997   2.254  50.396  1.00  0.00     0.202 C 
HETATM   14  O4  UNL     1      21.118   1.420  51.116  1.00  0.00    -0.344 OA
ENDROOT
BRANCH   1  15
HETATM   15  N1  UNL     1      25.598   0.372  53.159  1.00  0.00    -0.340 N 
HETATM   16  H4  UNL     1      25.245   0.984  52.386  1.00  0.00     0.167 HD
BRANCH  15  17
HETATM   17  C5  UNL     1      26.988   0.215  53.387  1.00  0.00     0.036 A 
HETATM   18  C4  UNL     1      27.602  -0.971  53.005  1.00  0.00     0.029 A 
HETATM   19  C3  UNL     1      28.964  -1.145  53.211  1.00  0.00     0.005 A 
HETATM   20  C2  UNL     1      29.715  -0.126  53.804  1.00  0.00     0.042 A 
HETATM   21  C1  UNL     1      29.018   1.008  54.147  1.00  0.00     0.118 A 
HETATM   22  F1  UNL     1      29.771   1.989  54.727  1.00  0.00    -0.206 F 
HETATM   23  C20 UNL     1      27.675   1.274  53.983  1.00  0.00     0.071 A 
ENDBRANCH  15  17
ENDBRANCH   1  15
BRANCH   7  24
HETATM   24  O1  UNL     1      19.202   0.134  52.736  1.00  0.00    -0.348 OA
BRANCH  24  25
HETATM   25  C11 UNL     1      18.254  -0.872  52.844  1.00  0.00     0.184 C 
BRANCH  25  26
HETATM   26  C12 UNL     1      17.122  -0.783  51.872  1.00  0.00     0.057 C 
HETATM   27  C13 UNL     1      16.277   0.490  52.020  1.00  0.00     0.176 C 
HETATM   28  O2  UNL     1      16.052   0.380  50.651  1.00  0.00    -0.390 OA
HETATM   29  C14 UNL     1      17.338  -0.163  50.543  1.00  0.00     0.176 C 
ENDBRANCH  25  26
ENDBRANCH  24  25
ENDBRANCH   7  24
TORSDOF 5
ENDMDL
MODEL 3
REMARK VINA RESULT:      -8.3      1.550      2.033
REMARK  5 active torsions:
REMARK  status: ('A' for Active; 'I' for Inactive)
REMARK    1  A    between atoms: C5_6  and  N1_7 
REMARK    2  A    between atoms: N1_7  and  C6_8 
REMARK    3  A    between atoms: C10_14  and  O1_15 
REMARK    4  A    between atoms: O1_15  and  C11_16 
REMARK    5  A    between atoms: C11_16  and  C12_17 
ROOT
HETATM    1  C6  UNL     1      25.084   1.082  52.257  1.00  0.00     0.144 A 
HETATM    2  N2  UNL     1      25.896   1.812  51.447  1.00  0.00    -0.223 NA
HETATM    3  C7  UNL     1      25.443   2.871  50.732  1.00  0.00     0.236 A 
HETATM    4  N3  UNL     1      24.143   3.246  50.801  1.00  0.00    -0.241 NA
HETATM    5  C8  UNL     1      23.289   2.542  51.601  1.00  0.00     0.077 A 
HETATM    6  C9  UNL     1      21.957   2.895  51.692  1.00  0.00     0.072 A 
HETATM    7  C10 UNL     1      21.154   2.129  52.523  1.00  0.00     0.107 A 
HETATM    8  C15 UNL     1      21.635   1.055  53.243  1.00  0.00     0.136 A 
HETATM    9  C16 UNL     1      22.972   0.706  53.148  1.00  0.00     0.121 A 
HETATM   10  C17 UNL     1      23.764   1.469  52.322  1.00  0.00     0.075 A 
HETATM   11  O3  UNL     1      23.473  -0.376  53.867  1.00  0.00    -0.345 OA
HETATM   12  C18 UNL     1      22.698  -1.162  54.722  1.00  0.00     0.202 C 
HETATM   13  C19 UNL     1      21.228  -0.937  54.660  1.00  0.00     0.202 C 
HETATM   14  O4  UNL     1      20.835   0.285  54.078  1.00  0.00    -0.344 OA
ENDROOT
BRANCH   1  15
HETATM   15  N1  UNL     1      25.728   0.006  52.926  1.00  0.00    -0.340 N 
HETATM   16  H4  UNL     1      25.056  -0.766  53.148  1.00  0.00     0.167 HD
BRANCH  15  17
HETATM   17  C5  UNL     1      27.095  -0.091  53.285  1.00  0.00     0.036 A 
HETATM   18  C4  UNL     1      27.800  -1.237  52.944  1.00  0.00     0.029 A 
HETATM   19  C3  UNL     1      29.142  -1.352  53.278  1.00  0.00     0.005 A 
HETATM   20  C2  UNL     1      29.783  -0.313  53.959  1.00  0.00     0.042 A 
HETATM   21  C1  UNL     1      29.001   0.780  54.253  1.00  0.00     0.118 A 
HETATM   22  F1  UNL     1      29.646   1.782  54.922  1.00  0.00    -0.206 F 
HETATM   23  C20 UNL     1      27.669   0.986  53.964  1.00  0.00     0.071 A 
ENDBRANCH  15  17
ENDBRANCH   1  15
BRANCH   7  24
HETATM   24  O1  UNL     1      19.814   2.472  52.621  1.00  0.00    -0.348 OA
BRANCH  24  25
HETATM   25  C11 UNL     1      18.895   2.527  51.583  1.00  0.00     0.184 C 
BRANCH  25  26
HETATM   26  C12 UNL     1      18.699   1.243  50.843  1.00  0.00     0.057 C 
HETATM   27  C13 UNL     1      18.141   0.106  51.712  1.00  0.00     0.176 C 
HETATM   28  O2  UNL     1      17.541  -0.357  50.545  1.00  0.00    -0.390 OA
HETATM   29  C14 UNL     1      17.416   0.980  50.149  1.00  0.00     0.176 C 
ENDBRANCH  25  26
ENDBRANCH  24  25
ENDBRANCH   7  24
TORSDOF 5
ENDMDL
MODEL 4
REMARK VINA RESULT:      -7.9      3.319      5.471
REMARK  5 active torsions:
REMARK  status: ('A' for Active; 'I' for Inactive)
REMARK    1  A    between atoms: C5_6  and  N1_7 
REMARK    2  A    between atoms: N1_7  and  C6_8 
REMARK    3  A    between atoms: C10_14  and  O1_15 
REMARK    4  A    between atoms: O1_15  and  C11_16 
REMARK    5  A    between atoms: C11_16  and  C12_17 
ROOT
HETATM    1  C6  UNL     1      24.144   4.209  49.614  1.00  0.00     0.144 A 
HETATM    2  N2  UNL     1      23.632   4.864  48.538  1.00  0.00    -0.223 NA
HETATM    3  C7  UNL     1      22.471   4.489  47.947  1.00  0.00     0.236 A 
HETATM    4  N3  UNL     1      21.768   3.430  48.415  1.00  0.00    -0.241 NA
HETATM    5  C8  UNL     1      22.243   2.741  49.494  1.00  0.00     0.077 A 
HETATM    6  C9  UNL     1      21.553   1.654  49.994  1.00  0.00     0.072 A 
HETATM    7  C10 UNL     1      22.102   1.004  51.089  1.00  0.00     0.107 A 
HETATM    8  C15 UNL     1      23.285   1.402  51.677  1.00  0.00     0.136 A 
HETATM    9  C16 UNL     1      23.972   2.493  51.170  1.00  0.00     0.121 A 
HETATM   10  C17 UNL     1      23.423   3.133  50.084  1.00  0.00     0.075 A 
HETATM   11  O3  UNL     1      25.168   2.906  51.752  1.00  0.00    -0.345 OA
HETATM   12  C18 UNL     1      25.745   2.285  52.860  1.00  0.00     0.202 C 
HETATM   13  C19 UNL     1      25.137   0.990  53.271  1.00  0.00     0.202 C 
HETATM   14  O4  UNL     1      23.839   0.755  52.774  1.00  0.00    -0.344 OA
ENDROOT
BRANCH   1  15
HETATM   15  N1  UNL     1      25.370   4.737  50.101  1.00  0.00    -0.340 N 
HETATM   16  H4  UNL     1      25.467   4.596  51.134  1.00  0.00     0.167 HD
BRANCH  15  17
HETATM   17  C5  UNL     1      26.385   5.385  49.355  1.00  0.00     0.036 A 
HETATM   18  C4  UNL     1      26.250   6.736  49.067  1.00  0.00     0.029 A 
HETATM   19  C3  UNL     1      27.235   7.395  48.344  1.00  0.00     0.005 A 
HETATM   20  C2  UNL     1      28.363   6.696  47.906  1.00  0.00     0.042 A 
HETATM   21  C1  UNL     1      28.406   5.362  48.239  1.00  0.00     0.118 A 
HETATM   22  F1  UNL     1      29.515   4.698  47.797  1.00  0.00    -0.206 F 
HETATM   23  C20 UNL     1      27.483   4.624  48.949  1.00  0.00     0.071 A 
ENDBRANCH  15  17
ENDBRANCH   1  15
BRANCH   7  24
HETATM   24  O1  UNL     1      21.419  -0.089  51.599  1.00  0.00    -0.348 OA
BRANCH  24  25
HETATM   25  C11 UNL     1      20.258  -0.060  52.358  1.00  0.00     0.184 C 
BRANCH  25  26
HETATM   26  C12 UNL     1      20.379  -0.656  53.723  1.00  0.00     0.057 C 
HETATM   27  C13 UNL     1      21.545  -1.644  53.868  1.00  0.00     0.176 C 
HETATM   28  O2  UNL     1      21.598  -1.233  55.197  1.00  0.00    -0.390 OA
HETATM   29  C14 UNL     1      21.185   0.031  54.760  1.00  0.00     0.176 C 
ENDBRANCH  25  26
ENDBRANCH  24  25
ENDBRANCH   7  24
TORSDOF 5
ENDMDL
MODEL 5
REMARK VINA RESULT:      -7.8      2.065      3.487
REMARK  5 active torsions:
REMARK  status: ('A' for Active; 'I' for Inactive)
REMARK    1  A    between atoms: C5_6  and  N1_7 
REMARK    2  A    between atoms: N1_7  and  C6_8 
REMARK    3  A    between atoms: C10_14  and  O1_15 
REMARK    4  A    between atoms: O1_15  and  C11_16 
REMARK    5  A    between atoms: C11_16  and  C12_17 
ROOT
HETATM    1  C6  UNL     1      24.273   0.072  53.538  1.00  0.00     0.144 A 
HETATM    2  N2  UNL     1      24.271  -0.922  54.467  1.00  0.00    -0.223 NA
HETATM    3  C7  UNL     1      23.142  -1.312  55.108  1.00  0.00     0.236 A 
HETATM    4  N3  UNL     1      21.956  -0.715  54.843  1.00  0.00    -0.241 NA
HETATM    5  C8  UNL     1      21.908   0.288  53.918  1.00  0.00     0.077 A 
HETATM    6  C9  UNL     1      20.715   0.920  53.626  1.00  0.00     0.072 A 
HETATM    7  C10 UNL     1      20.749   1.931  52.678  1.00  0.00     0.107 A 
HETATM    8  C15 UNL     1      21.908   2.312  52.035  1.00  0.00     0.136 A 
HETATM    9  C16 UNL     1      23.101   1.675  52.332  1.00  0.00     0.121 A 
HETATM   10  C17 UNL     1      23.062   0.673  53.274  1.00  0.00     0.075 A 
HETATM   11  O3  UNL     1      24.280   2.049  51.693  1.00  0.00    -0.345 OA
HETATM   12  C18 UNL     1      24.352   3.053  50.726  1.00  0.00     0.202 C 
HETATM   13  C19 UNL     1      23.130   3.888  50.563  1.00  0.00     0.202 C 
HETATM   14  O4  UNL     1      21.947   3.324  51.084  1.00  0.00    -0.344 OA
ENDROOT
BRANCH   1  15
HETATM   15  N1  UNL     1      25.545   0.350  52.970  1.00  0.00    -0.340 N 
HETATM   16  H4  UNL     1      25.547   1.266  52.461  1.00  0.00     0.167 HD
BRANCH  15  17
HETATM   17  C5  UNL     1      26.712  -0.451  53.037  1.00  0.00     0.036 A 
HETATM   18  C4  UNL     1      26.658  -1.757  52.571  1.00  0.00     0.029 A 
HETATM   19  C3  UNL     1      27.790  -2.559  52.619  1.00  0.00     0.005 A 
HETATM   20  C2  UNL     1      28.984  -2.049  53.136  1.00  0.00     0.042 A 
HETATM   21  C1  UNL     1      28.937  -0.745  53.572  1.00  0.00     0.118 A 
HETATM   22  F1  UNL     1      30.114  -0.269  54.078  1.00  0.00    -0.206 F 
HETATM   23  C20 UNL     1      27.869   0.125  53.566  1.00  0.00     0.071 A 
ENDBRANCH  15  17
ENDBRANCH   1  15
BRANCH   7  24
HETATM   24  O1  UNL     1      19.557   2.574  52.377  1.00  0.00    -0.348 OA
BRANCH  24  25
HETATM   25  C11 UNL     1      18.531   2.087  51.582  1.00  0.00     0.184 C 
BRANCH  25  26
HETATM   26  C12 UNL     1      18.346   2.798  50.280  1.00  0.00     0.057 C 
HETATM   27  C13 UNL     1      19.285   2.310  49.168  1.00  0.00     0.176 C 
HETATM   28  O2  UNL     1      18.262   2.652  48.290  1.00  0.00    -0.390 OA
HETATM   29  C14 UNL     1      17.358   2.294  49.297  1.00  0.00     0.176 C 
ENDBRANCH  25  26
ENDBRANCH  24  25
ENDBRANCH   7  24
TORSDOF 5
ENDMDL
MODEL 6
REMARK VINA RESULT:      -7.6      4.284      7.294
REMARK  5 active torsions:
REMARK  status: ('A' for Active; 'I' for Inactive)
REMARK    1  A    between atoms: C5_6  and  N1_7 
REMARK    2  A    between atoms: N1_7  and  C6_8 
REMARK    3  A    between atoms: C10_14  and  O1_15 
REMARK    4  A    between atoms: O1_15  and  C11_16 
REMARK    5  A    between atoms: C11_16  and  C12_17 
ROOT
HETATM    1  C6  UNL     1      24.428   1.608  52.635  1.00  0.00     0.144 A 
HETATM    2  N2  UNL     1      25.246   0.558  52.913  1.00  0.00    -0.223 NA
HETATM    3  C7  UNL     1      26.432   0.377  52.280  1.00  0.00     0.236 A 
HETATM    4  N3  UNL     1      26.849   1.249  51.333  1.00  0.00    -0.241 NA
HETATM    5  C8  UNL     1      26.060   2.319  51.019  1.00  0.00     0.077 A 
HETATM    6  C9  UNL     1      26.455   3.225  50.055  1.00  0.00     0.072 A 
HETATM    7  C10 UNL     1      25.597   4.283  49.791  1.00  0.00     0.107 A 
HETATM    8  C15 UNL     1      24.396   4.450  50.447  1.00  0.00     0.136 A 
HETATM    9  C16 UNL     1      24.006   3.538  51.413  1.00  0.00     0.121 A 
HETATM   10  C17 UNL     1      24.860   2.491  51.670  1.00  0.00     0.075 A 
HETATM   11  O3  UNL     1      22.795   3.692  52.083  1.00  0.00    -0.345 OA
HETATM   12  C18 UNL     1      21.912   4.748  51.853  1.00  0.00     0.202 C 
HETATM   13  C19 UNL     1      22.214   5.603  50.672  1.00  0.00     0.202 C 
HETATM   14  O4  UNL     1      23.534   5.508  50.187  1.00  0.00    -0.344 OA
ENDROOT
BRANCH   1  15
HETATM   15  N1  UNL     1      23.225   1.638  53.391  1.00  0.00    -0.340 N 
HETATM   16  H4  UNL     1      23.105   2.552  53.888  1.00  0.00     0.167 HD
BRANCH  15  17
HETATM   17  C5  UNL     1      22.258   0.609  53.513  1.00  0.00     0.036 A 
HETATM   18  C4  UNL     1      22.472  -0.409  54.432  1.00  0.00     0.029 A 
HETATM   19  C3  UNL     1      21.536  -1.424  54.574  1.00  0.00     0.005 A 
HETATM   20  C2  UNL     1      20.378  -1.420  53.790  1.00  0.00     0.042 A 
HETATM   21  C1  UNL     1      20.258  -0.370  52.910  1.00  0.00     0.118 A 
HETATM   22  F1  UNL     1      19.121  -0.388  52.152  1.00  0.00    -0.206 F 
HETATM   23  C20 UNL     1      21.127   0.678  52.698  1.00  0.00     0.071 A 
ENDBRANCH  15  17
ENDBRANCH   1  15
BRANCH   7  24
HETATM   24  O1  UNL     1      25.982   5.199  48.824  1.00  0.00    -0.348 OA
BRANCH  24  25
HETATM   25  C11 UNL     1      26.768   6.326  49.016  1.00  0.00     0.184 C 
BRANCH  25  26
HETATM   26  C12 UNL     1      27.914   6.468  48.067  1.00  0.00     0.057 C 
HETATM   27  C13 UNL     1      28.905   7.574  48.453  1.00  0.00     0.176 C 
HETATM   28  O2  UNL     1      29.874   6.782  47.844  1.00  0.00    -0.390 OA
HETATM   29  C14 UNL     1      29.144   5.666  48.271  1.00  0.00     0.176 C 
ENDBRANCH  25  26
ENDBRANCH  24  25
ENDBRANCH   7  24
TORSDOF 5
ENDMDL
MODEL 7
REMARK VINA RESULT:      -7.5      3.803      5.881
REMARK  5 active torsions:
REMARK  status: ('A' for Active; 'I' for Inactive)
REMARK    1  A    between atoms: C5_6  and  N1_7 
REMARK    2  A    between atoms: N1_7  and  C6_8 
REMARK    3  A    between atoms: C10_14  and  O1_15 
REMARK    4  A    between atoms: O1_15  and  C11_16 
REMARK    5  A    between atoms: C11_16  and  C12_17 
ROOT
HETATM    1  C6  UNL     1      26.061   3.205  50.385  1.00  0.00     0.144 A 
HETATM    2  N2  UNL     1      27.190   2.842  51.050  1.00  0.00    -0.223 NA
HETATM    3  C7  UNL     1      27.152   2.227  52.258  1.00  0.00     0.236 A 
HETATM    4  N3  UNL     1      25.968   1.947  52.854  1.00  0.00    -0.241 NA
HETATM    5  C8  UNL     1      24.808   2.294  52.224  1.00  0.00     0.077 A 
HETATM    6  C9  UNL     1      23.584   2.026  52.806  1.00  0.00     0.072 A 
HETATM    7  C10 UNL     1      22.451   2.412  52.105  1.00  0.00     0.107 A 
HETATM    8  C15 UNL     1      22.511   3.036  50.876  1.00  0.00     0.136 A 
HETATM    9  C16 UNL     1      23.741   3.302  50.298  1.00  0.00     0.121 A 
HETATM   10  C17 UNL     1      24.861   2.918  50.998  1.00  0.00     0.075 A 
HETATM   11  O3  UNL     1      23.818   3.933  49.059  1.00  0.00    -0.345 OA
HETATM   12  C18 UNL     1      22.702   4.325  48.320  1.00  0.00     0.202 C 
HETATM   13  C19 UNL     1      21.393   4.247  49.025  1.00  0.00     0.202 C 
HETATM   14  O4  UNL     1      21.379   3.424  50.170  1.00  0.00    -0.344 OA
ENDROOT
BRANCH   1  15
HETATM   15  N1  UNL     1      26.289   3.843  49.136  1.00  0.00    -0.340 N 
HETATM   16  H4  UNL     1      25.873   3.298  48.344  1.00  0.00     0.167 HD
BRANCH  15  17
HETATM   17  C5  UNL     1      26.978   5.059  48.902  1.00  0.00     0.036 A 
HETATM   18  C4  UNL     1      28.289   5.012  48.448  1.00  0.00     0.029 A 
HETATM   19  C3  UNL     1      28.983   6.189  48.205  1.00  0.00     0.005 A 
HETATM   20  C2  UNL     1      28.359   7.422  48.418  1.00  0.00     0.042 A 
HETATM   21  C1  UNL     1      27.061   7.365  48.869  1.00  0.00     0.118 A 
HETATM   22  F1  UNL     1      26.473   8.581  49.074  1.00  0.00    -0.206 F 
HETATM   23  C20 UNL     1      26.293   6.252  49.137  1.00  0.00     0.071 A 
ENDBRANCH  15  17
ENDBRANCH   1  15
BRANCH   7  24
HETATM   24  O1  UNL     1      21.217   2.151  52.679  1.00  0.00    -0.348 OA
BRANCH  24  25
HETATM   25  C11 UNL     1      20.744   0.916  53.100  1.00  0.00     0.184 C 
BRANCH  25  26
HETATM   26  C12 UNL     1      20.025   0.124  52.056  1.00  0.00     0.057 C 
HETATM   27  C13 UNL     1      18.645  -0.380  52.502  1.00  0.00     0.176 C 
HETATM   28  O2  UNL     1      18.284  -0.276  51.162  1.00  0.00    -0.390 OA
HETATM   29  C14 UNL     1      19.157   0.815  51.073  1.00  0.00     0.176 C 
ENDBRANCH  25  26
ENDBRANCH  24  25
ENDBRANCH   7  24
TORSDOF 5
ENDMDL
MODEL 8
REMARK VINA RESULT:      -7.3      4.570      7.359
REMARK  5 active torsions:
REMARK  status: ('A' for Active; 'I' for Inactive)
REMARK    1  A    between atoms: C5_6  and  N1_7 
REMARK    2  A    between atoms: N1_7  and  C6_8 
REMARK    3  A    between atoms: C10_14  and  O1_15 
REMARK    4  A    between atoms: O1_15  and  C11_16 
REMARK    5  A    between atoms: C11_16  and  C12_17 
ROOT
HETATM    1  C6  UNL     1      24.370   2.372  52.092  1.00  0.00     0.144 A 
HETATM    2  N2  UNL     1      25.156   1.297  52.366  1.00  0.00    -0.223 NA
HETATM    3  C7  UNL     1      26.376   1.128  51.799  1.00  0.00     0.236 A 
HETATM    4  N3  UNL     1      26.863   2.040  50.923  1.00  0.00    -0.241 NA
HETATM    5  C8  UNL     1      26.108   3.136  50.616  1.00  0.00     0.077 A 
HETATM    6  C9  UNL     1      26.574   4.082  49.725  1.00  0.00     0.072 A 
HETATM    7  C10 UNL     1      25.748   5.165  49.462  1.00  0.00     0.107 A 
HETATM    8  C15 UNL     1      24.510   5.319  50.051  1.00  0.00     0.136 A 
HETATM    9  C16 UNL     1      24.049   4.366  50.944  1.00  0.00     0.121 A 
HETATM   10  C17 UNL     1      24.872   3.294  51.200  1.00  0.00     0.075 A 
HETATM   11  O3  UNL     1      22.801   4.506  51.545  1.00  0.00    -0.345 OA
HETATM   12  C18 UNL     1      21.948   5.586  51.315  1.00  0.00     0.202 C 
HETATM   13  C19 UNL     1      22.333   6.494  50.199  1.00  0.00     0.202 C 
HETATM   14  O4  UNL     1      23.679   6.402  49.791  1.00  0.00    -0.344 OA
ENDROOT
BRANCH   1  15
HETATM   15  N1  UNL     1      23.123   2.383  52.773  1.00  0.00    -0.340 N 
HETATM   16  H4  UNL     1      23.017   3.240  53.367  1.00  0.00     0.167 HD
BRANCH  15  17
HETATM   17  C5  UNL     1      22.100   1.405  52.713  1.00  0.00     0.036 A 
HETATM   18  C4  UNL     1      21.233   1.404  51.629  1.00  0.00     0.029 A 
HETATM   19  C3  UNL     1      20.227   0.451  51.545  1.00  0.00     0.005 A 
HETATM   20  C2  UNL     1      20.088  -0.507  52.553  1.00  0.00     0.042 A 
HETATM   21  C1  UNL     1      20.994  -0.424  53.584  1.00  0.00     0.118 A 
HETATM   22  F1  UNL     1      20.838  -1.367  54.560  1.00  0.00    -0.206 F 
HETATM   23  C20 UNL     1      22.021   0.480  53.755  1.00  0.00     0.071 A 
ENDBRANCH  15  17
ENDBRANCH   1  15
BRANCH   7  24
HETATM   24  O1  UNL     1      26.203   6.122  48.567  1.00  0.00    -0.348 OA
BRANCH  24  25
HETATM   25  C11 UNL     1      27.110   7.137  48.831  1.00  0.00     0.184 C 
BRANCH  25  26
HETATM   26  C12 UNL     1      26.514   8.388  49.393  1.00  0.00     0.057 C 
HETATM   27  C13 UNL     1      27.526   9.283  50.122  1.00  0.00     0.176 C 
HETATM   28  O2  UNL     1      26.728  10.348  49.713  1.00  0.00    -0.390 OA
HETATM   29  C14 UNL     1      26.439   9.610  48.558  1.00  0.00     0.176 C 
ENDBRANCH  25  26
ENDBRANCH  24  25
ENDBRANCH   7  24
TORSDOF 5
ENDMDL
MODEL 9
REMARK VINA RESULT:      -7.2      4.470      7.953
REMARK  5 active torsions:
REMARK  status: ('A' for Active; 'I' for Inactive)
REMARK    1  A    between atoms: C5_6  and  N1_7 
REMARK    2  A    between atoms: N1_7  and  C6_8 
REMARK    3  A    between atoms: C10_14  and  O1_15 
REMARK    4  A    between atoms: O1_15  and  C11_16 
REMARK    5  A    between atoms: C11_16  and  C12_17 
ROOT
HETATM    1  C6  UNL     1      24.714   4.991  49.382  1.00  0.00     0.144 A 
HETATM    2  N2  UNL     1      25.918   5.199  48.785  1.00  0.00    -0.223 NA
HETATM    3  C7  UNL     1      27.019   4.475  49.105  1.00  0.00     0.236 A 
HETATM    4  N3  UNL     1      26.958   3.503  50.046  1.00  0.00    -0.241 NA
HETATM    5  C8  UNL     1      25.770   3.259  50.673  1.00  0.00     0.077 A 
HETATM    6  C9  UNL     1      25.674   2.277  51.640  1.00  0.00     0.072 A 
HETATM    7  C10 UNL     1      24.434   2.092  52.234  1.00  0.00     0.107 A 
HETATM    8  C15 UNL     1      23.326   2.839  51.894  1.00  0.00     0.136 A 
HETATM    9  C16 UNL     1      23.429   3.821  50.924  1.00  0.00     0.121 A 
HETATM   10  C17 UNL     1      24.660   4.001  50.339  1.00  0.00     0.075 A 
HETATM   11  O3  UNL     1      22.319   4.584  50.570  1.00  0.00    -0.345 OA
HETATM   12  C18 UNL     1      21.054   4.419  51.137  1.00  0.00     0.202 C 
HETATM   13  C19 UNL     1      20.985   3.527  52.327  1.00  0.00     0.202 C 
HETATM   14  O4  UNL     1      22.081   2.656  52.485  1.00  0.00    -0.344 OA
ENDROOT
BRANCH   1  15
HETATM   15  N1  UNL     1      23.673   5.843  48.928  1.00  0.00    -0.340 N 
HETATM   16  H4  UNL     1      23.266   6.407  49.711  1.00  0.00     0.167 HD
BRANCH  15  17
HETATM   17  C5  UNL     1      23.184   5.976  47.604  1.00  0.00     0.036 A 
HETATM   18  C4  UNL     1      22.383   4.970  47.079  1.00  0.00     0.029 A 
HETATM   19  C3  UNL     1      21.887   5.080  45.788  1.00  0.00     0.005 A 
HETATM   20  C2  UNL     1      22.194   6.205  45.016  1.00  0.00     0.042 A 
HETATM   21  C1  UNL     1      22.993   7.145  45.624  1.00  0.00     0.118 A 
HETATM   22  F1  UNL     1      23.284   8.234  44.850  1.00  0.00    -0.206 F 
HETATM   23  C20 UNL     1      23.531   7.125  46.892  1.00  0.00     0.071 A 
ENDBRANCH  15  17
ENDBRANCH   1  15
BRANCH   7  24
HETATM   24  O1  UNL     1      24.326   1.111  53.208  1.00  0.00    -0.348 OA
BRANCH  24  25
HETATM   25  C11 UNL     1      24.637  -0.234  53.067  1.00  0.00     0.184 C 
BRANCH  25  26
HETATM   26  C12 UNL     1      25.724  -0.729  53.965  1.00  0.00     0.057 C 
HETATM   27  C13 UNL     1      27.119  -0.703  53.324  1.00  0.00     0.176 C 
HETATM   28  O2  UNL     1      27.599  -0.493  54.613  1.00  0.00    -0.390 OA
HETATM   29  C14 UNL     1      26.419   0.215  54.873  1.00  0.00     0.176 C 
ENDBRANCH  25  26
ENDBRANCH  24  25
ENDBRANCH   7  24
TORSDOF 5
ENDMDL
