MODEL 1
REMARK VINA RESULT:      -7.8      0.000      0.000
REMARK  5 active torsions:
REMARK  status: ('A' for Active; 'I' for Inactive)
REMARK    1  A    between atoms: O1_2  and  C2_3 
REMARK    2  A    between atoms: C6_9  and  N3_10 
REMARK    3  A    between atoms: N3_10  and  C7_11 
REMARK    4  A    between atoms: C11_15  and  C12_16 
REMARK    5  A    between atoms: C16_21  and  O2_22 
ROOT
HETATM    1  C2  UNL     1      25.610   0.157  54.003  1.00  0.00     0.103 A 
HETATM    2  C3  UNL     1      24.468   0.142  53.215  1.00  0.00     0.072 A 
HETATM    3  C4  UNL     1      24.347   1.113  52.232  1.00  0.00     0.075 A 
HETATM    4  N1  UNL     1      23.239   1.086  51.492  1.00  0.00    -0.241 NA
HETATM    5  C5  UNL     1      23.051   1.999  50.522  1.00  0.00     0.235 A 
HETATM    6  N2  UNL     1      24.037   2.943  50.336  1.00  0.00    -0.224 NA
HETATM    7  C6  UNL     1      25.122   2.942  51.092  1.00  0.00     0.138 A 
HETATM    8  C14 UNL     1      25.364   2.032  52.096  1.00  0.00     0.041 A 
HETATM    9  C15 UNL     1      26.506   2.083  52.851  1.00  0.00     0.057 A 
HETATM   10  C16 UNL     1      26.602   1.103  53.826  1.00  0.00     0.102 A 
ENDROOT
BRANCH   7  11
HETATM   11  N3  UNL     1      26.005   4.019  50.852  1.00  0.00    -0.366 N 
HETATM   12  H6  UNL     1      26.799   4.505  51.380  1.00  0.00     0.161 HD
BRANCH  11  13
HETATM   13  C7  UNL     1      26.095   4.632  49.531  1.00  0.00     0.110 A 
HETATM   14  C8  UNL     1      27.400   4.327  48.944  1.00  0.00    -0.002 A 
HETATM   15  C9  UNL     1      28.313   5.078  48.335  1.00  0.00    -0.002 A 
HETATM   16  C10 UNL     1      27.967   6.509  48.217  1.00  0.00     0.003 A 
HETATM   17  C11 UNL     1      26.798   6.824  48.744  1.00  0.00    -0.068 A 
HETATM   18  C13 UNL     1      25.753   6.068  49.462  1.00  0.00     0.064 A 
BRANCH  17  19
HETATM   19  C12 UNL     1      26.377   8.249  48.661  1.00  0.00     0.119 C 
HETATM   20 BR1  UNL     1      27.215   9.216  50.106  1.00  0.00    -0.092 Br
ENDBRANCH  17  19
ENDBRANCH  11  13
ENDBRANCH   7  11
BRANCH  10  21
HETATM   21  O2  UNL     1      27.731   1.080  54.641  1.00  0.00    -0.353 OA
HETATM   22  C17 UNL     1      28.961   0.541  54.229  1.00  0.00     0.210 C 
ENDBRANCH  10  21
BRANCH   1  23
HETATM   23  O1  UNL     1      25.795  -0.775  54.979  1.00  0.00    -0.353 OA
HETATM   24  C1  UNL     1      25.014  -1.000  56.117  1.00  0.00     0.210 C 
ENDBRANCH   1  23
TORSDOF 5
ENDMDL
MODEL 2
REMARK VINA RESULT:      -7.7      4.051      6.764
REMARK  5 active torsions:
REMARK  status: ('A' for Active; 'I' for Inactive)
REMARK    1  A    between atoms: O1_2  and  C2_3 
REMARK    2  A    between atoms: C6_9  and  N3_10 
REMARK    3  A    between atoms: N3_10  and  C7_11 
REMARK    4  A    between atoms: C11_15  and  C12_16 
REMARK    5  A    between atoms: C16_21  and  O2_22 
ROOT
HETATM    1  C2  UNL     1      27.421   0.761  53.391  1.00  0.00     0.103 A 
HETATM    2  C3  UNL     1      26.877  -0.116  54.317  1.00  0.00     0.072 A 
HETATM    3  C4  UNL     1      25.500  -0.284  54.321  1.00  0.00     0.075 A 
HETATM    4  N1  UNL     1      24.998  -1.125  55.224  1.00  0.00    -0.241 NA
HETATM    5  C5  UNL     1      23.670  -1.334  55.288  1.00  0.00     0.235 A 
HETATM    6  N2  UNL     1      22.874  -0.653  54.396  1.00  0.00    -0.224 NA
HETATM    7  C6  UNL     1      23.406   0.178  53.515  1.00  0.00     0.138 A 
HETATM    8  C14 UNL     1      24.755   0.428  53.406  1.00  0.00     0.041 A 
HETATM    9  C15 UNL     1      25.251   1.303  52.476  1.00  0.00     0.057 A 
HETATM   10  C16 UNL     1      26.628   1.453  52.494  1.00  0.00     0.102 A 
ENDROOT
BRANCH   7  11
HETATM   11  N3  UNL     1      22.467   0.877  52.724  1.00  0.00    -0.366 N 
HETATM   12  H6  UNL     1      22.264   1.899  52.479  1.00  0.00     0.161 HD
BRANCH  11  13
HETATM   13  C7  UNL     1      21.571   0.162  51.821  1.00  0.00     0.110 A 
HETATM   14  C8  UNL     1      21.632   0.774  50.494  1.00  0.00    -0.002 A 
HETATM   15  C9  UNL     1      20.694   1.155  49.632  1.00  0.00    -0.002 A 
HETATM   16  C10 UNL     1      19.305   0.928  50.079  1.00  0.00     0.003 A 
HETATM   17  C11 UNL     1      19.209   0.382  51.279  1.00  0.00    -0.068 A 
HETATM   18  C13 UNL     1      20.188  -0.031  52.303  1.00  0.00     0.064 A 
BRANCH  17  19
HETATM   19  C12 UNL     1      17.840   0.119  51.798  1.00  0.00     0.119 C 
HETATM   20 BR1  UNL     1      17.954  -1.266  53.138  1.00  0.00    -0.092 Br
ENDBRANCH  17  19
ENDBRANCH  11  13
ENDBRANCH   7  11
BRANCH  10  21
HETATM   21  O2  UNL     1      27.217   2.325  51.581  1.00  0.00    -0.353 OA
HETATM   22  C17 UNL     1      26.479   3.057  50.637  1.00  0.00     0.210 C 
ENDBRANCH  10  21
BRANCH   1  23
HETATM   23  O1  UNL     1      28.766   0.963  53.329  1.00  0.00    -0.353 OA
HETATM   24  C1  UNL     1      29.790   0.051  53.603  1.00  0.00     0.210 C 
ENDBRANCH   1  23
TORSDOF 5
ENDMDL
MODEL 3
REMARK VINA RESULT:      -7.5      3.727      6.378
REMARK  5 active torsions:
REMARK  status: ('A' for Active; 'I' for Inactive)
REMARK    1  A    between atoms: O1_2  and  C2_3 
REMARK    2  A    between atoms: C6_9  and  N3_10 
REMARK    3  A    between atoms: N3_10  and  C7_11 
REMARK    4  A    between atoms: C11_15  and  C12_16 
REMARK    5  A    between atoms: C16_21  and  O2_22 
ROOT
HETATM    1  C2  UNL     1      27.342   0.150  53.721  1.00  0.00     0.103 A 
HETATM    2  C3  UNL     1      27.657   1.007  52.677  1.00  0.00     0.072 A 
HETATM    3  C4  UNL     1      26.620   1.706  52.077  1.00  0.00     0.075 A 
HETATM    4  N1  UNL     1      26.944   2.518  51.071  1.00  0.00    -0.241 NA
HETATM    5  C5  UNL     1      25.989   3.225  50.439  1.00  0.00     0.235 A 
HETATM    6  N2  UNL     1      24.691   3.072  50.872  1.00  0.00    -0.224 NA
HETATM    7  C6  UNL     1      24.405   2.254  51.871  1.00  0.00     0.138 A 
HETATM    8  C14 UNL     1      25.342   1.508  52.551  1.00  0.00     0.041 A 
HETATM    9  C15 UNL     1      24.987   0.673  53.577  1.00  0.00     0.057 A 
HETATM   10  C16 UNL     1      26.040  -0.014  54.159  1.00  0.00     0.102 A 
ENDROOT
BRANCH   7  11
HETATM   11  N3  UNL     1      23.026   2.126  52.149  1.00  0.00    -0.366 N 
HETATM   12  H6  UNL     1      22.250   2.752  52.539  1.00  0.00     0.161 HD
BRANCH  11  13
HETATM   13  C7  UNL     1      22.279   0.954  51.704  1.00  0.00     0.110 A 
HETATM   14  C8  UNL     1      21.543   1.285  50.483  1.00  0.00    -0.002 A 
HETATM   15  C9  UNL     1      20.284   1.080  50.107  1.00  0.00    -0.002 A 
HETATM   16  C10 UNL     1      19.439   0.386  51.099  1.00  0.00     0.003 A 
HETATM   17  C11 UNL     1      20.068   0.078  52.218  1.00  0.00    -0.068 A 
HETATM   18  C13 UNL     1      21.437   0.299  52.726  1.00  0.00     0.064 A 
BRANCH  17  19
HETATM   19  C12 UNL     1      19.284  -0.627  53.267  1.00  0.00     0.119 C 
HETATM   20 BR1  UNL     1      17.511  -0.961  52.580  1.00  0.00    -0.092 Br
ENDBRANCH  17  19
ENDBRANCH  11  13
ENDBRANCH   7  11
BRANCH  10  21
HETATM   21  O2  UNL     1      25.770  -0.887  55.210  1.00  0.00    -0.353 OA
HETATM   22  C17 UNL     1      24.467  -1.255  55.581  1.00  0.00     0.210 C 
ENDBRANCH  10  21
BRANCH   1  23
HETATM   23  O1  UNL     1      28.314  -0.558  54.359  1.00  0.00    -0.353 OA
HETATM   24  C1  UNL     1      29.563  -0.949  53.865  1.00  0.00     0.210 C 
ENDBRANCH   1  23
TORSDOF 5
ENDMDL
MODEL 4
REMARK VINA RESULT:      -7.4      1.960      2.662
REMARK  5 active torsions:
REMARK  status: ('A' for Active; 'I' for Inactive)
REMARK    1  A    between atoms: O1_2  and  C2_3 
REMARK    2  A    between atoms: C6_9  and  N3_10 
REMARK    3  A    between atoms: N3_10  and  C7_11 
REMARK    4  A    between atoms: C11_15  and  C12_16 
REMARK    5  A    between atoms: C16_21  and  O2_22 
ROOT
HETATM    1  C2  UNL     1      26.536   0.157  54.123  1.00  0.00     0.103 A 
HETATM    2  C3  UNL     1      25.407  -0.576  53.791  1.00  0.00     0.072 A 
HETATM    3  C4  UNL     1      24.311   0.113  53.293  1.00  0.00     0.075 A 
HETATM    4  N1  UNL     1      23.233  -0.610  52.987  1.00  0.00    -0.241 NA
HETATM    5  C5  UNL     1      22.131  -0.009  52.502  1.00  0.00     0.235 A 
HETATM    6  N2  UNL     1      22.170   1.358  52.340  1.00  0.00    -0.224 NA
HETATM    7  C6  UNL     1      23.256   2.044  52.657  1.00  0.00     0.138 A 
HETATM    8  C14 UNL     1      24.408   1.480  53.156  1.00  0.00     0.041 A 
HETATM    9  C15 UNL     1      25.502   2.242  53.472  1.00  0.00     0.057 A 
HETATM   10  C16 UNL     1      26.582   1.530  53.968  1.00  0.00     0.102 A 
ENDROOT
BRANCH   7  11
HETATM   11  N3  UNL     1      23.124   3.445  52.526  1.00  0.00    -0.366 N 
HETATM   12  H6  UNL     1      23.046   4.283  53.187  1.00  0.00     0.161 HD
BRANCH  11  13
HETATM   13  C7  UNL     1      23.274   4.091  51.227  1.00  0.00     0.110 A 
HETATM   14  C8  UNL     1      23.976   3.187  50.315  1.00  0.00    -0.002 A 
HETATM   15  C9  UNL     1      24.999   3.360  49.483  1.00  0.00    -0.002 A 
HETATM   16  C10 UNL     1      25.558   4.726  49.456  1.00  0.00     0.003 A 
HETATM   17  C11 UNL     1      24.954   5.571  50.273  1.00  0.00    -0.068 A 
HETATM   18  C13 UNL     1      23.849   5.452  51.245  1.00  0.00     0.064 A 
BRANCH  17  19
HETATM   19  C12 UNL     1      25.458   6.970  50.299  1.00  0.00     0.119 C 
HETATM   20 BR1  UNL     1      23.949   8.164  50.163  1.00  0.00    -0.092 Br
ENDBRANCH  17  19
ENDBRANCH  11  13
ENDBRANCH   7  11
BRANCH  10  21
HETATM   21  O2  UNL     1      27.738   2.226  54.316  1.00  0.00    -0.353 OA
HETATM   22  C17 UNL     1      28.716   2.600  53.380  1.00  0.00     0.210 C 
ENDBRANCH  10  21
BRANCH   1  23
HETATM   23  O1  UNL     1      27.649  -0.460  54.609  1.00  0.00    -0.353 OA
HETATM   24  C1  UNL     1      28.736  -0.971  53.892  1.00  0.00     0.210 C 
ENDBRANCH   1  23
TORSDOF 5
ENDMDL
MODEL 5
REMARK VINA RESULT:      -7.3      3.325      6.242
REMARK  5 active torsions:
REMARK  status: ('A' for Active; 'I' for Inactive)
REMARK    1  A    between atoms: O1_2  and  C2_3 
REMARK    2  A    between atoms: C6_9  and  N3_10 
REMARK    3  A    between atoms: N3_10  and  C7_11 
REMARK    4  A    between atoms: C11_15  and  C12_16 
REMARK    5  A    between atoms: C16_21  and  O2_22 
ROOT
HETATM    1  C2  UNL     1      27.323   0.738  53.546  1.00  0.00     0.103 A 
HETATM    2  C3  UNL     1      26.793  -0.037  54.567  1.00  0.00     0.072 A 
HETATM    3  C4  UNL     1      25.446  -0.365  54.500  1.00  0.00     0.075 A 
HETATM    4  N1  UNL     1      24.955  -1.103  55.495  1.00  0.00    -0.241 NA
HETATM    5  C5  UNL     1      23.657  -1.456  55.498  1.00  0.00     0.235 A 
HETATM    6  N2  UNL     1      22.878  -1.027  54.447  1.00  0.00    -0.224 NA
HETATM    7  C6  UNL     1      23.397  -0.292  53.478  1.00  0.00     0.138 A 
HETATM    8  C14 UNL     1      24.717   0.097  53.426  1.00  0.00     0.041 A 
HETATM    9  C15 UNL     1      25.200   0.863  52.398  1.00  0.00     0.057 A 
HETATM   10  C16 UNL     1      26.547   1.177  52.490  1.00  0.00     0.102 A 
ENDROOT
BRANCH   7  11
HETATM   11  N3  UNL     1      22.465   0.154  52.514  1.00  0.00    -0.366 N 
HETATM   12  H6  UNL     1      22.344   0.070  51.454  1.00  0.00     0.161 HD
BRANCH  11  13
HETATM   13  C7  UNL     1      21.204   0.763  52.919  1.00  0.00     0.110 A 
HETATM   14  C8  UNL     1      20.096  -0.103  52.516  1.00  0.00    -0.002 A 
HETATM   15  C9  UNL     1      18.944   0.136  51.895  1.00  0.00    -0.002 A 
HETATM   16  C10 UNL     1      18.713   1.546  51.527  1.00  0.00     0.003 A 
HETATM   17  C11 UNL     1      19.697   2.359  51.869  1.00  0.00    -0.068 A 
HETATM   18  C13 UNL     1      21.010   2.172  52.519  1.00  0.00     0.064 A 
BRANCH  17  19
HETATM   19  C12 UNL     1      19.537   3.800  51.534  1.00  0.00     0.119 C 
HETATM   20 BR1  UNL     1      21.291   4.598  51.424  1.00  0.00    -0.092 Br
ENDBRANCH  17  19
ENDBRANCH  11  13
ENDBRANCH   7  11
BRANCH  10  21
HETATM   21  O2  UNL     1      27.121   1.954  51.487  1.00  0.00    -0.353 OA
HETATM   22  C17 UNL     1      26.367   2.757  50.616  1.00  0.00     0.210 C 
ENDBRANCH  10  21
BRANCH   1  23
HETATM   23  O1  UNL     1      28.639   1.086  53.548  1.00  0.00    -0.353 OA
HETATM   24  C1  UNL     1      29.754   0.250  53.677  1.00  0.00     0.210 C 
ENDBRANCH   1  23
TORSDOF 5
ENDMDL
MODEL 6
REMARK VINA RESULT:      -7.3      2.583      3.677
REMARK  5 active torsions:
REMARK  status: ('A' for Active; 'I' for Inactive)
REMARK    1  A    between atoms: O1_2  and  C2_3 
REMARK    2  A    between atoms: C6_9  and  N3_10 
REMARK    3  A    between atoms: N3_10  and  C7_11 
REMARK    4  A    between atoms: C11_15  and  C12_16 
REMARK    5  A    between atoms: C16_21  and  O2_22 
ROOT
HETATM    1  C2  UNL     1      22.228   0.067  53.166  1.00  0.00     0.103 A 
HETATM    2  C3  UNL     1      23.427  -0.631  53.206  1.00  0.00     0.072 A 
HETATM    3  C4  UNL     1      24.587   0.057  52.884  1.00  0.00     0.075 A 
HETATM    4  N1  UNL     1      25.727  -0.634  52.921  1.00  0.00    -0.241 NA
HETATM    5  C5  UNL     1      26.892  -0.033  52.618  1.00  0.00     0.235 A 
HETATM    6  N2  UNL     1      26.851   1.300  52.275  1.00  0.00    -0.224 NA
HETATM    7  C6  UNL     1      25.702   1.954  52.245  1.00  0.00     0.138 A 
HETATM    8  C14 UNL     1      24.483   1.388  52.546  1.00  0.00     0.041 A 
HETATM    9  C15 UNL     1      23.322   2.114  52.494  1.00  0.00     0.057 A 
HETATM   10  C16 UNL     1      22.178   1.404  52.819  1.00  0.00     0.102 A 
ENDROOT
BRANCH   7  11
HETATM   11  N3  UNL     1      25.796   3.288  51.790  1.00  0.00    -0.366 N 
HETATM   12  H6  UNL     1      26.153   4.219  52.179  1.00  0.00     0.161 HD
BRANCH  11  13
HETATM   13  C7  UNL     1      25.526   3.623  50.396  1.00  0.00     0.110 A 
HETATM   14  C8  UNL     1      26.792   3.732  49.670  1.00  0.00    -0.002 A 
HETATM   15  C9  UNL     1      27.274   4.642  48.830  1.00  0.00    -0.002 A 
HETATM   16  C10 UNL     1      26.375   5.781  48.558  1.00  0.00     0.003 A 
HETATM   17  C11 UNL     1      25.223   5.722  49.203  1.00  0.00    -0.068 A 
HETATM   18  C13 UNL     1      24.632   4.777  50.171  1.00  0.00     0.064 A 
BRANCH  17  19
HETATM   19  C12 UNL     1      24.260   6.833  48.978  1.00  0.00     0.119 C 
HETATM   20 BR1  UNL     1      23.823   7.615  50.688  1.00  0.00    -0.092 Br
ENDBRANCH  17  19
ENDBRANCH  11  13
ENDBRANCH   7  11
BRANCH  10  21
HETATM   21  O2  UNL     1      20.951   2.064  52.791  1.00  0.00    -0.353 OA
HETATM   22  C17 UNL     1      20.817   3.412  52.418  1.00  0.00     0.210 C 
ENDBRANCH  10  21
BRANCH   1  23
HETATM   23  O1  UNL     1      21.054  -0.548  53.480  1.00  0.00    -0.353 OA
HETATM   24  C1  UNL     1      20.852  -1.644  54.324  1.00  0.00     0.210 C 
ENDBRANCH   1  23
TORSDOF 5
ENDMDL
MODEL 7
REMARK VINA RESULT:      -7.2      2.911      5.283
REMARK  5 active torsions:
REMARK  status: ('A' for Active; 'I' for Inactive)
REMARK    1  A    between atoms: O1_2  and  C2_3 
REMARK    2  A    between atoms: C6_9  and  N3_10 
REMARK    3  A    between atoms: N3_10  and  C7_11 
REMARK    4  A    between atoms: C11_15  and  C12_16 
REMARK    5  A    between atoms: C16_21  and  O2_22 
ROOT
HETATM    1  C2  UNL     1      26.924  -0.475  53.102  1.00  0.00     0.103 A 
HETATM    2  C3  UNL     1      27.298   0.374  52.071  1.00  0.00     0.072 A 
HETATM    3  C4  UNL     1      26.478   1.458  51.795  1.00  0.00     0.075 A 
HETATM    4  N1  UNL     1      26.851   2.257  50.795  1.00  0.00    -0.241 NA
HETATM    5  C5  UNL     1      26.102   3.326  50.468  1.00  0.00     0.235 A 
HETATM    6  N2  UNL     1      24.958   3.550  51.200  1.00  0.00    -0.224 NA
HETATM    7  C6  UNL     1      24.615   2.735  52.183  1.00  0.00     0.138 A 
HETATM    8  C14 UNL     1      25.344   1.629  52.559  1.00  0.00     0.041 A 
HETATM    9  C15 UNL     1      24.938   0.815  53.584  1.00  0.00     0.057 A 
HETATM   10  C16 UNL     1      25.774  -0.260  53.839  1.00  0.00     0.102 A 
ENDROOT
BRANCH   7  11
HETATM   11  N3  UNL     1      23.373   3.032  52.788  1.00  0.00    -0.366 N 
HETATM   12  H6  UNL     1      23.031   3.630  53.606  1.00  0.00     0.161 HD
BRANCH  11  13
HETATM   13  C7  UNL     1      22.121   2.623  52.162  1.00  0.00     0.110 A 
HETATM   14  C8  UNL     1      21.583   1.461  52.871  1.00  0.00    -0.002 A 
HETATM   15  C9  UNL     1      21.097   0.295  52.455  1.00  0.00    -0.002 A 
HETATM   16  C10 UNL     1      21.090   0.109  50.990  1.00  0.00     0.003 A 
HETATM   17  C11 UNL     1      21.576   1.135  50.315  1.00  0.00    -0.068 A 
HETATM   18  C13 UNL     1      22.162   2.435  50.697  1.00  0.00     0.064 A 
BRANCH  17  19
HETATM   19  C12 UNL     1      21.599   1.024  48.832  1.00  0.00     0.119 C 
HETATM   20 BR1  UNL     1      22.544   2.549  48.122  1.00  0.00    -0.092 Br
ENDBRANCH  17  19
ENDBRANCH  11  13
ENDBRANCH   7  11
BRANCH  10  21
HETATM   21  O2  UNL     1      25.437  -1.140  54.865  1.00  0.00    -0.353 OA
HETATM   22  C17 UNL     1      24.158  -1.184  55.444  1.00  0.00     0.210 C 
ENDBRANCH  10  21
BRANCH   1  23
HETATM   23  O1  UNL     1      27.690  -1.552  53.430  1.00  0.00    -0.353 OA
HETATM   24  C1  UNL     1      29.077  -1.691  53.318  1.00  0.00     0.210 C 
ENDBRANCH   1  23
TORSDOF 5
ENDMDL
MODEL 8
REMARK VINA RESULT:      -7.2      1.907      2.269
REMARK  5 active torsions:
REMARK  status: ('A' for Active; 'I' for Inactive)
REMARK    1  A    between atoms: O1_2  and  C2_3 
REMARK    2  A    between atoms: C6_9  and  N3_10 
REMARK    3  A    between atoms: N3_10  and  C7_11 
REMARK    4  A    between atoms: C11_15  and  C12_16 
REMARK    5  A    between atoms: C16_21  and  O2_22 
ROOT
HETATM    1  C2  UNL     1      23.023   0.230  53.067  1.00  0.00     0.103 A 
HETATM    2  C3  UNL     1      21.938   1.080  52.907  1.00  0.00     0.072 A 
HETATM    3  C4  UNL     1      22.175   2.341  52.379  1.00  0.00     0.075 A 
HETATM    4  N1  UNL     1      21.120   3.143  52.242  1.00  0.00    -0.241 NA
HETATM    5  C5  UNL     1      21.274   4.383  51.740  1.00  0.00     0.235 A 
HETATM    6  N2  UNL     1      22.546   4.772  51.383  1.00  0.00    -0.224 NA
HETATM    7  C6  UNL     1      23.571   3.950  51.538  1.00  0.00     0.138 A 
HETATM    8  C14 UNL     1      23.469   2.674  52.045  1.00  0.00     0.041 A 
HETATM    9  C15 UNL     1      24.567   1.867  52.186  1.00  0.00     0.057 A 
HETATM   10  C16 UNL     1      24.304   0.615  52.716  1.00  0.00     0.102 A 
ENDROOT
BRANCH   7  11
HETATM   11  N3  UNL     1      24.828   4.511  51.217  1.00  0.00    -0.366 N 
HETATM   12  H6  UNL     1      25.749   4.695  51.728  1.00  0.00     0.161 HD
BRANCH  11  13
HETATM   13  C7  UNL     1      25.174   4.826  49.836  1.00  0.00     0.110 A 
HETATM   14  C8  UNL     1      26.372   4.076  49.455  1.00  0.00    -0.002 A 
HETATM   15  C9  UNL     1      27.499   4.428  48.843  1.00  0.00    -0.002 A 
HETATM   16  C10 UNL     1      27.588   5.852  48.465  1.00  0.00     0.003 A 
HETATM   17  C11 UNL     1      26.527   6.564  48.800  1.00  0.00    -0.068 A 
HETATM   18  C13 UNL     1      25.265   6.263  49.505  1.00  0.00     0.064 A 
BRANCH  17  19
HETATM   19  C12 UNL     1      26.539   8.010  48.449  1.00  0.00     0.119 C 
HETATM   20 BR1  UNL     1      28.205   8.770  49.059  1.00  0.00    -0.092 Br
ENDBRANCH  17  19
ENDBRANCH  11  13
ENDBRANCH   7  11
BRANCH  10  21
HETATM   21  O2  UNL     1      25.364  -0.271  52.895  1.00  0.00    -0.353 OA
HETATM   22  C17 UNL     1      26.576  -0.164  52.194  1.00  0.00     0.210 C 
ENDBRANCH  10  21
BRANCH   1  23
HETATM   23  O1  UNL     1      22.857  -1.024  53.570  1.00  0.00    -0.353 OA
HETATM   24  C1  UNL     1      21.961  -1.447  54.557  1.00  0.00     0.210 C 
ENDBRANCH   1  23
TORSDOF 5
ENDMDL
MODEL 9
REMARK VINA RESULT:      -6.9      3.168      4.984
REMARK  5 active torsions:
REMARK  status: ('A' for Active; 'I' for Inactive)
REMARK    1  A    between atoms: O1_2  and  C2_3 
REMARK    2  A    between atoms: C6_9  and  N3_10 
REMARK    3  A    between atoms: N3_10  and  C7_11 
REMARK    4  A    between atoms: C11_15  and  C12_16 
REMARK    5  A    between atoms: C16_21  and  O2_22 
ROOT
HETATM    1  C2  UNL     1      26.106  -0.339  53.737  1.00  0.00     0.103 A 
HETATM    2  C3  UNL     1      25.128  -0.906  54.541  1.00  0.00     0.072 A 
HETATM    3  C4  UNL     1      23.802  -0.629  54.242  1.00  0.00     0.075 A 
HETATM    4  N1  UNL     1      22.879  -1.177  55.031  1.00  0.00    -0.241 NA
HETATM    5  C5  UNL     1      21.573  -0.950  54.803  1.00  0.00     0.235 A 
HETATM    6  N2  UNL     1      21.243  -0.142  53.738  1.00  0.00    -0.224 NA
HETATM    7  C6  UNL     1      22.185   0.389  52.977  1.00  0.00     0.138 A 
HETATM    8  C14 UNL     1      23.534   0.189  53.166  1.00  0.00     0.041 A 
HETATM    9  C15 UNL     1      24.468   0.769  52.347  1.00  0.00     0.057 A 
HETATM   10  C16 UNL     1      25.783   0.477  52.668  1.00  0.00     0.102 A 
ENDROOT
BRANCH   7  11
HETATM   11  N3  UNL     1      21.709   1.268  51.979  1.00  0.00    -0.366 N 
HETATM   12  H6  UNL     1      21.483   1.209  50.935  1.00  0.00     0.161 HD
BRANCH  11  13
HETATM   13  C7  UNL     1      21.198   2.589  52.329  1.00  0.00     0.110 A 
HETATM   14  C8  UNL     1      19.882   2.776  51.716  1.00  0.00    -0.002 A 
HETATM   15  C9  UNL     1      19.346   3.773  51.018  1.00  0.00    -0.002 A 
HETATM   16  C10 UNL     1      20.234   4.933  50.801  1.00  0.00     0.003 A 
HETATM   17  C11 UNL     1      21.435   4.797  51.334  1.00  0.00    -0.068 A 
HETATM   18  C13 UNL     1      22.114   3.721  52.083  1.00  0.00     0.064 A 
BRANCH  17  19
HETATM   19  C12 UNL     1      22.387   5.927  51.161  1.00  0.00     0.119 C 
HETATM   20 BR1  UNL     1      24.139   5.198  50.805  1.00  0.00    -0.092 Br
ENDBRANCH  17  19
ENDBRANCH  11  13
ENDBRANCH   7  11
BRANCH  10  21
HETATM   21  O2  UNL     1      26.799   1.026  51.888  1.00  0.00    -0.353 OA
HETATM   22  C17 UNL     1      26.729   2.318  51.342  1.00  0.00     0.210 C 
ENDBRANCH  10  21
BRANCH   1  23
HETATM   23  O1  UNL     1      27.425  -0.579  53.971  1.00  0.00    -0.353 OA
HETATM   24  C1  UNL     1      28.279   0.084  54.858  1.00  0.00     0.210 C 
ENDBRANCH   1  23
TORSDOF 5
ENDMDL
