MODEL 1
REMARK VINA RESULT:      -8.9      0.000      0.000
REMARK  4 active torsions:
REMARK  status: ('A' for Active; 'I' for Inactive)
REMARK    1  A    between atoms: N1_1  and  C1_2 
REMARK    2  A    between atoms: C3_5  and  C4_6 
REMARK    3  A    between atoms: C4_6  and  C5_7 
REMARK    4  A    between atoms: C18_22  and  P1_23 
ROOT
HETATM    1  C5  UNL     1      24.813   1.414  51.772  1.00  0.00     0.048 C 
HETATM    2  C6  UNL     1      24.198   0.674  53.046  1.00  0.00    -0.021 C 
HETATM    3  C7  UNL     1      22.869   0.642  53.486  1.00  0.00    -0.021 C 
HETATM    4  C8  UNL     1      21.523   0.533  52.975  1.00  0.00     0.056 C 
HETATM    5  C9  UNL     1      20.408   1.428  53.158  1.00  0.00     0.178 C 
HETATM    6  O1  UNL     1      20.175   2.711  52.978  1.00  0.00    -0.386 OA
HETATM    7  C10 UNL     1      20.224   3.334  51.689  1.00  0.00     0.209 C 
HETATM    8  C11 UNL     1      21.769   3.475  51.455  1.00  0.00    -0.001 A 
HETATM    9  C12 UNL     1      21.977   4.744  51.907  1.00  0.00     0.012 A 
HETATM   10  C13 UNL     1      23.352   4.797  52.187  1.00  0.00     0.001 A 
HETATM   11  C14 UNL     1      24.276   3.797  52.047  1.00  0.00     0.011 A 
HETATM   12  C15 UNL     1      23.924   2.574  51.585  1.00  0.00    -0.016 A 
HETATM   13  C16 UNL     1      22.540   2.304  51.213  1.00  0.00     0.084 A 
HETATM   14  O2  UNL     1      21.958   1.083  50.670  1.00  0.00    -0.349 OA
HETATM   15  C17 UNL     1      21.521   0.027  51.496  1.00  0.00     0.186 C 
ENDROOT
BRANCH   1  16
HETATM   16  C4  UNL     1      26.221   1.410  51.944  1.00  0.00     0.056 C 
BRANCH  16  17
HETATM   17  C3  UNL     1      26.935   0.274  52.511  1.00  0.00    -0.011 A 
HETATM   18  C2  UNL     1      26.377  -0.913  52.021  1.00  0.00     0.129 A 
HETATM   19  N2  UNL     1      26.909  -2.136  52.282  1.00  0.00    -0.231 NA
HETATM   20  C1  UNL     1      27.998  -2.284  53.026  1.00  0.00     0.199 A 
HETATM   21  N3  UNL     1      28.619  -1.172  53.556  1.00  0.00    -0.218 NA
HETATM   22  C18 UNL     1      28.053   0.042  53.271  1.00  0.00     0.066 A 
BRANCH  20  23
HETATM   23  N1  UNL     1      28.595  -3.537  53.323  1.00  0.00    -0.271 NA
HETATM   24  H1  UNL     1      29.410  -4.011  52.898  1.00  0.00     0.127 HD
HETATM   25  H2  UNL     1      29.359  -3.560  52.640  1.00  0.00     0.127 HD
ENDBRANCH  20  23
BRANCH  22  26
HETATM   26  P1  UNL     1      28.838   1.449  54.119  1.00  0.00    -0.085 P 
HETATM   27  H19 UNL     1      27.871   2.167  54.953  1.00  0.00     0.061 HD
HETATM   28  H20 UNL     1      29.973   1.034  54.952  1.00  0.00     0.061 HD
ENDBRANCH  22  26
ENDBRANCH  16  17
ENDBRANCH   1  16
TORSDOF 4
ENDMDL
MODEL 2
REMARK VINA RESULT:      -8.9      1.640      1.966
REMARK  4 active torsions:
REMARK  status: ('A' for Active; 'I' for Inactive)
REMARK    1  A    between atoms: N1_1  and  C1_2 
REMARK    2  A    between atoms: C3_5  and  C4_6 
REMARK    3  A    between atoms: C4_6  and  C5_7 
REMARK    4  A    between atoms: C18_22  and  P1_23 
ROOT
HETATM    1  C5  UNL     1      25.544   1.954  51.676  1.00  0.00     0.048 C 
HETATM    2  C6  UNL     1      24.710   2.514  52.916  1.00  0.00    -0.021 C 
HETATM    3  C7  UNL     1      23.419   3.057  52.932  1.00  0.00    -0.021 C 
HETATM    4  C8  UNL     1      22.113   2.856  52.352  1.00  0.00     0.056 C 
HETATM    5  C9  UNL     1      21.303   3.779  51.598  1.00  0.00     0.178 C 
HETATM    6  O1  UNL     1      21.459   4.531  50.528  1.00  0.00    -0.386 OA
HETATM    7  C10 UNL     1      21.718   3.985  49.229  1.00  0.00     0.209 C 
HETATM    8  C11 UNL     1      23.242   3.626  49.326  1.00  0.00    -0.001 A 
HETATM    9  C12 UNL     1      23.800   4.750  48.797  1.00  0.00     0.012 A 
HETATM   10  C13 UNL     1      25.123   4.741  49.266  1.00  0.00     0.001 A 
HETATM   11  C14 UNL     1      25.719   3.815  50.079  1.00  0.00     0.011 A 
HETATM   12  C15 UNL     1      25.037   2.739  50.537  1.00  0.00    -0.016 A 
HETATM   13  C16 UNL     1      23.643   2.540  50.154  1.00  0.00     0.084 A 
HETATM   14  O2  UNL     1      22.744   1.448  50.501  1.00  0.00    -0.349 OA
HETATM   15  C17 UNL     1      21.999   1.441  51.699  1.00  0.00     0.186 C 
ENDROOT
BRANCH   1  16
HETATM   16  C4  UNL     1      26.886   1.822  52.117  1.00  0.00     0.056 C 
BRANCH  16  17
HETATM   17  C3  UNL     1      27.411   0.572  52.651  1.00  0.00    -0.011 A 
HETATM   18  C2  UNL     1      26.710  -0.502  52.089  1.00  0.00     0.129 A 
HETATM   19  N2  UNL     1      27.054  -1.798  52.308  1.00  0.00    -0.231 NA
HETATM   20  C1  UNL     1      28.083  -2.131  53.076  1.00  0.00     0.199 A 
HETATM   21  N3  UNL     1      28.835  -1.143  53.677  1.00  0.00    -0.218 NA
HETATM   22  C18 UNL     1      28.457   0.151  53.433  1.00  0.00     0.066 A 
BRANCH  20  23
HETATM   23  N1  UNL     1      28.487  -3.468  53.331  1.00  0.00    -0.271 NA
HETATM   24  H1  UNL     1      29.273  -3.837  53.892  1.00  0.00     0.127 HD
HETATM   25  H2  UNL     1      29.306  -3.318  53.929  1.00  0.00     0.127 HD
ENDBRANCH  20  23
BRANCH  22  26
HETATM   26  P1  UNL     1      29.400   1.394  54.371  1.00  0.00    -0.085 P 
HETATM   27  H19 UNL     1      28.603   2.602  54.594  1.00  0.00     0.061 HD
HETATM   28  H20 UNL     1      29.864   0.881  55.665  1.00  0.00     0.061 HD
ENDBRANCH  22  26
ENDBRANCH  16  17
ENDBRANCH   1  16
TORSDOF 4
ENDMDL
MODEL 3
REMARK VINA RESULT:      -8.6      2.894      3.974
REMARK  4 active torsions:
REMARK  status: ('A' for Active; 'I' for Inactive)
REMARK    1  A    between atoms: N1_1  and  C1_2 
REMARK    2  A    between atoms: C3_5  and  C4_6 
REMARK    3  A    between atoms: C4_6  and  C5_7 
REMARK    4  A    between atoms: C18_22  and  P1_23 
ROOT
HETATM    1  C5  UNL     1      24.771   2.151  51.339  1.00  0.00     0.048 C 
HETATM    2  C6  UNL     1      24.341   3.092  52.556  1.00  0.00    -0.021 C 
HETATM    3  C7  UNL     1      23.792   4.379  52.517  1.00  0.00    -0.021 C 
HETATM    4  C8  UNL     1      22.830   5.165  51.782  1.00  0.00     0.056 C 
HETATM    5  C9  UNL     1      23.017   6.416  51.092  1.00  0.00     0.178 C 
HETATM    6  O1  UNL     1      23.830   6.882  50.167  1.00  0.00    -0.386 OA
HETATM    7  C10 UNL     1      23.872   6.355  48.835  1.00  0.00     0.209 C 
HETATM    8  C11 UNL     1      24.692   5.033  49.036  1.00  0.00    -0.001 A 
HETATM    9  C12 UNL     1      25.948   5.468  48.739  1.00  0.00     0.012 A 
HETATM   10  C13 UNL     1      26.799   4.524  49.336  1.00  0.00     0.001 A 
HETATM   11  C14 UNL     1      26.447   3.418  50.061  1.00  0.00     0.011 A 
HETATM   12  C15 UNL     1      25.147   3.106  50.282  1.00  0.00    -0.016 A 
HETATM   13  C16 UNL     1      24.091   3.947  49.732  1.00  0.00     0.084 A 
HETATM   14  O2  UNL     1      22.646   3.779  49.819  1.00  0.00    -0.349 OA
HETATM   15  C17 UNL     1      21.900   4.252  50.919  1.00  0.00     0.186 C 
ENDROOT
BRANCH   1  16
HETATM   16  C4  UNL     1      25.555   1.107  51.893  1.00  0.00     0.056 C 
BRANCH  16  17
HETATM   17  C3  UNL     1      25.165   0.398  53.105  1.00  0.00    -0.011 A 
HETATM   18  C2  UNL     1      23.800   0.094  53.043  1.00  0.00     0.129 A 
HETATM   19  N2  UNL     1      23.175  -0.668  53.978  1.00  0.00    -0.231 NA
HETATM   20  C1  UNL     1      23.824  -1.175  55.019  1.00  0.00     0.199 A 
HETATM   21  N3  UNL     1      25.172  -0.930  55.169  1.00  0.00    -0.218 NA
HETATM   22  C18 UNL     1      25.767  -0.157  54.206  1.00  0.00     0.066 A 
BRANCH  20  23
HETATM   23  N1  UNL     1      23.218  -1.981  56.019  1.00  0.00    -0.271 NA
HETATM   24  H1  UNL     1      23.319  -2.990  56.220  1.00  0.00     0.127 HD
HETATM   25  H2  UNL     1      23.628  -2.898  55.810  1.00  0.00     0.127 HD
ENDBRANCH  20  23
BRANCH  22  26
HETATM   26  P1  UNL     1      27.510   0.247  54.543  1.00  0.00    -0.085 P 
HETATM   27  H19 UNL     1      27.932  -0.283  55.841  1.00  0.00     0.061 HD
HETATM   28  H20 UNL     1      28.410  -0.263  53.502  1.00  0.00     0.061 HD
ENDBRANCH  22  26
ENDBRANCH  16  17
ENDBRANCH   1  16
TORSDOF 4
ENDMDL
MODEL 4
REMARK VINA RESULT:      -8.6      2.276      3.644
REMARK  4 active torsions:
REMARK  status: ('A' for Active; 'I' for Inactive)
REMARK    1  A    between atoms: N1_1  and  C1_2 
REMARK    2  A    between atoms: C3_5  and  C4_6 
REMARK    3  A    between atoms: C4_6  and  C5_7 
REMARK    4  A    between atoms: C18_22  and  P1_23 
ROOT
HETATM    1  C5  UNL     1      23.976   2.050  51.723  1.00  0.00     0.048 C 
HETATM    2  C6  UNL     1      23.959   2.790  50.308  1.00  0.00    -0.021 C 
HETATM    3  C7  UNL     1      22.959   3.597  49.752  1.00  0.00    -0.021 C 
HETATM    4  C8  UNL     1      22.019   4.629  50.120  1.00  0.00     0.056 C 
HETATM    5  C9  UNL     1      20.587   4.649  49.965  1.00  0.00     0.178 C 
HETATM    6  O1  UNL     1      19.581   3.869  50.301  1.00  0.00    -0.386 OA
HETATM    7  C10 UNL     1      19.244   3.584  51.664  1.00  0.00     0.209 C 
HETATM    8  C11 UNL     1      20.331   2.522  52.052  1.00  0.00    -0.001 A 
HETATM    9  C12 UNL     1      19.654   1.366  51.803  1.00  0.00     0.012 A 
HETATM   10  C13 UNL     1      20.658   0.395  51.656  1.00  0.00     0.001 A 
HETATM   11  C14 UNL     1      22.013   0.570  51.737  1.00  0.00     0.011 A 
HETATM   12  C15 UNL     1      22.551   1.787  51.990  1.00  0.00    -0.016 A 
HETATM   13  C16 UNL     1      21.683   2.941  52.196  1.00  0.00     0.084 A 
HETATM   14  O2  UNL     1      22.046   4.317  52.509  1.00  0.00    -0.349 OA
HETATM   15  C17 UNL     1      22.382   5.251  51.507  1.00  0.00     0.186 C 
ENDROOT
BRANCH   1  16
HETATM   16  C4  UNL     1      25.044   1.118  51.679  1.00  0.00     0.056 C 
BRANCH  16  17
HETATM   17  C3  UNL     1      26.189   1.201  52.577  1.00  0.00    -0.011 A 
HETATM   18  C2  UNL     1      27.143   2.067  52.030  1.00  0.00     0.129 A 
HETATM   19  N2  UNL     1      28.268   2.434  52.696  1.00  0.00    -0.231 NA
HETATM   20  C1  UNL     1      28.537   1.989  53.918  1.00  0.00     0.199 A 
HETATM   21  N3  UNL     1      27.657   1.129  54.541  1.00  0.00    -0.218 NA
HETATM   22  C18 UNL     1      26.535   0.782  53.836  1.00  0.00     0.066 A 
BRANCH  20  23
HETATM   23  N1  UNL     1      29.695   2.347  54.658  1.00  0.00    -0.271 NA
HETATM   24  H1  UNL     1      30.638   2.625  54.338  1.00  0.00     0.127 HD
HETATM   25  H2  UNL     1      30.363   2.535  53.904  1.00  0.00     0.127 HD
ENDBRANCH  20  23
BRANCH  22  26
HETATM   26  P1  UNL     1      25.494  -0.466  54.657  1.00  0.00    -0.085 P 
HETATM   27  H19 UNL     1      24.660   0.144  55.695  1.00  0.00     0.061 HD
HETATM   28  H20 UNL     1      24.631  -1.182  53.709  1.00  0.00     0.061 HD
ENDBRANCH  22  26
ENDBRANCH  16  17
ENDBRANCH   1  16
TORSDOF 4
ENDMDL
MODEL 5
REMARK VINA RESULT:      -8.4      4.702      7.127
REMARK  4 active torsions:
REMARK  status: ('A' for Active; 'I' for Inactive)
REMARK    1  A    between atoms: N1_1  and  C1_2 
REMARK    2  A    between atoms: C3_5  and  C4_6 
REMARK    3  A    between atoms: C4_6  and  C5_7 
REMARK    4  A    between atoms: C18_22  and  P1_23 
ROOT
HETATM    1  C5  UNL     1      22.568   0.523  52.138  1.00  0.00     0.048 C 
HETATM    2  C6  UNL     1      22.921   2.042  52.479  1.00  0.00    -0.021 C 
HETATM    3  C7  UNL     1      24.091   2.565  53.044  1.00  0.00    -0.021 C 
HETATM    4  C8  UNL     1      25.526   2.413  52.990  1.00  0.00     0.056 C 
HETATM    5  C9  UNL     1      26.449   2.128  54.058  1.00  0.00     0.178 C 
HETATM    6  O1  UNL     1      26.571   1.208  54.992  1.00  0.00    -0.386 OA
HETATM    7  C10 UNL     1      26.779  -0.178  54.692  1.00  0.00     0.209 C 
HETATM    8  C11 UNL     1      25.338  -0.640  54.281  1.00  0.00    -0.001 A 
HETATM    9  C12 UNL     1      24.880  -1.124  55.469  1.00  0.00     0.012 A 
HETATM   10  C13 UNL     1      23.482  -1.116  55.337  1.00  0.00     0.001 A 
HETATM   11  C14 UNL     1      22.743  -0.707  54.260  1.00  0.00     0.011 A 
HETATM   12  C15 UNL     1      23.337  -0.242  53.136  1.00  0.00    -0.016 A 
HETATM   13  C16 UNL     1      24.792  -0.182  53.049  1.00  0.00     0.084 A 
HETATM   14  O2  UNL     1      25.627   0.249  51.936  1.00  0.00    -0.349 OA
HETATM   15  C17 UNL     1      25.958   1.604  51.725  1.00  0.00     0.186 C 
ENDROOT
BRANCH   1  16
HETATM   16  C4  UNL     1      21.172   0.479  51.890  1.00  0.00     0.056 C 
BRANCH  16  17
HETATM   17  C3  UNL     1      20.464   1.564  51.223  1.00  0.00    -0.011 A 
HETATM   18  C2  UNL     1      19.590   2.173  52.132  1.00  0.00     0.129 A 
HETATM   19  N2  UNL     1      18.880   3.291  51.830  1.00  0.00    -0.231 NA
HETATM   20  C1  UNL     1      18.968   3.880  50.644  1.00  0.00     0.199 A 
HETATM   21  N3  UNL     1      19.802   3.353  49.680  1.00  0.00    -0.218 NA
HETATM   22  C18 UNL     1      20.501   2.225  50.022  1.00  0.00     0.066 A 
BRANCH  20  23
HETATM   23  N1  UNL     1      18.253   5.051  50.282  1.00  0.00    -0.271 NA
HETATM   24  H1  UNL     1      18.095   5.930  50.803  1.00  0.00     0.127 HD
HETATM   25  H2  UNL     1      18.382   5.630  51.118  1.00  0.00     0.127 HD
ENDBRANCH  20  23
BRANCH  22  26
HETATM   26  P1  UNL     1      21.467   1.503  48.658  1.00  0.00    -0.085 P 
HETATM   27  H19 UNL     1      22.857   1.961  48.696  1.00  0.00     0.061 HD
HETATM   28  H20 UNL     1      21.446   0.035  48.678  1.00  0.00     0.061 HD
ENDBRANCH  22  26
ENDBRANCH  16  17
ENDBRANCH   1  16
TORSDOF 4
ENDMDL
MODEL 6
REMARK VINA RESULT:      -8.4      1.618      3.079
REMARK  4 active torsions:
REMARK  status: ('A' for Active; 'I' for Inactive)
REMARK    1  A    between atoms: N1_1  and  C1_2 
REMARK    2  A    between atoms: C3_5  and  C4_6 
REMARK    3  A    between atoms: C4_6  and  C5_7 
REMARK    4  A    between atoms: C18_22  and  P1_23 
ROOT
HETATM    1  C5  UNL     1      24.940   2.312  53.203  1.00  0.00     0.048 C 
HETATM    2  C6  UNL     1      25.853   2.295  51.893  1.00  0.00    -0.021 C 
HETATM    3  C7  UNL     1      25.490   2.564  50.568  1.00  0.00    -0.021 C 
HETATM    4  C8  UNL     1      24.675   3.467  49.790  1.00  0.00     0.056 C 
HETATM    5  C9  UNL     1      23.616   3.162  48.861  1.00  0.00     0.178 C 
HETATM    6  O1  UNL     1      22.500   2.466  48.882  1.00  0.00    -0.386 OA
HETATM    7  C10 UNL     1      21.400   2.792  49.741  1.00  0.00     0.209 C 
HETATM    8  C11 UNL     1      21.892   2.239  51.124  1.00  0.00    -0.001 A 
HETATM    9  C12 UNL     1      21.322   1.002  51.118  1.00  0.00     0.012 A 
HETATM   10  C13 UNL     1      22.070   0.266  52.051  1.00  0.00     0.001 A 
HETATM   11  C14 UNL     1      23.137   0.691  52.795  1.00  0.00     0.011 A 
HETATM   12  C15 UNL     1      23.602   1.959  52.695  1.00  0.00    -0.016 A 
HETATM   13  C16 UNL     1      22.957   2.906  51.793  1.00  0.00     0.084 A 
HETATM   14  O2  UNL     1      23.271   4.309  51.558  1.00  0.00    -0.349 OA
HETATM   15  C17 UNL     1      24.256   4.714  50.634  1.00  0.00     0.186 C 
ENDROOT
BRANCH   1  16
HETATM   16  C4  UNL     1      25.685   1.669  54.223  1.00  0.00     0.056 C 
BRANCH  16  17
HETATM   17  C3  UNL     1      26.607   0.575  53.944  1.00  0.00    -0.011 A 
HETATM   18  C2  UNL     1      25.885  -0.618  53.825  1.00  0.00     0.129 A 
HETATM   19  N2  UNL     1      26.461  -1.790  53.451  1.00  0.00    -0.231 NA
HETATM   20  C1  UNL     1      27.756  -1.879  53.174  1.00  0.00     0.199 A 
HETATM   21  N3  UNL     1      28.552  -0.757  53.264  1.00  0.00    -0.218 NA
HETATM   22  C18 UNL     1      27.935   0.406  53.645  1.00  0.00     0.066 A 
BRANCH  20  23
HETATM   23  N1  UNL     1      28.404  -3.077  52.773  1.00  0.00    -0.271 NA
HETATM   24  H1  UNL     1      29.408  -3.287  52.646  1.00  0.00     0.127 HD
HETATM   25  H2  UNL     1      29.388  -2.788  52.796  1.00  0.00     0.127 HD
ENDBRANCH  20  23
BRANCH  22  26
HETATM   26  P1  UNL     1      29.069   1.810  53.884  1.00  0.00    -0.085 P 
HETATM   27  H19 UNL     1      29.096   2.233  55.285  1.00  0.00     0.061 HD
HETATM   28  H20 UNL     1      30.436   1.500  53.450  1.00  0.00     0.061 HD
ENDBRANCH  22  26
ENDBRANCH  16  17
ENDBRANCH   1  16
TORSDOF 4
ENDMDL
MODEL 7
REMARK VINA RESULT:      -8.2      4.024      5.554
REMARK  4 active torsions:
REMARK  status: ('A' for Active; 'I' for Inactive)
REMARK    1  A    between atoms: N1_1  and  C1_2 
REMARK    2  A    between atoms: C3_5  and  C4_6 
REMARK    3  A    between atoms: C4_6  and  C5_7 
REMARK    4  A    between atoms: C18_22  and  P1_23 
ROOT
HETATM    1  C5  UNL     1      22.519   2.296  50.324  1.00  0.00     0.048 C 
HETATM    2  C6  UNL     1      21.389   1.368  49.684  1.00  0.00    -0.021 C 
HETATM    3  C7  UNL     1      20.401   0.616  50.331  1.00  0.00    -0.021 C 
HETATM    4  C8  UNL     1      19.480   0.694  51.440  1.00  0.00     0.056 C 
HETATM    5  C9  UNL     1      19.341  -0.191  52.569  1.00  0.00     0.178 C 
HETATM    6  O1  UNL     1      20.133  -0.681  53.499  1.00  0.00    -0.386 OA
HETATM    7  C10 UNL     1      20.796   0.144  54.465  1.00  0.00     0.209 C 
HETATM    8  C11 UNL     1      21.981   0.738  53.625  1.00  0.00    -0.001 A 
HETATM    9  C12 UNL     1      22.972  -0.147  53.926  1.00  0.00     0.012 A 
HETATM   10  C13 UNL     1      23.904   0.001  52.887  1.00  0.00     0.001 A 
HETATM   11  C14 UNL     1      23.832   0.841  51.808  1.00  0.00     0.011 A 
HETATM   12  C15 UNL     1      22.777   1.672  51.633  1.00  0.00    -0.016 A 
HETATM   13  C16 UNL     1      21.695   1.694  52.611  1.00  0.00     0.084 A 
HETATM   14  O2  UNL     1      20.497   2.524  52.634  1.00  0.00    -0.349 OA
HETATM   15  C17 UNL     1      19.323   2.168  51.938  1.00  0.00     0.186 C 
ENDROOT
BRANCH   1  16
HETATM   16  C4  UNL     1      23.449   2.572  49.289  1.00  0.00     0.056 C 
BRANCH  16  17
HETATM   17  C3  UNL     1      24.261   3.782  49.273  1.00  0.00    -0.011 A 
HETATM   18  C2  UNL     1      25.579   3.458  49.617  1.00  0.00     0.129 A 
HETATM   19  N2  UNL     1      26.592   4.363  49.573  1.00  0.00    -0.231 NA
HETATM   20  C1  UNL     1      26.394   5.621  49.200  1.00  0.00     0.199 A 
HETATM   21  N3  UNL     1      25.129   6.037  48.843  1.00  0.00    -0.218 NA
HETATM   22  C18 UNL     1      24.134   5.096  48.900  1.00  0.00     0.066 A 
BRANCH  20  23
HETATM   23  N1  UNL     1      27.419   6.601  49.131  1.00  0.00    -0.271 NA
HETATM   24  H1  UNL     1      28.379   6.598  49.515  1.00  0.00     0.127 HD
HETATM   25  H2  UNL     1      28.170   6.141  49.656  1.00  0.00     0.127 HD
ENDBRANCH  20  23
BRANCH  22  26
HETATM   26  P1  UNL     1      22.469   5.748  48.557  1.00  0.00    -0.085 P 
HETATM   27  H19 UNL     1      22.536   7.112  48.028  1.00  0.00     0.061 HD
HETATM   28  H20 UNL     1      21.725   4.904  47.615  1.00  0.00     0.061 HD
ENDBRANCH  22  26
ENDBRANCH  16  17
ENDBRANCH   1  16
TORSDOF 4
ENDMDL
MODEL 8
REMARK VINA RESULT:      -8.1      4.872      6.524
REMARK  4 active torsions:
REMARK  status: ('A' for Active; 'I' for Inactive)
REMARK    1  A    between atoms: N1_1  and  C1_2 
REMARK    2  A    between atoms: C3_5  and  C4_6 
REMARK    3  A    between atoms: C4_6  and  C5_7 
REMARK    4  A    between atoms: C18_22  and  P1_23 
ROOT
HETATM    1  C5  UNL     1      25.312   3.986  50.127  1.00  0.00     0.048 C 
HETATM    2  C6  UNL     1      24.142   3.363  49.238  1.00  0.00    -0.021 C 
HETATM    3  C7  UNL     1      23.123   2.483  49.622  1.00  0.00    -0.021 C 
HETATM    4  C8  UNL     1      22.206   2.236  50.710  1.00  0.00     0.056 C 
HETATM    5  C9  UNL     1      22.029   1.040  51.493  1.00  0.00     0.178 C 
HETATM    6  O1  UNL     1      22.799   0.243  52.204  1.00  0.00    -0.386 OA
HETATM    7  C10 UNL     1      23.498   0.682  53.374  1.00  0.00     0.209 C 
HETATM    8  C11 UNL     1      24.707   1.467  52.754  1.00  0.00    -0.001 A 
HETATM    9  C12 UNL     1      25.659   0.492  52.739  1.00  0.00     0.012 A 
HETATM   10  C13 UNL     1      26.596   0.930  51.790  1.00  0.00     0.001 A 
HETATM   11  C14 UNL     1      26.561   2.076  51.042  1.00  0.00     0.011 A 
HETATM   12  C15 UNL     1      25.543   2.961  51.161  1.00  0.00    -0.016 A 
HETATM   13  C16 UNL     1      24.463   2.711  52.109  1.00  0.00     0.084 A 
HETATM   14  O2  UNL     1      23.303   3.537  52.416  1.00  0.00    -0.349 OA
HETATM   15  C17 UNL     1      22.114   3.474  51.659  1.00  0.00     0.186 C 
ENDROOT
BRANCH   1  16
HETATM   16  C4  UNL     1      26.253   4.544  49.224  1.00  0.00     0.056 C 
BRANCH  16  17
HETATM   17  C3  UNL     1      26.517   5.976  49.159  1.00  0.00    -0.011 A 
HETATM   18  C2  UNL     1      25.418   6.672  49.676  1.00  0.00     0.129 A 
HETATM   19  N2  UNL     1      25.421   8.019  49.852  1.00  0.00    -0.231 NA
HETATM   20  C1  UNL     1      26.473   8.766  49.543  1.00  0.00     0.199 A 
HETATM   21  N3  UNL     1      27.605   8.171  49.026  1.00  0.00    -0.218 NA
HETATM   22  C18 UNL     1      27.564   6.811  48.861  1.00  0.00     0.066 A 
BRANCH  20  23
HETATM   23  N1  UNL     1      26.529  10.174  49.714  1.00  0.00    -0.271 NA
HETATM   24  H1  UNL     1      26.284  10.941  49.064  1.00  0.00     0.127 HD
HETATM   25  H2  UNL     1      26.191  10.499  48.802  1.00  0.00     0.127 HD
ENDBRANCH  20  23
BRANCH  22  26
HETATM   26  P1  UNL     1      29.031   6.113  48.041  1.00  0.00    -0.085 P 
HETATM   27  H19 UNL     1      29.464   4.877  48.697  1.00  0.00     0.061 HD
HETATM   28  H20 UNL     1      28.797   5.843  46.617  1.00  0.00     0.061 HD
ENDBRANCH  22  26
ENDBRANCH  16  17
ENDBRANCH   1  16
TORSDOF 4
ENDMDL
MODEL 9
REMARK VINA RESULT:      -8.1      4.086      5.836
REMARK  4 active torsions:
REMARK  status: ('A' for Active; 'I' for Inactive)
REMARK    1  A    between atoms: N1_1  and  C1_2 
REMARK    2  A    between atoms: C3_5  and  C4_6 
REMARK    3  A    between atoms: C4_6  and  C5_7 
REMARK    4  A    between atoms: C18_22  and  P1_23 
ROOT
HETATM    1  C5  UNL     1      24.649   1.758  51.621  1.00  0.00     0.048 C 
HETATM    2  C6  UNL     1      25.595   2.426  52.719  1.00  0.00    -0.021 C 
HETATM    3  C7  UNL     1      26.055   1.886  53.926  1.00  0.00    -0.021 C 
HETATM    4  C8  UNL     1      26.555   0.651  54.483  1.00  0.00     0.056 C 
HETATM    5  C9  UNL     1      26.059  -0.106  55.604  1.00  0.00     0.178 C 
HETATM    6  O1  UNL     1      24.905  -0.623  55.969  1.00  0.00    -0.386 OA
HETATM    7  C10 UNL     1      24.245  -1.652  55.221  1.00  0.00     0.209 C 
HETATM    8  C11 UNL     1      23.622  -0.839  54.033  1.00  0.00    -0.001 A 
HETATM    9  C12 UNL     1      22.371  -0.603  54.518  1.00  0.00     0.012 A 
HETATM   10  C13 UNL     1      21.906   0.493  53.772  1.00  0.00     0.001 A 
HETATM   11  C14 UNL     1      22.563   1.175  52.784  1.00  0.00     0.011 A 
HETATM   12  C15 UNL     1      23.815   0.828  52.404  1.00  0.00    -0.016 A 
HETATM   13  C16 UNL     1      24.486  -0.301  53.038  1.00  0.00     0.084 A 
HETATM   14  O2  UNL     1      25.803  -0.859  52.762  1.00  0.00    -0.349 OA
HETATM   15  C17 UNL     1      26.976  -0.344  53.353  1.00  0.00     0.186 C 
ENDROOT
BRANCH   1  16
HETATM   16  C4  UNL     1      24.223   2.804  50.763  1.00  0.00     0.056 C 
BRANCH  16  17
HETATM   17  C3  UNL     1      25.135   3.825  50.265  1.00  0.00    -0.011 A 
HETATM   18  C2  UNL     1      26.229   3.205  49.649  1.00  0.00     0.129 A 
HETATM   19  N2  UNL     1      27.190   3.901  48.986  1.00  0.00    -0.231 NA
HETATM   20  C1  UNL     1      27.152   5.223  48.882  1.00  0.00     0.199 A 
HETATM   21  N3  UNL     1      26.114   5.925  49.457  1.00  0.00    -0.218 NA
HETATM   22  C18 UNL     1      25.165   5.188  50.117  1.00  0.00     0.066 A 
BRANCH  20  23
HETATM   23  N1  UNL     1      28.126   5.996  48.196  1.00  0.00    -0.271 NA
HETATM   24  H1  UNL     1      28.870   5.708  47.537  1.00  0.00     0.127 HD
HETATM   25  H2  UNL     1      28.625   5.268  47.673  1.00  0.00     0.127 HD
ENDBRANCH  20  23
BRANCH  22  26
HETATM   26  P1  UNL     1      23.907   6.186  50.974  1.00  0.00    -0.085 P 
HETATM   27  H19 UNL     1      24.462   6.821  52.171  1.00  0.00     0.061 HD
HETATM   28  H20 UNL     1      23.332   7.221  50.106  1.00  0.00     0.061 HD
ENDBRANCH  22  26
ENDBRANCH  16  17
ENDBRANCH   1  16
TORSDOF 4
ENDMDL
