MODEL 1
REMARK VINA RESULT:      -5.9      0.000      0.000
REMARK  8 active torsions:
REMARK  status: ('A' for Active; 'I' for Inactive)
REMARK    1  A    between atoms: O1_2  and  C2_3 
REMARK    2  A    between atoms: C5_6  and  N1_7 
REMARK    3  A    between atoms: C6_8  and  N2_9 
REMARK    4  A    between atoms: C7_10  and  C8_11 
REMARK    5  A    between atoms: C8_11  and  N3_12 
REMARK    6  A    between atoms: N3_12  and  C10_14 
REMARK    7  A    between atoms: C10_14  and  C11_15 
REMARK    8  A    between atoms: C13_18  and  O2_19 
ROOT
HETATM    1  C2  UNL     1      26.192  -0.231  53.623  1.00  0.00     0.101 A 
HETATM    2  C3  UNL     1      24.950  -0.265  53.016  1.00  0.00     0.042 A 
HETATM    3  C4  UNL     1      24.271   0.926  52.846  1.00  0.00     0.031 A 
HETATM    4  C5  UNL     1      24.755   2.172  53.249  1.00  0.00     0.026 A 
HETATM    5  C12 UNL     1      25.995   2.164  53.850  1.00  0.00     0.068 A 
HETATM    6  C13 UNL     1      26.688   0.992  54.029  1.00  0.00     0.103 A 
ENDROOT
BRANCH   4   7
HETATM    7  N1  UNL     1      24.033   3.366  53.062  1.00  0.00    -0.374 NA
HETATM    8  C6  UNL     1      23.093   3.474  52.231  1.00  0.00     0.366 C 
BRANCH   8   9
HETATM    9  N2  UNL     1      22.239   2.985  51.237  1.00  0.00    -0.384 NA
HETATM   10  C7  UNL     1      21.109   2.421  51.494  1.00  0.00     0.276 C 
BRANCH  10  11
HETATM   11  C8  UNL     1      20.356   2.103  52.732  1.00  0.00     0.163 C 
BRANCH  11  12
HETATM   12  N3  UNL     1      20.341   0.740  53.107  1.00  0.00    -0.410 N 
HETATM   13  C9  UNL     1      19.364  -0.105  52.520  1.00  0.00     0.143 C 
BRANCH  12  14
HETATM   14  C10 UNL     1      20.839   0.388  54.380  1.00  0.00     0.148 C 
BRANCH  14  15
HETATM   15  C11 UNL     1      21.338  -1.031  54.485  1.00  0.00     0.241 C 
HETATM   16  F1  UNL     1      22.412  -1.119  55.348  1.00  0.00    -0.254 F 
ENDBRANCH  14  15
ENDBRANCH  12  14
ENDBRANCH  11  12
ENDBRANCH  10  11
ENDBRANCH   8   9
ENDBRANCH   4   7
BRANCH   6  17
HETATM   17  O2  UNL     1      27.927   0.931  54.623  1.00  0.00    -0.353 OA
HETATM   18  C14 UNL     1      29.109   1.182  53.892  1.00  0.00     0.210 C 
ENDBRANCH   6  17
BRANCH   1  19
HETATM   19  O1  UNL     1      26.883  -1.424  53.799  1.00  0.00    -0.353 OA
HETATM   20  C1  UNL     1      27.197  -2.191  52.659  1.00  0.00     0.210 C 
ENDBRANCH   1  19
TORSDOF 8
ENDMDL
MODEL 2
REMARK VINA RESULT:      -5.9      3.489      5.339
REMARK  8 active torsions:
REMARK  status: ('A' for Active; 'I' for Inactive)
REMARK    1  A    between atoms: O1_2  and  C2_3 
REMARK    2  A    between atoms: C5_6  and  N1_7 
REMARK    3  A    between atoms: C6_8  and  N2_9 
REMARK    4  A    between atoms: C7_10  and  C8_11 
REMARK    5  A    between atoms: C8_11  and  N3_12 
REMARK    6  A    between atoms: N3_12  and  C10_14 
REMARK    7  A    between atoms: C10_14  and  C11_15 
REMARK    8  A    between atoms: C13_18  and  O2_19 
ROOT
HETATM    1  C2  UNL     1      27.025  -0.150  53.639  1.00  0.00     0.101 A 
HETATM    2  C3  UNL     1      27.348   0.579  52.509  1.00  0.00     0.042 A 
HETATM    3  C4  UNL     1      26.325   1.181  51.803  1.00  0.00     0.031 A 
HETATM    4  C5  UNL     1      24.975   1.102  52.153  1.00  0.00     0.026 A 
HETATM    5  C12 UNL     1      24.694   0.367  53.283  1.00  0.00     0.068 A 
HETATM    6  C13 UNL     1      25.696  -0.240  54.001  1.00  0.00     0.103 A 
ENDROOT
BRANCH   4   7
HETATM    7  N1  UNL     1      23.958   1.727  51.406  1.00  0.00    -0.374 NA
HETATM    8  C6  UNL     1      23.504   2.867  51.687  1.00  0.00     0.366 C 
BRANCH   8   9
HETATM    9  N2  UNL     1      23.444   4.036  52.453  1.00  0.00    -0.384 NA
HETATM   10  C7  UNL     1      23.565   5.216  51.948  1.00  0.00     0.276 C 
BRANCH  10  11
HETATM   11  C8  UNL     1      23.782   5.752  50.581  1.00  0.00     0.163 C 
BRANCH  11  12
HETATM   12  N3  UNL     1      25.131   5.921  50.197  1.00  0.00    -0.410 N 
HETATM   13  C9  UNL     1      25.678   7.230  50.227  1.00  0.00     0.143 C 
BRANCH  12  14
HETATM   14  C10 UNL     1      25.694   4.992  49.295  1.00  0.00     0.148 C 
BRANCH  14  15
HETATM   15  C11 UNL     1      27.030   5.402  48.728  1.00  0.00     0.241 C 
HETATM   16  F1  UNL     1      27.827   4.302  48.488  1.00  0.00    -0.254 F 
ENDBRANCH  14  15
ENDBRANCH  12  14
ENDBRANCH  11  12
ENDBRANCH  10  11
ENDBRANCH   8   9
ENDBRANCH   4   7
BRANCH   6  17
HETATM   17  O2  UNL     1      25.468  -0.984  55.135  1.00  0.00    -0.353 OA
HETATM   18  C14 UNL     1      24.160  -1.330  55.540  1.00  0.00     0.210 C 
ENDBRANCH   6  17
BRANCH   1  19
HETATM   19  O1  UNL     1      28.047  -0.759  54.356  1.00  0.00    -0.353 OA
HETATM   20  C1  UNL     1      29.290  -0.952  53.720  1.00  0.00     0.210 C 
ENDBRANCH   1  19
TORSDOF 8
ENDMDL
MODEL 3
REMARK VINA RESULT:      -5.7      3.477      5.042
REMARK  8 active torsions:
REMARK  status: ('A' for Active; 'I' for Inactive)
REMARK    1  A    between atoms: O1_2  and  C2_3 
REMARK    2  A    between atoms: C5_6  and  N1_7 
REMARK    3  A    between atoms: C6_8  and  N2_9 
REMARK    4  A    between atoms: C7_10  and  C8_11 
REMARK    5  A    between atoms: C8_11  and  N3_12 
REMARK    6  A    between atoms: N3_12  and  C10_14 
REMARK    7  A    between atoms: C10_14  and  C11_15 
REMARK    8  A    between atoms: C13_18  and  O2_19 
ROOT
HETATM    1  C2  UNL     1      27.128  -0.261  53.874  1.00  0.00     0.101 A 
HETATM    2  C3  UNL     1      26.102  -1.066  53.413  1.00  0.00     0.042 A 
HETATM    3  C4  UNL     1      24.893  -0.474  53.101  1.00  0.00     0.031 A 
HETATM    4  C5  UNL     1      24.634   0.894  53.222  1.00  0.00     0.026 A 
HETATM    5  C12 UNL     1      25.680   1.660  53.684  1.00  0.00     0.068 A 
HETATM    6  C13 UNL     1      26.890   1.093  53.999  1.00  0.00     0.103 A 
ENDROOT
BRANCH   4   7
HETATM    7  N1  UNL     1      23.388   1.462  52.897  1.00  0.00    -0.374 NA
HETATM    8  C6  UNL     1      23.134   1.956  51.768  1.00  0.00     0.366 C 
BRANCH   8   9
HETATM    9  N2  UNL     1      23.460   2.307  50.453  1.00  0.00    -0.384 NA
HETATM   10  C7  UNL     1      24.023   3.425  50.142  1.00  0.00     0.276 C 
BRANCH  10  11
HETATM   11  C8  UNL     1      24.488   4.610  50.903  1.00  0.00     0.163 C 
BRANCH  11  12
HETATM   12  N3  UNL     1      25.344   5.490  50.202  1.00  0.00    -0.410 N 
HETATM   13  C9  UNL     1      25.230   6.881  50.459  1.00  0.00     0.143 C 
BRANCH  12  14
HETATM   14  C10 UNL     1      25.829   5.090  48.938  1.00  0.00     0.148 C 
BRANCH  14  15
HETATM   15  C11 UNL     1      27.260   4.615  48.941  1.00  0.00     0.241 C 
HETATM   16  F1  UNL     1      28.037   5.369  48.085  1.00  0.00    -0.254 F 
ENDBRANCH  14  15
ENDBRANCH  12  14
ENDBRANCH  11  12
ENDBRANCH  10  11
ENDBRANCH   8   9
ENDBRANCH   4   7
BRANCH   6  17
HETATM   17  O2  UNL     1      27.965   1.815  54.465  1.00  0.00    -0.353 OA
HETATM   18  C14 UNL     1      28.824   2.509  53.585  1.00  0.00     0.210 C 
ENDBRANCH   6  17
BRANCH   1  19
HETATM   19  O1  UNL     1      28.347  -0.848  54.189  1.00  0.00    -0.353 OA
HETATM   20  C1  UNL     1      29.016  -1.585  53.192  1.00  0.00     0.210 C 
ENDBRANCH   1  19
TORSDOF 8
ENDMDL
MODEL 4
REMARK VINA RESULT:      -5.7      1.586      2.037
REMARK  8 active torsions:
REMARK  status: ('A' for Active; 'I' for Inactive)
REMARK    1  A    between atoms: O1_2  and  C2_3 
REMARK    2  A    between atoms: C5_6  and  N1_7 
REMARK    3  A    between atoms: C6_8  and  N2_9 
REMARK    4  A    between atoms: C7_10  and  C8_11 
REMARK    5  A    between atoms: C8_11  and  N3_12 
REMARK    6  A    between atoms: N3_12  and  C10_14 
REMARK    7  A    between atoms: C10_14  and  C11_15 
REMARK    8  A    between atoms: C13_18  and  O2_19 
ROOT
HETATM    1  C2  UNL     1      26.880  -0.412  53.300  1.00  0.00     0.101 A 
HETATM    2  C3  UNL     1      26.848   0.108  52.019  1.00  0.00     0.042 A 
HETATM    3  C4  UNL     1      25.813   0.958  51.681  1.00  0.00     0.031 A 
HETATM    4  C5  UNL     1      24.786   1.332  52.552  1.00  0.00     0.026 A 
HETATM    5  C12 UNL     1      24.853   0.793  53.818  1.00  0.00     0.068 A 
HETATM    6  C13 UNL     1      25.873  -0.054  54.175  1.00  0.00     0.103 A 
ENDROOT
BRANCH   4   7
HETATM    7  N1  UNL     1      23.745   2.200  52.172  1.00  0.00    -0.374 NA
HETATM    8  C6  UNL     1      22.812   1.853  51.402  1.00  0.00     0.366 C 
BRANCH   8   9
HETATM    9  N2  UNL     1      22.135   0.938  50.589  1.00  0.00    -0.384 NA
HETATM   10  C7  UNL     1      20.932   0.541  50.827  1.00  0.00     0.276 C 
BRANCH  10  11
HETATM   11  C8  UNL     1      19.922   0.830  51.875  1.00  0.00     0.163 C 
BRANCH  11  12
HETATM   12  N3  UNL     1      19.854  -0.105  52.933  1.00  0.00    -0.410 N 
HETATM   13  C9  UNL     1      18.646  -0.828  53.112  1.00  0.00     0.143 C 
BRANCH  12  14
HETATM   14  C10 UNL     1      20.674   0.100  54.064  1.00  0.00     0.148 C 
BRANCH  14  15
HETATM   15  C11 UNL     1      21.632  -1.029  54.353  1.00  0.00     0.241 C 
HETATM   16  F1  UNL     1      22.353  -1.371  53.227  1.00  0.00    -0.254 F 
ENDBRANCH  14  15
ENDBRANCH  12  14
ENDBRANCH  11  12
ENDBRANCH  10  11
ENDBRANCH   8   9
ENDBRANCH   4   7
BRANCH   6  17
HETATM   17  O2  UNL     1      25.985  -0.618  55.425  1.00  0.00    -0.353 OA
HETATM   18  C14 UNL     1      24.868  -1.177  56.084  1.00  0.00     0.210 C 
ENDBRANCH   6  17
BRANCH   1  19
HETATM   19  O1  UNL     1      27.917  -1.268  53.648  1.00  0.00    -0.353 OA
HETATM   20  C1  UNL     1      29.219  -0.739  53.746  1.00  0.00     0.210 C 
ENDBRANCH   1  19
TORSDOF 8
ENDMDL
MODEL 5
REMARK VINA RESULT:      -5.5      2.055      2.794
REMARK  8 active torsions:
REMARK  status: ('A' for Active; 'I' for Inactive)
REMARK    1  A    between atoms: O1_2  and  C2_3 
REMARK    2  A    between atoms: C5_6  and  N1_7 
REMARK    3  A    between atoms: C6_8  and  N2_9 
REMARK    4  A    between atoms: C7_10  and  C8_11 
REMARK    5  A    between atoms: C8_11  and  N3_12 
REMARK    6  A    between atoms: N3_12  and  C10_14 
REMARK    7  A    between atoms: C10_14  and  C11_15 
REMARK    8  A    between atoms: C13_18  and  O2_19 
ROOT
HETATM    1  C2  UNL     1      26.083  -0.038  53.977  1.00  0.00     0.101 A 
HETATM    2  C3  UNL     1      25.034   0.300  53.141  1.00  0.00     0.042 A 
HETATM    3  C4  UNL     1      25.289   1.149  52.080  1.00  0.00     0.031 A 
HETATM    4  C5  UNL     1      26.543   1.694  51.792  1.00  0.00     0.026 A 
HETATM    5  C12 UNL     1      27.560   1.333  52.648  1.00  0.00     0.068 A 
HETATM    6  C13 UNL     1      27.330   0.491  53.708  1.00  0.00     0.103 A 
ENDROOT
BRANCH   4   7
HETATM    7  N1  UNL     1      26.763   2.558  50.703  1.00  0.00    -0.374 NA
HETATM    8  C6  UNL     1      26.006   3.526  50.432  1.00  0.00     0.366 C 
BRANCH   8   9
HETATM    9  N2  UNL     1      24.891   4.342  50.652  1.00  0.00    -0.384 NA
HETATM   10  C7  UNL     1      23.696   4.010  50.301  1.00  0.00     0.276 C 
BRANCH  10  11
HETATM   11  C8  UNL     1      23.090   2.831  49.634  1.00  0.00     0.163 C 
BRANCH  11  12
HETATM   12  N3  UNL     1      22.288   2.007  50.457  1.00  0.00    -0.410 N 
HETATM   13  C9  UNL     1      21.540   0.970  49.841  1.00  0.00     0.143 C 
BRANCH  12  14
HETATM   14  C10 UNL     1      21.801   2.541  51.670  1.00  0.00     0.148 C 
BRANCH  14  15
HETATM   15  C11 UNL     1      21.032   1.560  52.519  1.00  0.00     0.241 C 
HETATM   16  F1  UNL     1      21.829   1.027  53.511  1.00  0.00    -0.254 F 
ENDBRANCH  14  15
ENDBRANCH  12  14
ENDBRANCH  11  12
ENDBRANCH  10  11
ENDBRANCH   8   9
ENDBRANCH   4   7
BRANCH   6  17
HETATM   17  O2  UNL     1      28.311   0.102  54.590  1.00  0.00    -0.353 OA
HETATM   18  C14 UNL     1      29.477  -0.564  54.150  1.00  0.00     0.210 C 
ENDBRANCH   6  17
BRANCH   1  19
HETATM   19  O1  UNL     1      25.837  -0.890  55.046  1.00  0.00    -0.353 OA
HETATM   20  C1  UNL     1      24.499  -1.162  55.393  1.00  0.00     0.210 C 
ENDBRANCH   1  19
TORSDOF 8
ENDMDL
MODEL 6
REMARK VINA RESULT:      -5.5      2.043      3.692
REMARK  8 active torsions:
REMARK  status: ('A' for Active; 'I' for Inactive)
REMARK    1  A    between atoms: O1_2  and  C2_3 
REMARK    2  A    between atoms: C5_6  and  N1_7 
REMARK    3  A    between atoms: C6_8  and  N2_9 
REMARK    4  A    between atoms: C7_10  and  C8_11 
REMARK    5  A    between atoms: C8_11  and  N3_12 
REMARK    6  A    between atoms: N3_12  and  C10_14 
REMARK    7  A    between atoms: C10_14  and  C11_15 
REMARK    8  A    between atoms: C13_18  and  O2_19 
ROOT
HETATM    1  C2  UNL     1      26.419   0.675  54.301  1.00  0.00     0.101 A 
HETATM    2  C3  UNL     1      25.811  -0.342  55.016  1.00  0.00     0.042 A 
HETATM    3  C4  UNL     1      24.584  -0.806  54.581  1.00  0.00     0.031 A 
HETATM    4  C5  UNL     1      23.909  -0.315  53.461  1.00  0.00     0.026 A 
HETATM    5  C12 UNL     1      24.547   0.697  52.778  1.00  0.00     0.068 A 
HETATM    6  C13 UNL     1      25.766   1.174  53.191  1.00  0.00     0.103 A 
ENDROOT
BRANCH   4   7
HETATM    7  N1  UNL     1      22.658  -0.811  53.050  1.00  0.00    -0.374 NA
HETATM    8  C6  UNL     1      21.606  -0.121  53.074  1.00  0.00     0.366 C 
BRANCH   8   9
HETATM    9  N2  UNL     1      20.883   1.050  53.326  1.00  0.00    -0.384 NA
HETATM   10  C7  UNL     1      20.911   2.076  52.545  1.00  0.00     0.276 C 
BRANCH  10  11
HETATM   11  C8  UNL     1      21.597   2.403  51.271  1.00  0.00     0.163 C 
BRANCH  11  12
HETATM   12  N3  UNL     1      21.765   3.781  51.002  1.00  0.00    -0.410 N 
HETATM   13  C9  UNL     1      20.850   4.407  50.116  1.00  0.00     0.143 C 
BRANCH  12  14
HETATM   14  C10 UNL     1      23.058   4.334  51.114  1.00  0.00     0.148 C 
BRANCH  14  15
HETATM   15  C11 UNL     1      23.379   4.902  52.474  1.00  0.00     0.241 C 
HETATM   16  F1  UNL     1      23.888   3.930  53.312  1.00  0.00    -0.254 F 
ENDBRANCH  14  15
ENDBRANCH  12  14
ENDBRANCH  11  12
ENDBRANCH  10  11
ENDBRANCH   8   9
ENDBRANCH   4   7
BRANCH   6  17
HETATM   17  O2  UNL     1      26.443   2.181  52.543  1.00  0.00    -0.353 OA
HETATM   18  C14 UNL     1      26.296   2.395  51.155  1.00  0.00     0.210 C 
ENDBRANCH   6  17
BRANCH   1  19
HETATM   19  O1  UNL     1      27.652   1.148  54.730  1.00  0.00    -0.353 OA
HETATM   20  C1  UNL     1      28.725   0.239  54.822  1.00  0.00     0.210 C 
ENDBRANCH   1  19
TORSDOF 8
ENDMDL
MODEL 7
REMARK VINA RESULT:      -5.5      2.044      2.922
REMARK  8 active torsions:
REMARK  status: ('A' for Active; 'I' for Inactive)
REMARK    1  A    between atoms: O1_2  and  C2_3 
REMARK    2  A    between atoms: C5_6  and  N1_7 
REMARK    3  A    between atoms: C6_8  and  N2_9 
REMARK    4  A    between atoms: C7_10  and  C8_11 
REMARK    5  A    between atoms: C8_11  and  N3_12 
REMARK    6  A    between atoms: N3_12  and  C10_14 
REMARK    7  A    between atoms: C10_14  and  C11_15 
REMARK    8  A    between atoms: C13_18  and  O2_19 
ROOT
HETATM    1  C2  UNL     1      26.717  -0.006  53.747  1.00  0.00     0.101 A 
HETATM    2  C3  UNL     1      27.109   0.771  52.673  1.00  0.00     0.042 A 
HETATM    3  C4  UNL     1      26.131   1.274  51.836  1.00  0.00     0.031 A 
HETATM    4  C5  UNL     1      24.763   1.049  52.001  1.00  0.00     0.026 A 
HETATM    5  C12 UNL     1      24.413   0.270  53.082  1.00  0.00     0.068 A 
HETATM    6  C13 UNL     1      25.368  -0.240  53.927  1.00  0.00     0.103 A 
ENDROOT
BRANCH   4   7
HETATM    7  N1  UNL     1      23.795   1.577  51.126  1.00  0.00    -0.374 NA
HETATM    8  C6  UNL     1      22.738   2.131  51.527  1.00  0.00     0.366 C 
BRANCH   8   9
HETATM    9  N2  UNL     1      21.859   2.580  52.519  1.00  0.00    -0.384 NA
HETATM   10  C7  UNL     1      20.665   2.117  52.664  1.00  0.00     0.276 C 
BRANCH  10  11
HETATM   11  C8  UNL     1      19.850   1.089  51.970  1.00  0.00     0.163 C 
BRANCH  11  12
HETATM   12  N3  UNL     1      19.370   0.037  52.784  1.00  0.00    -0.410 N 
HETATM   13  C9  UNL     1      20.285  -0.602  53.661  1.00  0.00     0.143 C 
BRANCH  12  14
HETATM   14  C10 UNL     1      18.258  -0.706  52.334  1.00  0.00     0.148 C 
BRANCH  14  15
HETATM   15  C11 UNL     1      17.560  -1.500  53.410  1.00  0.00     0.241 C 
HETATM   16  F1  UNL     1      17.044  -2.676  52.906  1.00  0.00    -0.254 F 
ENDBRANCH  14  15
ENDBRANCH  12  14
ENDBRANCH  11  12
ENDBRANCH  10  11
ENDBRANCH   8   9
ENDBRANCH   4   7
BRANCH   6  17
HETATM   17  O2  UNL     1      25.071  -1.023  55.018  1.00  0.00    -0.353 OA
HETATM   18  C14 UNL     1      23.736  -1.317  55.373  1.00  0.00     0.210 C 
ENDBRANCH   6  17
BRANCH   1  19
HETATM   19  O1  UNL     1      27.693  -0.516  54.594  1.00  0.00    -0.353 OA
HETATM   20  C1  UNL     1      28.972   0.076  54.578  1.00  0.00     0.210 C 
ENDBRANCH   1  19
TORSDOF 8
ENDMDL
MODEL 8
REMARK VINA RESULT:      -5.4      3.860      5.287
REMARK  8 active torsions:
REMARK  status: ('A' for Active; 'I' for Inactive)
REMARK    1  A    between atoms: O1_2  and  C2_3 
REMARK    2  A    between atoms: C5_6  and  N1_7 
REMARK    3  A    between atoms: C6_8  and  N2_9 
REMARK    4  A    between atoms: C7_10  and  C8_11 
REMARK    5  A    between atoms: C8_11  and  N3_12 
REMARK    6  A    between atoms: N3_12  and  C10_14 
REMARK    7  A    between atoms: C10_14  and  C11_15 
REMARK    8  A    between atoms: C13_18  and  O2_19 
ROOT
HETATM    1  C2  UNL     1      25.970  -0.214  53.850  1.00  0.00     0.101 A 
HETATM    2  C3  UNL     1      24.961   0.404  53.133  1.00  0.00     0.042 A 
HETATM    3  C4  UNL     1      25.310   1.384  52.223  1.00  0.00     0.031 A 
HETATM    4  C5  UNL     1      26.621   1.799  51.977  1.00  0.00     0.026 A 
HETATM    5  C12 UNL     1      27.595   1.160  52.711  1.00  0.00     0.068 A 
HETATM    6  C13 UNL     1      27.273   0.183  53.620  1.00  0.00     0.103 A 
ENDROOT
BRANCH   4   7
HETATM    7  N1  UNL     1      26.937   2.804  51.044  1.00  0.00    -0.374 NA
HETATM    8  C6  UNL     1      26.081   3.325  50.282  1.00  0.00     0.366 C 
BRANCH   8   9
HETATM    9  N2  UNL     1      24.787   3.479  49.773  1.00  0.00    -0.384 NA
HETATM   10  C7  UNL     1      23.950   4.346  50.229  1.00  0.00     0.276 C 
BRANCH  10  11
HETATM   11  C8  UNL     1      23.985   5.374  51.298  1.00  0.00     0.163 C 
BRANCH  11  12
HETATM   12  N3  UNL     1      24.144   6.709  50.858  1.00  0.00    -0.410 N 
HETATM   13  C9  UNL     1      23.014   7.373  50.314  1.00  0.00     0.143 C 
BRANCH  12  14
HETATM   14  C10 UNL     1      25.423   7.129  50.436  1.00  0.00     0.148 C 
BRANCH  14  15
HETATM   15  C11 UNL     1      25.538   7.386  48.954  1.00  0.00     0.241 C 
HETATM   16  F1  UNL     1      25.836   6.225  48.269  1.00  0.00    -0.254 F 
ENDBRANCH  14  15
ENDBRANCH  12  14
ENDBRANCH  11  12
ENDBRANCH  10  11
ENDBRANCH   8   9
ENDBRANCH   4   7
BRANCH   6  17
HETATM   17  O2  UNL     1      28.208  -0.484  54.376  1.00  0.00    -0.353 OA
HETATM   18  C14 UNL     1      29.439  -0.904  53.826  1.00  0.00     0.210 C 
ENDBRANCH   6  17
BRANCH   1  19
HETATM   19  O1  UNL     1      25.630  -1.201  54.766  1.00  0.00    -0.353 OA
HETATM   20  C1  UNL     1      24.355  -1.151  55.364  1.00  0.00     0.210 C 
ENDBRANCH   1  19
TORSDOF 8
ENDMDL
MODEL 9
REMARK VINA RESULT:      -5.4      2.272      3.707
REMARK  8 active torsions:
REMARK  status: ('A' for Active; 'I' for Inactive)
REMARK    1  A    between atoms: O1_2  and  C2_3 
REMARK    2  A    between atoms: C5_6  and  N1_7 
REMARK    3  A    between atoms: C6_8  and  N2_9 
REMARK    4  A    between atoms: C7_10  and  C8_11 
REMARK    5  A    between atoms: C8_11  and  N3_12 
REMARK    6  A    between atoms: N3_12  and  C10_14 
REMARK    7  A    between atoms: C10_14  and  C11_15 
REMARK    8  A    between atoms: C13_18  and  O2_19 
ROOT
HETATM    1  C2  UNL     1      26.561   1.495  53.998  1.00  0.00     0.101 A 
HETATM    2  C3  UNL     1      25.433   2.143  53.526  1.00  0.00     0.042 A 
HETATM    3  C4  UNL     1      24.320   1.383  53.220  1.00  0.00     0.031 A 
HETATM    4  C5  UNL     1      24.255  -0.006  53.356  1.00  0.00     0.026 A 
HETATM    5  C12 UNL     1      25.397  -0.613  53.828  1.00  0.00     0.068 A 
HETATM    6  C13 UNL     1      26.515   0.122  54.139  1.00  0.00     0.103 A 
ENDROOT
BRANCH   4   7
HETATM    7  N1  UNL     1      23.103  -0.748  53.032  1.00  0.00    -0.374 NA
HETATM    8  C6  UNL     1      21.936  -0.329  53.247  1.00  0.00     0.366 C 
BRANCH   8   9
HETATM    9  N2  UNL     1      21.009   0.614  53.704  1.00  0.00    -0.384 NA
HETATM   10  C7  UNL     1      20.465   1.495  52.936  1.00  0.00     0.276 C 
BRANCH  10  11
HETATM   11  C8  UNL     1      20.564   1.832  51.495  1.00  0.00     0.163 C 
BRANCH  11  12
HETATM   12  N3  UNL     1      20.848   3.185  51.201  1.00  0.00    -0.410 N 
HETATM   13  C9  UNL     1      21.021   3.553  49.841  1.00  0.00     0.143 C 
BRANCH  12  14
HETATM   14  C10 UNL     1      21.497   3.964  52.183  1.00  0.00     0.148 C 
BRANCH  14  15
HETATM   15  C11 UNL     1      22.871   4.446  51.790  1.00  0.00     0.241 C 
HETATM   16  F1  UNL     1      22.934   5.824  51.788  1.00  0.00    -0.254 F 
ENDBRANCH  14  15
ENDBRANCH  12  14
ENDBRANCH  11  12
ENDBRANCH  10  11
ENDBRANCH   8   9
ENDBRANCH   4   7
BRANCH   6  17
HETATM   17  O2  UNL     1      27.679  -0.436  54.613  1.00  0.00    -0.353 OA
HETATM   18  C14 UNL     1      28.627  -1.016  53.742  1.00  0.00     0.210 C 
ENDBRANCH   6  17
BRANCH   1  19
HETATM   19  O1  UNL     1      27.684   2.251  54.308  1.00  0.00    -0.353 OA
HETATM   20  C1  UNL     1      28.596   2.551  53.277  1.00  0.00     0.210 C 
ENDBRANCH   1  19
TORSDOF 8
ENDMDL
