MODEL 1
REMARK VINA RESULT:      -7.6      0.000      0.000
REMARK  6 active torsions:
REMARK  status: ('A' for Active; 'I' for Inactive)
REMARK    1  A    between atoms: C2_2  and  C3_3 
REMARK    2  A    between atoms: C3_3  and  C4_5 
REMARK    3  A    between atoms: C8_9  and  N1_10 
REMARK    4  A    between atoms: C9_11  and  N2_12 
REMARK    5  A    between atoms: C12_15  and  C13_16 
REMARK    6  A    between atoms: C18_21  and  N3_22 
ROOT
HETATM    1  C4  UNL     1      27.363   0.125  53.796  1.00  0.00     0.020 C 
HETATM    2  C5  UNL     1      26.581  -0.929  53.379  1.00  0.00     0.037 C 
HETATM    3  C6  UNL     1      25.529  -0.107  54.159  1.00  0.00     0.259 A 
HETATM    4  C7  UNL     1      25.648   1.042  54.872  1.00  0.00     0.030 A 
HETATM    5  C8  UNL     1      26.255   1.200  53.563  1.00  0.00     0.098 A 
HETATM    6  C9  UNL     1      25.217   1.081  52.566  1.00  0.00     0.156 C 
HETATM    7  C19 UNL     1      23.775   0.607  53.044  1.00  0.00     0.327 C 
HETATM    8  N4  UNL     1      24.498  -0.568  53.080  1.00  0.00     0.335 N 
ENDROOT
BRANCH   6   9
HETATM    9  N2  UNL     1      24.910   2.354  51.866  1.00  0.00    -0.348 N 
HETATM   10  C10 UNL     1      23.906   3.069  52.634  1.00  0.00     0.089 A 
HETATM   11  C11 UNL     1      23.368   4.245  52.352  1.00  0.00     0.024 A 
HETATM   12  C12 UNL     1      23.798   4.939  51.148  1.00  0.00    -0.049 A 
HETATM   13  C17 UNL     1      24.709   4.304  50.444  1.00  0.00     0.037 A 
HETATM   14  C18 UNL     1      25.372   2.991  50.672  1.00  0.00     0.343 A 
BRANCH  12  15
HETATM   15  C13 UNL     1      23.282   6.240  50.727  1.00  0.00    -0.024 C 
HETATM   16  C14 UNL     1      21.883   6.539  51.208  1.00  0.00     0.019 C 
HETATM   17  C15 UNL     1      24.155   7.401  51.176  1.00  0.00     0.019 C 
HETATM   18  C16 UNL     1      23.270   6.295  49.210  1.00  0.00     0.019 C 
ENDBRANCH  12  15
BRANCH  14  19
HETATM   19  N3  UNL     1      26.793   3.348  50.831  1.00  0.00     0.105 N 
HETATM   20  H22 UNL     1      27.084   3.008  51.772  1.00  0.00     0.315 HD
HETATM   21  H23 UNL     1      26.920   4.383  50.823  1.00  0.00     0.315 HD
ENDBRANCH  14  19
ENDBRANCH   6   9
BRANCH   5  22
HETATM   22  N1  UNL     1      26.946   2.489  53.593  1.00  0.00    -0.316 NA
HETATM   23  H6  UNL     1      27.826   2.346  54.091  1.00  0.00     0.119 HD
HETATM   24  H7  UNL     1      27.088   2.709  52.566  1.00  0.00     0.119 HD
ENDBRANCH   5  22
BRANCH   1  25
HETATM   25  C3  UNL     1      28.791   0.388  54.258  1.00  0.00     0.176 C 
HETATM   26  O1  UNL     1      29.137   1.365  54.958  1.00  0.00    -0.288 OA
BRANCH  25  27
HETATM   27  C2  UNL     1      29.761  -0.578  53.834  1.00  0.00     0.029 C 
HETATM   28  C1  UNL     1      30.038  -1.834  53.458  1.00  0.00     0.035 C 
ENDBRANCH  25  27
ENDBRANCH   1  25
TORSDOF 6
ENDMDL
MODEL 2
REMARK VINA RESULT:      -7.1      1.312      2.174
REMARK  6 active torsions:
REMARK  status: ('A' for Active; 'I' for Inactive)
REMARK    1  A    between atoms: C2_2  and  C3_3 
REMARK    2  A    between atoms: C3_3  and  C4_5 
REMARK    3  A    between atoms: C8_9  and  N1_10 
REMARK    4  A    between atoms: C9_11  and  N2_12 
REMARK    5  A    between atoms: C12_15  and  C13_16 
REMARK    6  A    between atoms: C18_21  and  N3_22 
ROOT
HETATM    1  C4  UNL     1      27.267   0.120  53.648  1.00  0.00     0.020 C 
HETATM    2  C5  UNL     1      26.471  -0.838  53.061  1.00  0.00     0.037 C 
HETATM    3  C6  UNL     1      25.391   0.010  53.772  1.00  0.00     0.259 A 
HETATM    4  C7  UNL     1      25.502   1.095  54.579  1.00  0.00     0.030 A 
HETATM    5  C8  UNL     1      26.275   1.292  53.368  1.00  0.00     0.098 A 
HETATM    6  C9  UNL     1      25.362   1.323  52.249  1.00  0.00     0.156 C 
HETATM    7  C19 UNL     1      23.842   0.933  52.516  1.00  0.00     0.327 C 
HETATM    8  N4  UNL     1      24.472  -0.295  52.547  1.00  0.00     0.335 N 
ENDROOT
BRANCH   6   9
HETATM    9  N2  UNL     1      25.235   2.661  51.617  1.00  0.00    -0.348 N 
HETATM   10  C10 UNL     1      26.303   2.812  50.644  1.00  0.00     0.089 A 
HETATM   11  C11 UNL     1      26.536   3.858  49.866  1.00  0.00     0.024 A 
HETATM   12  C12 UNL     1      25.651   5.009  49.959  1.00  0.00    -0.049 A 
HETATM   13  C17 UNL     1      24.679   4.884  50.834  1.00  0.00     0.037 A 
HETATM   14  C18 UNL     1      24.332   3.762  51.750  1.00  0.00     0.343 A 
BRANCH  12  15
HETATM   15  C13 UNL     1      25.802   6.221  49.156  1.00  0.00    -0.024 C 
HETATM   16  C14 UNL     1      27.061   6.264  48.326  1.00  0.00     0.019 C 
HETATM   17  C15 UNL     1      24.641   6.450  48.201  1.00  0.00     0.019 C 
HETATM   18  C16 UNL     1      25.818   7.423  50.082  1.00  0.00     0.019 C 
ENDBRANCH  12  15
BRANCH  14  19
HETATM   19  N3  UNL     1      22.993   3.349  51.293  1.00  0.00     0.105 N 
HETATM   20  H22 UNL     1      23.136   2.711  50.483  1.00  0.00     0.315 HD
HETATM   21  H23 UNL     1      22.448   4.168  50.950  1.00  0.00     0.315 HD
ENDBRANCH  14  19
ENDBRANCH   6   9
BRANCH   5  22
HETATM   22  N1  UNL     1      27.046   2.518  53.578  1.00  0.00    -0.316 NA
HETATM   23  H6  UNL     1      26.828   2.853  54.517  1.00  0.00     0.119 HD
HETATM   24  H7  UNL     1      28.050   2.189  53.482  1.00  0.00     0.119 HD
ENDBRANCH   5  22
BRANCH   1  25
HETATM   25  C3  UNL     1      28.642   0.239  54.294  1.00  0.00     0.176 C 
HETATM   26  O1  UNL     1      28.940   1.080  55.169  1.00  0.00    -0.288 OA
BRANCH  25  27
HETATM   27  C2  UNL     1      29.620  -0.701  53.831  1.00  0.00     0.029 C 
HETATM   28  C1  UNL     1      29.917  -1.950  53.446  1.00  0.00     0.035 C 
ENDBRANCH  25  27
ENDBRANCH   1  25
TORSDOF 6
ENDMDL
MODEL 3
REMARK VINA RESULT:      -7.0      3.389      6.617
REMARK  6 active torsions:
REMARK  status: ('A' for Active; 'I' for Inactive)
REMARK    1  A    between atoms: C2_2  and  C3_3 
REMARK    2  A    between atoms: C3_3  and  C4_5 
REMARK    3  A    between atoms: C8_9  and  N1_10 
REMARK    4  A    between atoms: C9_11  and  N2_12 
REMARK    5  A    between atoms: C12_15  and  C13_16 
REMARK    6  A    between atoms: C18_21  and  N3_22 
ROOT
HETATM    1  C4  UNL     1      26.175   6.107  49.413  1.00  0.00     0.020 C 
HETATM    2  C5  UNL     1      25.682   7.212  50.070  1.00  0.00     0.037 C 
HETATM    3  C6  UNL     1      24.368   6.634  49.494  1.00  0.00     0.259 A 
HETATM    4  C7  UNL     1      24.145   5.560  48.694  1.00  0.00     0.030 A 
HETATM    5  C8  UNL     1      24.984   5.182  49.816  1.00  0.00     0.098 A 
HETATM    6  C9  UNL     1      24.217   5.343  51.029  1.00  0.00     0.156 C 
HETATM    7  C19 UNL     1      22.802   6.064  50.926  1.00  0.00     0.327 C 
HETATM    8  N4  UNL     1      23.681   7.122  50.809  1.00  0.00     0.335 N 
ENDROOT
BRANCH   6   9
HETATM    9  N2  UNL     1      23.866   4.060  51.690  1.00  0.00    -0.348 N 
HETATM   10  C10 UNL     1      22.640   3.559  51.093  1.00  0.00     0.089 A 
HETATM   11  C11 UNL     1      21.999   2.441  51.399  1.00  0.00     0.024 A 
HETATM   12  C12 UNL     1      22.544   1.586  52.443  1.00  0.00    -0.049 A 
HETATM   13  C17 UNL     1      23.654   2.028  52.990  1.00  0.00     0.037 A 
HETATM   14  C18 UNL     1      24.447   3.259  52.722  1.00  0.00     0.343 A 
BRANCH  12  15
HETATM   15  C13 UNL     1      21.931   0.330  52.871  1.00  0.00    -0.024 C 
HETATM   16  C14 UNL     1      22.919  -0.747  53.247  1.00  0.00     0.019 C 
HETATM   17  C15 UNL     1      20.996   0.499  54.057  1.00  0.00     0.019 C 
HETATM   18  C16 UNL     1      21.072  -0.206  51.741  1.00  0.00     0.019 C 
ENDBRANCH  12  15
BRANCH  14  19
HETATM   19  N3  UNL     1      25.744   2.736  52.256  1.00  0.00     0.105 N 
HETATM   20  H22 UNL     1      25.557   2.212  51.375  1.00  0.00     0.315 HD
HETATM   21  H23 UNL     1      26.140   2.058  52.941  1.00  0.00     0.315 HD
ENDBRANCH  14  19
ENDBRANCH   6   9
BRANCH   5  22
HETATM   22  N1  UNL     1      25.435   3.819  49.540  1.00  0.00    -0.316 NA
HETATM   23  H6  UNL     1      26.276   3.661  50.097  1.00  0.00     0.119 HD
HETATM   24  H7  UNL     1      24.616   3.226  49.859  1.00  0.00     0.119 HD
ENDBRANCH   5  22
BRANCH   1  25
HETATM   25  C3  UNL     1      27.410   5.693  48.621  1.00  0.00     0.176 C 
HETATM   26  O1  UNL     1      27.873   4.532  48.594  1.00  0.00    -0.288 OA
BRANCH  25  27
HETATM   27  C2  UNL     1      28.041   6.742  47.876  1.00  0.00     0.029 C 
HETATM   28  C1  UNL     1      27.925   7.788  47.046  1.00  0.00     0.035 C 
ENDBRANCH  25  27
ENDBRANCH   1  25
TORSDOF 6
ENDMDL
MODEL 4
REMARK VINA RESULT:      -6.9      2.281      3.718
REMARK  6 active torsions:
REMARK  status: ('A' for Active; 'I' for Inactive)
REMARK    1  A    between atoms: C2_2  and  C3_3 
REMARK    2  A    between atoms: C3_3  and  C4_5 
REMARK    3  A    between atoms: C8_9  and  N1_10 
REMARK    4  A    between atoms: C9_11  and  N2_12 
REMARK    5  A    between atoms: C12_15  and  C13_16 
REMARK    6  A    between atoms: C18_21  and  N3_22 
ROOT
HETATM    1  C4  UNL     1      24.681   1.231  52.093  1.00  0.00     0.020 C 
HETATM    2  C5  UNL     1      23.367   1.151  51.689  1.00  0.00     0.037 C 
HETATM    3  C6  UNL     1      23.321   2.470  52.495  1.00  0.00     0.259 A 
HETATM    4  C7  UNL     1      24.282   3.109  53.210  1.00  0.00     0.030 A 
HETATM    5  C8  UNL     1      24.780   2.775  51.889  1.00  0.00     0.098 A 
HETATM    6  C9  UNL     1      24.006   3.508  50.914  1.00  0.00     0.156 C 
HETATM    7  C19 UNL     1      22.716   4.290  51.423  1.00  0.00     0.327 C 
HETATM    8  N4  UNL     1      22.290   2.977  51.438  1.00  0.00     0.335 N 
ENDROOT
BRANCH   6   9
HETATM    9  N2  UNL     1      24.769   4.580  50.226  1.00  0.00    -0.348 N 
HETATM   10  C10 UNL     1      24.597   5.815  50.971  1.00  0.00     0.089 A 
HETATM   11  C11 UNL     1      25.118   7.000  50.690  1.00  0.00     0.024 A 
HETATM   12  C12 UNL     1      25.965   7.129  49.514  1.00  0.00    -0.049 A 
HETATM   13  C17 UNL     1      26.131   6.017  48.832  1.00  0.00     0.037 A 
HETATM   14  C18 UNL     1      25.594   4.647  49.060  1.00  0.00     0.343 A 
BRANCH  12  15
HETATM   15  C13 UNL     1      26.598   8.379  49.098  1.00  0.00    -0.024 C 
HETATM   16  C14 UNL     1      25.668   9.348  48.411  1.00  0.00     0.019 C 
HETATM   17  C15 UNL     1      27.241   9.132  50.251  1.00  0.00     0.019 C 
HETATM   18  C16 UNL     1      27.725   8.060  48.133  1.00  0.00     0.019 C 
ENDBRANCH  12  15
BRANCH  14  19
HETATM   19  N3  UNL     1      26.806   3.837  49.277  1.00  0.00     0.105 N 
HETATM   20  H22 UNL     1      27.373   4.332  49.996  1.00  0.00     0.315 HD
HETATM   21  H23 UNL     1      27.381   3.788  48.409  1.00  0.00     0.315 HD
ENDBRANCH  14  19
ENDBRANCH   6   9
BRANCH   5  22
HETATM   22  N1  UNL     1      26.210   3.083  51.908  1.00  0.00    -0.316 NA
HETATM   23  H6  UNL     1      26.533   3.073  50.940  1.00  0.00     0.119 HD
HETATM   24  H7  UNL     1      26.241   4.051  52.341  1.00  0.00     0.119 HD
ENDBRANCH   5  22
BRANCH   1  25
HETATM   25  C3  UNL     1      25.812   0.304  52.524  1.00  0.00     0.176 C 
HETATM   26  O1  UNL     1      26.838   0.081  51.845  1.00  0.00    -0.288 OA
BRANCH  25  27
HETATM   27  C2  UNL     1      25.637  -0.326  53.799  1.00  0.00     0.029 C 
HETATM   28  C1  UNL     1      24.808  -0.806  54.736  1.00  0.00     0.035 C 
ENDBRANCH  25  27
ENDBRANCH   1  25
TORSDOF 6
ENDMDL
MODEL 5
REMARK VINA RESULT:      -6.8      3.364      5.041
REMARK  6 active torsions:
REMARK  status: ('A' for Active; 'I' for Inactive)
REMARK    1  A    between atoms: C2_2  and  C3_3 
REMARK    2  A    between atoms: C3_3  and  C4_5 
REMARK    3  A    between atoms: C8_9  and  N1_10 
REMARK    4  A    between atoms: C9_11  and  N2_12 
REMARK    5  A    between atoms: C12_15  and  C13_16 
REMARK    6  A    between atoms: C18_21  and  N3_22 
ROOT
HETATM    1  C4  UNL     1      23.066   1.527  51.706  1.00  0.00     0.020 C 
HETATM    2  C5  UNL     1      22.377   1.118  50.586  1.00  0.00     0.037 C 
HETATM    3  C6  UNL     1      22.008   2.620  50.595  1.00  0.00     0.259 A 
HETATM    4  C7  UNL     1      22.322   3.607  51.472  1.00  0.00     0.030 A 
HETATM    5  C8  UNL     1      23.519   2.885  51.084  1.00  0.00     0.098 A 
HETATM    6  C9  UNL     1      23.732   3.090  49.670  1.00  0.00     0.156 C 
HETATM    7  C19 UNL     1      22.582   3.812  48.840  1.00  0.00     0.327 C 
HETATM    8  N4  UNL     1      22.057   2.551  49.035  1.00  0.00     0.335 N 
ENDROOT
BRANCH   6   9
HETATM    9  N2  UNL     1      24.916   3.930  49.358  1.00  0.00    -0.348 N 
HETATM   10  C10 UNL     1      24.454   5.265  49.022  1.00  0.00     0.089 A 
HETATM   11  C11 UNL     1      25.196   6.310  48.688  1.00  0.00     0.024 A 
HETATM   12  C12 UNL     1      26.642   6.153  48.640  1.00  0.00    -0.049 A 
HETATM   13  C17 UNL     1      27.073   4.949  48.944  1.00  0.00     0.037 A 
HETATM   14  C18 UNL     1      26.330   3.718  49.328  1.00  0.00     0.343 A 
BRANCH  12  15
HETATM   15  C13 UNL     1      27.568   7.227  48.287  1.00  0.00    -0.024 C 
HETATM   16  C14 UNL     1      27.270   7.897  46.969  1.00  0.00     0.019 C 
HETATM   17  C15 UNL     1      27.628   8.328  49.334  1.00  0.00     0.019 C 
HETATM   18  C16 UNL     1      28.972   6.657  48.208  1.00  0.00     0.019 C 
ENDBRANCH  12  15
BRANCH  14  19
HETATM   19  N3  UNL     1      26.807   3.442  50.695  1.00  0.00     0.105 N 
HETATM   20  H22 UNL     1      27.458   2.632  50.628  1.00  0.00     0.315 HD
HETATM   21  H23 UNL     1      26.019   3.156  51.315  1.00  0.00     0.315 HD
ENDBRANCH  14  19
ENDBRANCH   6   9
BRANCH   5  22
HETATM   22  N1  UNL     1      24.586   3.379  51.953  1.00  0.00    -0.316 NA
HETATM   23  H6  UNL     1      24.167   4.060  52.588  1.00  0.00     0.119 HD
HETATM   24  H7  UNL     1      24.915   2.502  52.451  1.00  0.00     0.119 HD
ENDBRANCH   5  22
BRANCH   1  25
HETATM   25  C3  UNL     1      23.446   0.996  53.083  1.00  0.00     0.176 C 
HETATM   26  O1  UNL     1      24.580   1.113  53.595  1.00  0.00    -0.288 OA
BRANCH  25  27
HETATM   27  C2  UNL     1      22.396   0.327  53.794  1.00  0.00     0.029 C 
HETATM   28  C1  UNL     1      21.114   0.296  54.182  1.00  0.00     0.035 C 
ENDBRANCH  25  27
ENDBRANCH   1  25
TORSDOF 6
ENDMDL
MODEL 6
REMARK VINA RESULT:      -6.8      8.407      9.992
REMARK  6 active torsions:
REMARK  status: ('A' for Active; 'I' for Inactive)
REMARK    1  A    between atoms: C2_2  and  C3_3 
REMARK    2  A    between atoms: C3_3  and  C4_5 
REMARK    3  A    between atoms: C8_9  and  N1_10 
REMARK    4  A    between atoms: C9_11  and  N2_12 
REMARK    5  A    between atoms: C12_15  and  C13_16 
REMARK    6  A    between atoms: C18_21  and  N3_22 
ROOT
HETATM    1  C4  UNL     1      33.559   4.188  47.610  1.00  0.00     0.020 C 
HETATM    2  C5  UNL     1      34.705   4.386  48.348  1.00  0.00     0.037 C 
HETATM    3  C6  UNL     1      34.840   5.539  47.326  1.00  0.00     0.259 A 
HETATM    4  C7  UNL     1      34.061   5.888  46.272  1.00  0.00     0.030 A 
HETATM    5  C8  UNL     1      33.246   5.709  47.459  1.00  0.00     0.098 A 
HETATM    6  C9  UNL     1      33.630   6.710  48.427  1.00  0.00     0.156 C 
HETATM    7  C19 UNL     1      34.922   7.587  48.119  1.00  0.00     0.327 C 
HETATM    8  N4  UNL     1      35.470   6.374  48.486  1.00  0.00     0.335 N 
ENDROOT
BRANCH   6   9
HETATM    9  N2  UNL     1      32.595   7.749  48.657  1.00  0.00    -0.348 N 
HETATM   10  C10 UNL     1      32.777   8.802  47.673  1.00  0.00     0.089 A 
HETATM   11  C11 UNL     1      32.056   9.905  47.537  1.00  0.00     0.024 A 
HETATM   12  C12 UNL     1      30.948  10.132  48.452  1.00  0.00    -0.049 A 
HETATM   13  C17 UNL     1      30.771   9.186  49.347  1.00  0.00     0.037 A 
HETATM   14  C18 UNL     1      31.519   7.920  49.583  1.00  0.00     0.343 A 
BRANCH  12  15
HETATM   15  C13 UNL     1      30.079  11.307  48.405  1.00  0.00    -0.024 C 
HETATM   16  C14 UNL     1      28.658  11.048  48.840  1.00  0.00     0.019 C 
HETATM   17  C15 UNL     1      30.593  12.460  49.254  1.00  0.00     0.019 C 
HETATM   18  C16 UNL     1      30.038  11.830  46.981  1.00  0.00     0.019 C 
ENDBRANCH  12  15
BRANCH  14  19
HETATM   19  N3  UNL     1      30.506   6.876  49.345  1.00  0.00     0.105 N 
HETATM   20  H22 UNL     1      30.866   6.003  49.784  1.00  0.00     0.315 HD
HETATM   21  H23 UNL     1      30.397   6.687  48.325  1.00  0.00     0.315 HD
ENDBRANCH  14  19
ENDBRANCH   6   9
BRANCH   5  22
HETATM   22  N1  UNL     1      31.856   5.781  47.007  1.00  0.00    -0.316 NA
HETATM   23  H6  UNL     1      31.277   5.922  47.836  1.00  0.00     0.119 HD
HETATM   24  H7  UNL     1      31.857   6.622  46.360  1.00  0.00     0.119 HD
ENDBRANCH   5  22
BRANCH   1  25
HETATM   25  C3  UNL     1      32.700   3.036  47.103  1.00  0.00     0.176 C 
HETATM   26  O1  UNL     1      31.845   3.140  46.198  1.00  0.00    -0.288 OA
BRANCH  25  27
HETATM   27  C2  UNL     1      32.930   1.773  47.740  1.00  0.00     0.029 C 
HETATM   28  C1  UNL     1      33.220   1.087  48.854  1.00  0.00     0.035 C 
ENDBRANCH  25  27
ENDBRANCH   1  25
TORSDOF 6
ENDMDL
MODEL 7
REMARK VINA RESULT:      -6.8      3.889      5.992
REMARK  6 active torsions:
REMARK  status: ('A' for Active; 'I' for Inactive)
REMARK    1  A    between atoms: C2_2  and  C3_3 
REMARK    2  A    between atoms: C3_3  and  C4_5 
REMARK    3  A    between atoms: C8_9  and  N1_10 
REMARK    4  A    between atoms: C9_11  and  N2_12 
REMARK    5  A    between atoms: C12_15  and  C13_16 
REMARK    6  A    between atoms: C18_21  and  N3_22 
ROOT
HETATM    1  C4  UNL     1      20.584   1.954  52.147  1.00  0.00     0.020 C 
HETATM    2  C5  UNL     1      21.359   1.263  53.051  1.00  0.00     0.037 C 
HETATM    3  C6  UNL     1      22.136   0.965  51.748  1.00  0.00     0.259 A 
HETATM    4  C7  UNL     1      21.879   1.311  50.461  1.00  0.00     0.030 A 
HETATM    5  C8  UNL     1      21.798   2.479  51.319  1.00  0.00     0.098 A 
HETATM    6  C9  UNL     1      23.108   2.721  51.878  1.00  0.00     0.156 C 
HETATM    7  C19 UNL     1      24.232   1.618  51.649  1.00  0.00     0.327 C 
HETATM    8  N4  UNL     1      23.435   1.031  52.612  1.00  0.00     0.335 N 
ENDROOT
BRANCH   6   9
HETATM    9  N2  UNL     1      23.764   3.947  51.357  1.00  0.00    -0.348 N 
HETATM   10  C10 UNL     1      24.482   3.602  50.143  1.00  0.00     0.089 A 
HETATM   11  C11 UNL     1      25.193   4.412  49.374  1.00  0.00     0.024 A 
HETATM   12  C12 UNL     1      25.294   5.816  49.744  1.00  0.00    -0.049 A 
HETATM   13  C17 UNL     1      24.647   6.142  50.841  1.00  0.00     0.037 A 
HETATM   14  C18 UNL     1      23.828   5.315  51.769  1.00  0.00     0.343 A 
BRANCH  12  15
HETATM   15  C13 UNL     1      26.046   6.809  48.980  1.00  0.00    -0.024 C 
HETATM   16  C14 UNL     1      25.305   7.372  47.793  1.00  0.00     0.019 C 
HETATM   17  C15 UNL     1      26.490   7.995  49.821  1.00  0.00     0.019 C 
HETATM   18  C16 UNL     1      27.322   6.168  48.465  1.00  0.00     0.019 C 
ENDBRANCH  12  15
BRANCH  14  19
HETATM   19  N3  UNL     1      22.485   5.915  51.667  1.00  0.00     0.105 N 
HETATM   20  H22 UNL     1      22.090   5.930  52.631  1.00  0.00     0.315 HD
HETATM   21  H23 UNL     1      21.856   5.324  51.083  1.00  0.00     0.315 HD
ENDBRANCH  14  19
ENDBRANCH   6   9
BRANCH   5  22
HETATM   22  N1  UNL     1      21.268   3.556  50.484  1.00  0.00    -0.316 NA
HETATM   23  H6  UNL     1      21.003   4.319  51.109  1.00  0.00     0.119 HD
HETATM   24  H7  UNL     1      22.090   3.803  49.860  1.00  0.00     0.119 HD
ENDBRANCH   5  22
BRANCH   1  25
HETATM   25  C3  UNL     1      19.116   2.289  51.907  1.00  0.00     0.176 C 
HETATM   26  O1  UNL     1      18.630   3.436  52.011  1.00  0.00    -0.288 OA
BRANCH  25  27
HETATM   27  C2  UNL     1      18.286   1.181  51.539  1.00  0.00     0.029 C 
HETATM   28  C1  UNL     1      18.183  -0.115  51.213  1.00  0.00     0.035 C 
ENDBRANCH  25  27
ENDBRANCH   1  25
TORSDOF 6
ENDMDL
MODEL 8
REMARK VINA RESULT:      -6.7      3.948      5.695
REMARK  6 active torsions:
REMARK  status: ('A' for Active; 'I' for Inactive)
REMARK    1  A    between atoms: C2_2  and  C3_3 
REMARK    2  A    between atoms: C3_3  and  C4_5 
REMARK    3  A    between atoms: C8_9  and  N1_10 
REMARK    4  A    between atoms: C9_11  and  N2_12 
REMARK    5  A    between atoms: C12_15  and  C13_16 
REMARK    6  A    between atoms: C18_21  and  N3_22 
ROOT
HETATM    1  C4  UNL     1      25.390   3.231  50.895  1.00  0.00     0.020 C 
HETATM    2  C5  UNL     1      26.077   2.108  51.298  1.00  0.00     0.037 C 
HETATM    3  C6  UNL     1      25.154   2.312  52.522  1.00  0.00     0.259 A 
HETATM    4  C7  UNL     1      24.245   3.282  52.798  1.00  0.00     0.030 A 
HETATM    5  C8  UNL     1      24.020   2.750  51.467  1.00  0.00     0.098 A 
HETATM    6  C9  UNL     1      23.644   1.362  51.593  1.00  0.00     0.156 C 
HETATM    7  C19 UNL     1      23.769   0.683  53.027  1.00  0.00     0.327 C 
HETATM    8  N4  UNL     1      25.086   0.755  52.620  1.00  0.00     0.335 N 
ENDROOT
BRANCH   6   9
HETATM    9  N2  UNL     1      22.227   1.090  51.242  1.00  0.00    -0.348 N 
HETATM   10  C10 UNL     1      21.412   1.315  52.422  1.00  0.00     0.089 A 
HETATM   11  C11 UNL     1      20.098   1.186  52.526  1.00  0.00     0.024 A 
HETATM   12  C12 UNL     1      19.342   0.776  51.352  1.00  0.00    -0.049 A 
HETATM   13  C17 UNL     1      20.068   0.571  50.275  1.00  0.00     0.037 A 
HETATM   14  C18 UNL     1      21.536   0.686  50.057  1.00  0.00     0.343 A 
BRANCH  12  15
HETATM   15  C13 UNL     1      17.891   0.599  51.336  1.00  0.00    -0.024 C 
HETATM   16  C14 UNL     1      17.380  -0.434  52.311  1.00  0.00     0.019 C 
HETATM   17  C15 UNL     1      17.132   1.884  51.624  1.00  0.00     0.019 C 
HETATM   18  C16 UNL     1      17.465   0.170  49.944  1.00  0.00     0.019 C 
ENDBRANCH  12  15
BRANCH  14  19
HETATM   19  N3  UNL     1      21.648   1.751  49.044  1.00  0.00     0.105 N 
HETATM   20  H22 UNL     1      20.680   1.965  48.725  1.00  0.00     0.315 HD
HETATM   21  H23 UNL     1      22.182   1.420  48.212  1.00  0.00     0.315 HD
ENDBRANCH  14  19
ENDBRANCH   6   9
BRANCH   5  22
HETATM   22  N1  UNL     1      23.013   3.616  50.854  1.00  0.00    -0.316 NA
HETATM   23  H6  UNL     1      23.428   4.545  50.765  1.00  0.00     0.119 HD
HETATM   24  H7  UNL     1      22.839   3.154  49.915  1.00  0.00     0.119 HD
ENDBRANCH   5  22
BRANCH   1  25
HETATM   25  C3  UNL     1      25.639   4.515  50.111  1.00  0.00     0.176 C 
HETATM   26  O1  UNL     1      24.981   5.567  50.255  1.00  0.00    -0.288 OA
BRANCH  25  27
HETATM   27  C2  UNL     1      26.710   4.455  49.161  1.00  0.00     0.029 C 
HETATM   28  C1  UNL     1      27.768   5.045  48.588  1.00  0.00     0.035 C 
ENDBRANCH  25  27
ENDBRANCH   1  25
TORSDOF 6
ENDMDL
MODEL 9
REMARK VINA RESULT:      -6.5      7.983      9.522
REMARK  6 active torsions:
REMARK  status: ('A' for Active; 'I' for Inactive)
REMARK    1  A    between atoms: C2_2  and  C3_3 
REMARK    2  A    between atoms: C3_3  and  C4_5 
REMARK    3  A    between atoms: C8_9  and  N1_10 
REMARK    4  A    between atoms: C9_11  and  N2_12 
REMARK    5  A    between atoms: C12_15  and  C13_16 
REMARK    6  A    between atoms: C18_21  and  N3_22 
ROOT
HETATM    1  C4  UNL     1      33.611   2.847  47.216  1.00  0.00     0.020 C 
HETATM    2  C5  UNL     1      34.805   3.315  46.716  1.00  0.00     0.037 C 
HETATM    3  C6  UNL     1      33.820   3.987  45.731  1.00  0.00     0.259 A 
HETATM    4  C7  UNL     1      32.469   3.903  45.629  1.00  0.00     0.030 A 
HETATM    5  C8  UNL     1      32.850   4.193  46.998  1.00  0.00     0.098 A 
HETATM    6  C9  UNL     1      33.486   5.489  47.026  1.00  0.00     0.156 C 
HETATM    7  C19 UNL     1      33.827   6.182  45.634  1.00  0.00     0.327 C 
HETATM    8  N4  UNL     1      34.797   5.205  45.722  1.00  0.00     0.335 N 
ENDROOT
BRANCH   6   9
HETATM    9  N2  UNL     1      32.683   6.536  47.707  1.00  0.00    -0.348 N 
HETATM   10  C10 UNL     1      31.795   7.141  46.729  1.00  0.00     0.089 A 
HETATM   11  C11 UNL     1      30.915   8.109  46.936  1.00  0.00     0.024 A 
HETATM   12  C12 UNL     1      30.787   8.661  48.276  1.00  0.00    -0.049 A 
HETATM   13  C17 UNL     1      31.584   8.122  49.171  1.00  0.00     0.037 A 
HETATM   14  C18 UNL     1      32.599   7.040  49.042  1.00  0.00     0.343 A 
BRANCH  12  15
HETATM   15  C13 UNL     1      29.855   9.729  48.632  1.00  0.00    -0.024 C 
HETATM   16  C14 UNL     1      28.758   9.308  49.578  1.00  0.00     0.019 C 
HETATM   17  C15 UNL     1      30.540  10.930  49.263  1.00  0.00     0.019 C 
HETATM   18  C16 UNL     1      29.198  10.248  47.366  1.00  0.00     0.019 C 
ENDBRANCH  12  15
BRANCH  14  19
HETATM   19  N3  UNL     1      32.084   5.981  49.928  1.00  0.00     0.105 N 
HETATM   20  H22 UNL     1      31.879   5.158  49.324  1.00  0.00     0.315 HD
HETATM   21  H23 UNL     1      31.187   6.270  50.373  1.00  0.00     0.315 HD
ENDBRANCH  14  19
ENDBRANCH   6   9
BRANCH   5  22
HETATM   22  N1  UNL     1      31.624   4.084  47.788  1.00  0.00    -0.316 NA
HETATM   23  H6  UNL     1      31.837   3.493  48.594  1.00  0.00     0.119 HD
HETATM   24  H7  UNL     1      31.422   5.089  48.059  1.00  0.00     0.119 HD
ENDBRANCH   5  22
BRANCH   1  25
HETATM   25  C3  UNL     1      33.046   1.588  47.862  1.00  0.00     0.176 C 
HETATM   26  O1  UNL     1      33.214   1.275  49.061  1.00  0.00    -0.288 OA
BRANCH  25  27
HETATM   27  C2  UNL     1      32.280   0.743  46.993  1.00  0.00     0.029 C 
HETATM   28  C1  UNL     1      31.216   0.585  46.194  1.00  0.00     0.035 C 
ENDBRANCH  25  27
ENDBRANCH   1  25
TORSDOF 6
ENDMDL
