MODEL 1
REMARK VINA RESULT:      -8.7      0.000      0.000
REMARK  0 active torsions:
REMARK  status: ('A' for Active; 'I' for Inactive)
ROOT
HETATM    1  C1  UNL     1      27.778   0.227  54.845  1.00  0.00    -0.025 C 
HETATM    2  C2  UNL     1      28.336   0.147  53.634  1.00  0.00    -0.005 C 
HETATM    3  C3  UNL     1      27.530   0.429  52.416  1.00  0.00     0.107 C 
HETATM    4  C4  UNL     1      27.067   1.868  52.437  1.00  0.00     0.056 C 
HETATM    5  C5  UNL     1      26.689   2.321  51.088  1.00  0.00    -0.028 C 
HETATM    6  C6  UNL     1      25.531   2.775  50.637  1.00  0.00    -0.026 C 
HETATM    7  C7  UNL     1      24.288   2.947  51.402  1.00  0.00     0.066 C 
HETATM    8  C8  UNL     1      23.162   2.188  50.820  1.00  0.00    -0.044 A 
HETATM    9  C9  UNL     1      22.997   2.495  49.486  1.00  0.00     0.008 A 
HETATM   10  C10 UNL     1      22.009   1.945  48.680  1.00  0.00     0.001 A 
HETATM   11  C11 UNL     1      21.119   1.031  49.214  1.00  0.00     0.001 A 
HETATM   12  C12 UNL     1      21.320   0.746  50.573  1.00  0.00     0.012 A 
HETATM   13  C13 UNL     1      22.300   1.282  51.399  1.00  0.00    -0.030 A 
HETATM   14  C14 UNL     1      22.382   0.871  52.795  1.00  0.00     0.008 C 
HETATM   15  C15 UNL     1      23.092  -0.004  53.438  1.00  0.00    -0.020 C 
HETATM   16  C16 UNL     1      24.056  -0.818  52.696  1.00  0.00     0.083 C 
HETATM   17  C17 UNL     1      25.405  -0.575  53.243  1.00  0.00     0.005 C 
HETATM   18  C18 UNL     1      25.410  -0.482  54.543  1.00  0.00     0.002 C 
HETATM   19  C19 UNL     1      26.417   0.195  55.380  1.00  0.00     0.056 C 
HETATM   20  N1  UNL     1      26.433  -0.492  52.256  1.00  0.00    -0.385 N 
HETATM   21  H21 UNL     1      26.374  -1.118  51.407  1.00  0.00     0.160 HD
ENDROOT
TORSDOF 0
ENDMDL
MODEL 2
REMARK VINA RESULT:      -8.3      1.977      4.449
REMARK  0 active torsions:
REMARK  status: ('A' for Active; 'I' for Inactive)
ROOT
HETATM    1  C1  UNL     1      21.108  -0.894  54.772  1.00  0.00    -0.025 C 
HETATM    2  C2  UNL     1      21.832  -1.738  54.032  1.00  0.00    -0.005 C 
HETATM    3  C3  UNL     1      22.863  -1.217  53.095  1.00  0.00     0.107 C 
HETATM    4  C4  UNL     1      23.943  -0.501  53.875  1.00  0.00     0.056 C 
HETATM    5  C5  UNL     1      25.179  -0.387  53.084  1.00  0.00    -0.028 C 
HETATM    6  C6  UNL     1      25.842   0.690  52.693  1.00  0.00    -0.026 C 
HETATM    7  C7  UNL     1      25.494   2.091  52.962  1.00  0.00     0.066 C 
HETATM    8  C8  UNL     1      25.329   2.877  51.721  1.00  0.00    -0.044 A 
HETATM    9  C9  UNL     1      26.441   2.764  50.915  1.00  0.00     0.008 A 
HETATM   10  C10 UNL     1      26.579   3.403  49.688  1.00  0.00     0.001 A 
HETATM   11  C11 UNL     1      25.558   4.208  49.217  1.00  0.00     0.001 A 
HETATM   12  C12 UNL     1      24.445   4.297  50.067  1.00  0.00     0.012 A 
HETATM   13  C13 UNL     1      24.284   3.668  51.295  1.00  0.00    -0.030 A 
HETATM   14  C14 UNL     1      23.055   3.855  52.054  1.00  0.00     0.008 C 
HETATM   15  C15 UNL     1      21.958   3.173  52.179  1.00  0.00    -0.020 C 
HETATM   16  C16 UNL     1      21.813   1.921  51.434  1.00  0.00     0.083 C 
HETATM   17  C17 UNL     1      21.608   0.818  52.393  1.00  0.00     0.005 C 
HETATM   18  C18 UNL     1      20.823   1.150  53.379  1.00  0.00     0.002 C 
HETATM   19  C19 UNL     1      20.760   0.525  54.712  1.00  0.00     0.056 C 
HETATM   20  N1  UNL     1      22.299  -0.386  52.060  1.00  0.00    -0.385 N 
HETATM   21  H21 UNL     1      22.388  -0.656  51.044  1.00  0.00     0.160 HD
ENDROOT
TORSDOF 0
ENDMDL
MODEL 3
REMARK VINA RESULT:      -8.2      1.485      5.493
REMARK  0 active torsions:
REMARK  status: ('A' for Active; 'I' for Inactive)
ROOT
HETATM    1  C1  UNL     1      21.103   1.792  50.455  1.00  0.00    -0.025 C 
HETATM    2  C2  UNL     1      21.483   3.034  50.768  1.00  0.00    -0.005 C 
HETATM    3  C3  UNL     1      22.818   3.279  51.376  1.00  0.00     0.107 C 
HETATM    4  C4  UNL     1      23.901   2.872  50.403  1.00  0.00     0.056 C 
HETATM    5  C5  UNL     1      25.184   3.509  50.742  1.00  0.00    -0.028 C 
HETATM    6  C6  UNL     1      26.349   2.963  51.053  1.00  0.00    -0.026 C 
HETATM    7  C7  UNL     1      26.661   1.530  51.138  1.00  0.00     0.066 C 
HETATM    8  C8  UNL     1      27.176   1.147  52.469  1.00  0.00    -0.044 A 
HETATM    9  C9  UNL     1      28.248   1.935  52.829  1.00  0.00     0.008 A 
HETATM   10  C10 UNL     1      28.946   1.797  54.023  1.00  0.00     0.001 A 
HETATM   11  C11 UNL     1      28.569   0.822  54.928  1.00  0.00     0.001 A 
HETATM   12  C12 UNL     1      27.475   0.042  54.524  1.00  0.00     0.012 A 
HETATM   13  C13 UNL     1      26.762   0.161  53.339  1.00  0.00    -0.030 A 
HETATM   14  C14 UNL     1      25.636  -0.725  53.073  1.00  0.00     0.008 C 
HETATM   15  C15 UNL     1      24.350  -0.619  53.217  1.00  0.00    -0.020 C 
HETATM   16  C16 UNL     1      23.798   0.622  53.761  1.00  0.00     0.083 C 
HETATM   17  C17 UNL     1      22.881   1.212  52.766  1.00  0.00     0.005 C 
HETATM   18  C18 UNL     1      22.150   0.316  52.165  1.00  0.00     0.002 C 
HETATM   19  C19 UNL     1      21.499   0.441  50.849  1.00  0.00     0.056 C 
HETATM   20  N1  UNL     1      22.968   2.632  52.657  1.00  0.00    -0.385 N 
HETATM   21  H21 UNL     1      23.144   3.200  53.529  1.00  0.00     0.160 HD
ENDROOT
TORSDOF 0
ENDMDL
MODEL 4
REMARK VINA RESULT:      -8.1      3.400      6.171
REMARK  0 active torsions:
REMARK  status: ('A' for Active; 'I' for Inactive)
ROOT
HETATM    1  C1  UNL     1      22.752   8.058  49.664  1.00  0.00    -0.025 C 
HETATM    2  C2  UNL     1      24.032   8.320  49.943  1.00  0.00    -0.005 C 
HETATM    3  C3  UNL     1      24.941   7.228  50.385  1.00  0.00     0.107 C 
HETATM    4  C4  UNL     1      25.079   6.205  49.280  1.00  0.00     0.056 C 
HETATM    5  C5  UNL     1      26.288   5.386  49.467  1.00  0.00    -0.028 C 
HETATM    6  C6  UNL     1      26.413   4.077  49.625  1.00  0.00    -0.026 C 
HETATM    7  C7  UNL     1      25.333   3.082  49.654  1.00  0.00     0.066 C 
HETATM    8  C8  UNL     1      25.326   2.298  50.907  1.00  0.00    -0.044 A 
HETATM    9  C9  UNL     1      26.562   1.732  51.142  1.00  0.00     0.008 A 
HETATM   10  C10 UNL     1      26.852   0.930  52.238  1.00  0.00     0.001 A 
HETATM   11  C11 UNL     1      25.867   0.663  53.171  1.00  0.00     0.001 A 
HETATM   12  C12 UNL     1      24.625   1.256  52.896  1.00  0.00     0.012 A 
HETATM   13  C13 UNL     1      24.312   2.061  51.809  1.00  0.00    -0.030 A 
HETATM   14  C14 UNL     1      22.970   2.613  51.673  1.00  0.00     0.008 C 
HETATM   15  C15 UNL     1      22.427   3.753  51.976  1.00  0.00    -0.020 C 
HETATM   16  C16 UNL     1      23.254   4.788  52.599  1.00  0.00     0.083 C 
HETATM   17  C17 UNL     1      23.256   5.982  51.731  1.00  0.00     0.005 C 
HETATM   18  C18 UNL     1      22.085   6.227  51.213  1.00  0.00     0.002 C 
HETATM   19  C19 UNL     1      21.800   6.997  49.989  1.00  0.00     0.056 C 
HETATM   20  N1  UNL     1      24.522   6.631  51.629  1.00  0.00    -0.385 N 
HETATM   21  H21 UNL     1      25.146   6.667  52.480  1.00  0.00     0.160 HD
ENDROOT
TORSDOF 0
ENDMDL
MODEL 5
REMARK VINA RESULT:      -8.0      7.103      9.505
REMARK  0 active torsions:
REMARK  status: ('A' for Active; 'I' for Inactive)
ROOT
HETATM    1  C1  UNL     1      30.043  11.894  48.366  1.00  0.00    -0.025 C 
HETATM    2  C2  UNL     1      30.792  11.188  49.217  1.00  0.00    -0.005 C 
HETATM    3  C3  UNL     1      30.438   9.778  49.536  1.00  0.00     0.107 C 
HETATM    4  C4  UNL     1      30.534   8.936  48.284  1.00  0.00     0.056 C 
HETATM    5  C5  UNL     1      30.659   7.507  48.616  1.00  0.00    -0.028 C 
HETATM    6  C6  UNL     1      29.875   6.489  48.298  1.00  0.00    -0.026 C 
HETATM    7  C7  UNL     1      28.641   6.535  47.503  1.00  0.00     0.066 C 
HETATM    8  C8  UNL     1      27.478   5.998  48.241  1.00  0.00    -0.044 A 
HETATM    9  C9  UNL     1      27.740   4.732  48.721  1.00  0.00     0.008 A 
HETATM   10  C10 UNL     1      26.828   3.972  49.443  1.00  0.00     0.001 A 
HETATM   11  C11 UNL     1      25.573   4.485  49.715  1.00  0.00     0.001 A 
HETATM   12  C12 UNL     1      25.346   5.774  49.209  1.00  0.00     0.012 A 
HETATM   13  C13 UNL     1      26.241   6.553  48.487  1.00  0.00    -0.030 A 
HETATM   14  C14 UNL     1      25.853   7.885  48.041  1.00  0.00     0.008 C 
HETATM   15  C15 UNL     1      26.035   9.082  48.508  1.00  0.00    -0.020 C 
HETATM   16  C16 UNL     1      26.781   9.250  49.756  1.00  0.00     0.083 C 
HETATM   17  C17 UNL     1      27.967  10.089  49.493  1.00  0.00     0.005 C 
HETATM   18  C18 UNL     1      27.712  11.077  48.681  1.00  0.00     0.002 C 
HETATM   19  C19 UNL     1      28.679  11.808  47.844  1.00  0.00     0.056 C 
HETATM   20  N1  UNL     1      29.148   9.663  50.170  1.00  0.00    -0.385 N 
HETATM   21  H21 UNL     1      29.061   9.264  51.144  1.00  0.00     0.160 HD
ENDROOT
TORSDOF 0
ENDMDL
MODEL 6
REMARK VINA RESULT:      -7.9      2.479      4.797
REMARK  0 active torsions:
REMARK  status: ('A' for Active; 'I' for Inactive)
ROOT
HETATM    1  C1  UNL     1      22.535  -0.600  53.560  1.00  0.00    -0.025 C 
HETATM    2  C2  UNL     1      21.292  -0.130  53.418  1.00  0.00    -0.005 C 
HETATM    3  C3  UNL     1      20.993   0.897  52.384  1.00  0.00     0.107 C 
HETATM    4  C4  UNL     1      21.257   0.325  51.010  1.00  0.00     0.056 C 
HETATM    5  C5  UNL     1      20.552   1.097  49.973  1.00  0.00    -0.028 C 
HETATM    6  C6  UNL     1      21.033   1.757  48.930  1.00  0.00    -0.026 C 
HETATM    7  C7  UNL     1      22.442   1.886  48.537  1.00  0.00     0.066 C 
HETATM    8  C8  UNL     1      22.875   3.297  48.456  1.00  0.00    -0.044 A 
HETATM    9  C9  UNL     1      22.038   4.024  47.637  1.00  0.00     0.008 A 
HETATM   10  C10 UNL     1      22.203   5.375  47.361  1.00  0.00     0.001 A 
HETATM   11  C11 UNL     1      23.261   6.065  47.926  1.00  0.00     0.001 A 
HETATM   12  C12 UNL     1      24.089   5.290  48.752  1.00  0.00     0.012 A 
HETATM   13  C13 UNL     1      23.943   3.940  49.043  1.00  0.00    -0.030 A 
HETATM   14  C14 UNL     1      24.888   3.280  49.935  1.00  0.00     0.008 C 
HETATM   15  C15 UNL     1      24.885   2.992  51.201  1.00  0.00    -0.020 C 
HETATM   16  C16 UNL     1      23.724   3.368  52.010  1.00  0.00     0.083 C 
HETATM   17  C17 UNL     1      23.137   2.148  52.598  1.00  0.00     0.005 C 
HETATM   18  C18 UNL     1      24.042   1.303  53.007  1.00  0.00     0.002 C 
HETATM   19  C19 UNL     1      23.878  -0.149  53.197  1.00  0.00     0.056 C 
HETATM   20  N1  UNL     1      21.711   2.128  52.606  1.00  0.00    -0.385 N 
HETATM   21  H21 UNL     1      21.191   3.031  52.779  1.00  0.00     0.160 HD
ENDROOT
TORSDOF 0
ENDMDL
MODEL 7
REMARK VINA RESULT:      -7.9      2.166      6.234
REMARK  0 active torsions:
REMARK  status: ('A' for Active; 'I' for Inactive)
ROOT
HETATM    1  C1  UNL     1      18.730   2.381  51.591  1.00  0.00    -0.025 C 
HETATM    2  C2  UNL     1      18.703   1.072  51.326  1.00  0.00    -0.005 C 
HETATM    3  C3  UNL     1      19.929   0.247  51.497  1.00  0.00     0.107 C 
HETATM    4  C4  UNL     1      20.342   0.248  52.952  1.00  0.00     0.056 C 
HETATM    5  C5  UNL     1      21.228  -0.889  53.251  1.00  0.00    -0.028 C 
HETATM    6  C6  UNL     1      22.469  -0.902  53.711  1.00  0.00    -0.026 C 
HETATM    7  C7  UNL     1      23.301   0.261  54.049  1.00  0.00     0.066 C 
HETATM    8  C8  UNL     1      24.567   0.285  53.290  1.00  0.00    -0.044 A 
HETATM    9  C9  UNL     1      25.252  -0.903  53.433  1.00  0.00     0.008 A 
HETATM   10  C10 UNL     1      26.482  -1.166  52.844  1.00  0.00     0.001 A 
HETATM   11  C11 UNL     1      27.085  -0.201  52.058  1.00  0.00     0.001 A 
HETATM   12  C12 UNL     1      26.357   0.992  51.937  1.00  0.00     0.012 A 
HETATM   13  C13 UNL     1      25.127   1.278  52.515  1.00  0.00    -0.030 A 
HETATM   14  C14 UNL     1      24.494   2.569  52.281  1.00  0.00     0.008 C 
HETATM   15  C15 UNL     1      23.587   2.994  51.454  1.00  0.00    -0.020 C 
HETATM   16  C16 UNL     1      23.003   2.051  50.498  1.00  0.00     0.083 C 
HETATM   17  C17 UNL     1      21.547   1.979  50.730  1.00  0.00     0.005 C 
HETATM   18  C18 UNL     1      21.022   3.144  50.988  1.00  0.00     0.002 C 
HETATM   19  C19 UNL     1      19.763   3.410  51.706  1.00  0.00     0.056 C 
HETATM   20  N1  UNL     1      21.001   0.665  50.628  1.00  0.00    -0.385 N 
HETATM   21  H21 UNL     1      21.396   0.005  49.904  1.00  0.00     0.160 HD
ENDROOT
TORSDOF 0
ENDMDL
MODEL 8
REMARK VINA RESULT:      -7.9      1.468      3.517
REMARK  0 active torsions:
REMARK  status: ('A' for Active; 'I' for Inactive)
ROOT
HETATM    1  C1  UNL     1      28.473   0.030  53.762  1.00  0.00    -0.025 C 
HETATM    2  C2  UNL     1      27.895   0.051  54.966  1.00  0.00    -0.005 C 
HETATM    3  C3  UNL     1      26.432   0.292  55.091  1.00  0.00     0.107 C 
HETATM    4  C4  UNL     1      25.673  -0.826  54.414  1.00  0.00     0.056 C 
HETATM    5  C5  UNL     1      24.285  -0.892  54.899  1.00  0.00    -0.028 C 
HETATM    6  C6  UNL     1      23.146  -0.773  54.234  1.00  0.00    -0.026 C 
HETATM    7  C7  UNL     1      22.981  -0.538  52.794  1.00  0.00     0.066 C 
HETATM    8  C8  UNL     1      22.199   0.684  52.511  1.00  0.00    -0.044 A 
HETATM    9  C9  UNL     1      20.992   0.663  53.177  1.00  0.00     0.008 A 
HETATM   10  C10 UNL     1      20.041   1.672  53.092  1.00  0.00     0.001 A 
HETATM   11  C11 UNL     1      20.288   2.781  52.302  1.00  0.00     0.001 A 
HETATM   12  C12 UNL     1      21.526   2.764  51.643  1.00  0.00     0.012 A 
HETATM   13  C13 UNL     1      22.492   1.769  51.713  1.00  0.00    -0.030 A 
HETATM   14  C14 UNL     1      23.738   1.908  50.971  1.00  0.00     0.008 C 
HETATM   15  C15 UNL     1      24.930   2.323  51.277  1.00  0.00    -0.020 C 
HETATM   16  C16 UNL     1      25.192   2.778  52.644  1.00  0.00     0.083 C 
HETATM   17  C17 UNL     1      26.256   1.938  53.229  1.00  0.00     0.005 C 
HETATM   18  C18 UNL     1      27.205   1.666  52.378  1.00  0.00     0.002 C 
HETATM   19  C19 UNL     1      28.143   0.531  52.428  1.00  0.00     0.056 C 
HETATM   20  N1  UNL     1      26.043   1.590  54.596  1.00  0.00    -0.385 N 
HETATM   21  H21 UNL     1      25.598   2.300  55.238  1.00  0.00     0.160 HD
ENDROOT
TORSDOF 0
ENDMDL
MODEL 9
REMARK VINA RESULT:      -7.7      1.727      3.901
REMARK  0 active torsions:
REMARK  status: ('A' for Active; 'I' for Inactive)
ROOT
HETATM    1  C1  UNL     1      27.507   2.218  52.325  1.00  0.00    -0.025 C 
HETATM    2  C2  UNL     1      27.172   2.212  53.618  1.00  0.00    -0.005 C 
HETATM    3  C3  UNL     1      25.816   1.766  54.039  1.00  0.00     0.107 C 
HETATM    4  C4  UNL     1      25.625   0.312  53.674  1.00  0.00     0.056 C 
HETATM    5  C5  UNL     1      24.536  -0.291  54.460  1.00  0.00    -0.028 C 
HETATM    6  C6  UNL     1      23.408  -0.854  54.057  1.00  0.00    -0.026 C 
HETATM    7  C7  UNL     1      22.946  -1.022  52.673  1.00  0.00     0.066 C 
HETATM    8  C8  UNL     1      21.631  -0.390  52.439  1.00  0.00    -0.044 A 
HETATM    9  C9  UNL     1      20.701  -0.835  53.355  1.00  0.00     0.008 A 
HETATM   10  C10 UNL     1      19.373  -0.424  53.374  1.00  0.00     0.001 A 
HETATM   11  C11 UNL     1      18.924   0.485  52.433  1.00  0.00     0.001 A 
HETATM   12  C12 UNL     1      19.901   0.911  51.520  1.00  0.00     0.012 A 
HETATM   13  C13 UNL     1      21.231   0.517  51.482  1.00  0.00    -0.030 A 
HETATM   14  C14 UNL     1      22.126   1.065  50.471  1.00  0.00     0.008 C 
HETATM   15  C15 UNL     1      22.984   2.039  50.457  1.00  0.00    -0.020 C 
HETATM   16  C16 UNL     1      23.176   2.832  51.672  1.00  0.00     0.083 C 
HETATM   17  C17 UNL     1      24.587   2.722  52.094  1.00  0.00     0.005 C 
HETATM   18  C18 UNL     1      25.415   2.756  51.088  1.00  0.00     0.002 C 
HETATM   19  C19 UNL     1      26.789   2.223  51.052  1.00  0.00     0.056 C 
HETATM   20  N1  UNL     1      24.770   2.603  53.504  1.00  0.00    -0.385 N 
HETATM   21  H21 UNL     1      24.127   3.138  54.148  1.00  0.00     0.160 HD
ENDROOT
TORSDOF 0
ENDMDL
