MODEL 1
REMARK VINA RESULT:      -8.4      0.000      0.000
REMARK  6 active torsions:
REMARK  status: ('A' for Active; 'I' for Inactive)
REMARK    1  A    between atoms: C3_3  and  C4_4 
REMARK    2  A    between atoms: C5_6  and  C6_7 
REMARK    3  A    between atoms: C6_7  and  N1_8 
REMARK    4  A    between atoms: N1_8  and  C7_9 
REMARK    5  A    between atoms: C13_17  and  O1_18 
REMARK    6  A    between atoms: O1_18  and  C14_19 
ROOT
HETATM    1  C7  UNL     1      22.514   1.212  51.505  1.00  0.00     0.140 A 
HETATM    2  N2  UNL     1      21.440   1.527  50.770  1.00  0.00    -0.224 NA
HETATM    3  C8  UNL     1      20.225   1.067  51.004  1.00  0.00     0.236 A 
HETATM    4  N3  UNL     1      20.066   0.236  52.041  1.00  0.00    -0.241 NA
HETATM    5  C9  UNL     1      21.117  -0.113  52.816  1.00  0.00     0.075 A 
HETATM    6  C10 UNL     1      20.826  -0.969  53.847  1.00  0.00     0.033 A 
HETATM    7  C11 UNL     1      21.874  -1.350  54.661  1.00  0.00     0.005 A 
HETATM    8  C12 UNL     1      23.133  -0.854  54.393  1.00  0.00     0.038 A 
HETATM    9  C13 UNL     1      23.474   0.004  53.374  1.00  0.00     0.085 A 
HETATM   10  C20 UNL     1      22.400   0.368  52.574  1.00  0.00     0.072 A 
ENDROOT
BRANCH   1  11
HETATM   11  N1  UNL     1      23.750   1.795  51.110  1.00  0.00    -0.370 N 
HETATM   12  H9  UNL     1      24.704   1.476  50.870  1.00  0.00     0.161 HD
BRANCH  11  13
HETATM   13  C6  UNL     1      23.863   3.233  50.955  1.00  0.00     0.150 C 
BRANCH  13  14
HETATM   14  C5  UNL     1      25.222   3.492  50.366  1.00  0.00     0.016 C 
HETATM   15  C4  UNL     1      25.650   4.375  49.462  1.00  0.00     0.031 C 
HETATM   16 CL1  UNL     1      24.586   5.514  48.696  1.00  0.00    -0.085 Cl
BRANCH  15  17
HETATM   17  C3  UNL     1      27.077   4.329  49.131  1.00  0.00     0.019 C 
HETATM   18  C2  UNL     1      27.596   5.359  48.520  1.00  0.00    -0.029 C 
HETATM   19  C1  UNL     1      29.026   5.401  48.146  1.00  0.00     0.036 C 
ENDBRANCH  15  17
ENDBRANCH  13  14
ENDBRANCH  11  13
ENDBRANCH   1  11
BRANCH   9  20
HETATM   20  O1  UNL     1      24.706   0.493  53.107  1.00  0.00    -0.345 OA
BRANCH  20  21
HETATM   21  C14 UNL     1      25.660   0.897  54.046  1.00  0.00     0.132 C 
HETATM   22  C15 UNL     1      26.680  -0.177  54.315  1.00  0.00     0.062 C 
HETATM   23  C16 UNL     1      28.081   0.288  54.519  1.00  0.00     0.274 C 
HETATM   24  N4  UNL     1      28.571   1.176  53.501  1.00  0.00     0.084 N 
HETATM   25  C17 UNL     1      29.335   2.227  54.146  1.00  0.00     0.309 C 
HETATM   26  C18 UNL     1      27.503   1.820  52.766  1.00  0.00     0.274 C 
HETATM   27  C19 UNL     1      26.371   2.159  53.670  1.00  0.00     0.062 C 
ENDBRANCH  20  21
ENDBRANCH   9  20
TORSDOF 6
ENDMDL
MODEL 2
REMARK VINA RESULT:      -8.1      2.444      5.074
REMARK  6 active torsions:
REMARK  status: ('A' for Active; 'I' for Inactive)
REMARK    1  A    between atoms: C3_3  and  C4_4 
REMARK    2  A    between atoms: C5_6  and  C6_7 
REMARK    3  A    between atoms: C6_7  and  N1_8 
REMARK    4  A    between atoms: N1_8  and  C7_9 
REMARK    5  A    between atoms: C13_17  and  O1_18 
REMARK    6  A    between atoms: O1_18  and  C14_19 
ROOT
HETATM    1  C7  UNL     1      23.412  -0.106  53.393  1.00  0.00     0.140 A 
HETATM    2  N2  UNL     1      23.722  -0.777  54.509  1.00  0.00    -0.224 NA
HETATM    3  C8  UNL     1      22.836  -1.388  55.274  1.00  0.00     0.236 A 
HETATM    4  N3  UNL     1      21.551  -1.329  54.902  1.00  0.00    -0.241 NA
HETATM    5  C9  UNL     1      21.184  -0.665  53.783  1.00  0.00     0.075 A 
HETATM    6  C10 UNL     1      19.841  -0.676  53.509  1.00  0.00     0.033 A 
HETATM    7  C11 UNL     1      19.427  -0.008  52.375  1.00  0.00     0.005 A 
HETATM    8  C12 UNL     1      20.374   0.622  51.596  1.00  0.00     0.038 A 
HETATM    9  C13 UNL     1      21.729   0.662  51.828  1.00  0.00     0.085 A 
HETATM   10  C20 UNL     1      22.114  -0.018  52.974  1.00  0.00     0.072 A 
ENDROOT
BRANCH   1  11
HETATM   11  N1  UNL     1      24.493   0.497  52.692  1.00  0.00    -0.370 N 
HETATM   12  H9  UNL     1      24.859   0.522  51.724  1.00  0.00     0.161 HD
BRANCH  11  13
HETATM   13  C6  UNL     1      25.435   1.349  53.393  1.00  0.00     0.150 C 
BRANCH  13  14
HETATM   14  C5  UNL     1      26.730   0.587  53.459  1.00  0.00     0.016 C 
HETATM   15  C4  UNL     1      27.998   0.990  53.550  1.00  0.00     0.031 C 
HETATM   16 CL1  UNL     1      28.442   2.668  53.601  1.00  0.00    -0.085 Cl
BRANCH  15  17
HETATM   17  C3  UNL     1      29.015  -0.065  53.592  1.00  0.00     0.019 C 
HETATM   18  C2  UNL     1      28.637  -1.288  53.336  1.00  0.00    -0.029 C 
HETATM   19  C1  UNL     1      29.591  -2.418  53.356  1.00  0.00     0.036 C 
ENDBRANCH  15  17
ENDBRANCH  13  14
ENDBRANCH  11  13
ENDBRANCH   1  11
BRANCH   9  20
HETATM   20  O1  UNL     1      22.662   1.277  51.067  1.00  0.00    -0.345 OA
BRANCH  20  21
HETATM   21  C14 UNL     1      22.632   2.605  50.628  1.00  0.00     0.132 C 
HETATM   22  C15 UNL     1      22.887   3.577  51.748  1.00  0.00     0.062 C 
HETATM   23  C16 UNL     1      23.705   4.774  51.403  1.00  0.00     0.274 C 
HETATM   24  N4  UNL     1      24.938   4.481  50.727  1.00  0.00     0.084 N 
HETATM   25  C17 UNL     1      25.124   5.463  49.675  1.00  0.00     0.309 C 
HETATM   26  C18 UNL     1      24.928   3.180  50.093  1.00  0.00     0.274 C 
HETATM   27  C19 UNL     1      23.589   2.886  49.513  1.00  0.00     0.062 C 
ENDBRANCH  20  21
ENDBRANCH   9  20
TORSDOF 6
ENDMDL
MODEL 3
REMARK VINA RESULT:      -8.1      2.318      5.791
REMARK  6 active torsions:
REMARK  status: ('A' for Active; 'I' for Inactive)
REMARK    1  A    between atoms: C3_3  and  C4_4 
REMARK    2  A    between atoms: C5_6  and  C6_7 
REMARK    3  A    between atoms: C6_7  and  N1_8 
REMARK    4  A    between atoms: N1_8  and  C7_9 
REMARK    5  A    between atoms: C13_17  and  O1_18 
REMARK    6  A    between atoms: O1_18  and  C14_19 
ROOT
HETATM    1  C7  UNL     1      26.662   1.792  53.826  1.00  0.00     0.140 A 
HETATM    2  N2  UNL     1      27.696   2.603  54.077  1.00  0.00    -0.224 NA
HETATM    3  C8  UNL     1      28.961   2.234  53.998  1.00  0.00     0.236 A 
HETATM    4  N3  UNL     1      29.216   0.968  53.643  1.00  0.00    -0.241 NA
HETATM    5  C9  UNL     1      28.208   0.107  53.378  1.00  0.00     0.075 A 
HETATM    6  C10 UNL     1      28.596  -1.159  53.026  1.00  0.00     0.033 A 
HETATM    7  C11 UNL     1      27.595  -2.068  52.748  1.00  0.00     0.005 A 
HETATM    8  C12 UNL     1      26.283  -1.654  52.840  1.00  0.00     0.038 A 
HETATM    9  C13 UNL     1      25.844  -0.398  53.188  1.00  0.00     0.085 A 
HETATM   10  C20 UNL     1      26.872   0.491  53.461  1.00  0.00     0.072 A 
ENDROOT
BRANCH   1  11
HETATM   11  N1  UNL     1      25.363   2.354  53.964  1.00  0.00    -0.370 N 
HETATM   12  H9  UNL     1      24.490   2.147  54.480  1.00  0.00     0.161 HD
BRANCH  11  13
HETATM   13  C6  UNL     1      25.008   3.560  53.241  1.00  0.00     0.150 C 
BRANCH  13  14
HETATM   14  C5  UNL     1      24.175   3.124  52.068  1.00  0.00     0.016 C 
HETATM   15  C4  UNL     1      24.503   2.729  50.837  1.00  0.00     0.031 C 
HETATM   16 CL1  UNL     1      26.151   2.653  50.292  1.00  0.00    -0.085 Cl
BRANCH  15  17
HETATM   17  C3  UNL     1      23.393   2.372  49.949  1.00  0.00     0.019 C 
HETATM   18  C2  UNL     1      23.348   2.932  48.771  1.00  0.00    -0.029 C 
HETATM   19  C1  UNL     1      22.266   2.633  47.809  1.00  0.00     0.036 C 
ENDBRANCH  15  17
ENDBRANCH  13  14
ENDBRANCH  11  13
ENDBRANCH   1  11
BRANCH   9  20
HETATM   20  O1  UNL     1      24.559   0.012  53.279  1.00  0.00    -0.345 OA
BRANCH  20  21
HETATM   21  C14 UNL     1      23.424  -0.804  53.270  1.00  0.00     0.132 C 
HETATM   22  C15 UNL     1      22.854  -0.998  54.649  1.00  0.00     0.062 C 
HETATM   23  C16 UNL     1      21.367  -1.033  54.744  1.00  0.00     0.274 C 
HETATM   24  N4  UNL     1      20.700   0.061  54.094  1.00  0.00     0.084 N 
HETATM   25  C17 UNL     1      19.531  -0.461  53.411  1.00  0.00     0.309 C 
HETATM   26  C18 UNL     1      21.526   0.698  53.091  1.00  0.00     0.274 C 
HETATM   27  C19 UNL     1      22.341  -0.310  52.361  1.00  0.00     0.062 C 
ENDBRANCH  20  21
ENDBRANCH   9  20
TORSDOF 6
ENDMDL
MODEL 4
REMARK VINA RESULT:      -7.9      2.012      5.333
REMARK  6 active torsions:
REMARK  status: ('A' for Active; 'I' for Inactive)
REMARK    1  A    between atoms: C3_3  and  C4_4 
REMARK    2  A    between atoms: C5_6  and  C6_7 
REMARK    3  A    between atoms: C6_7  and  N1_8 
REMARK    4  A    between atoms: N1_8  and  C7_9 
REMARK    5  A    between atoms: C13_17  and  O1_18 
REMARK    6  A    between atoms: O1_18  and  C14_19 
ROOT
HETATM    1  C7  UNL     1      26.625   2.250  52.116  1.00  0.00     0.140 A 
HETATM    2  N2  UNL     1      27.915   2.236  52.470  1.00  0.00    -0.224 NA
HETATM    3  C8  UNL     1      28.428   1.401  53.356  1.00  0.00     0.236 A 
HETATM    4  N3  UNL     1      27.600   0.519  53.929  1.00  0.00    -0.241 NA
HETATM    5  C9  UNL     1      26.287   0.492  53.605  1.00  0.00     0.075 A 
HETATM    6  C10 UNL     1      25.543  -0.456  54.259  1.00  0.00     0.033 A 
HETATM    7  C11 UNL     1      24.197  -0.515  53.957  1.00  0.00     0.005 A 
HETATM    8  C12 UNL     1      23.689   0.369  53.029  1.00  0.00     0.038 A 
HETATM    9  C13 UNL     1      24.393   1.335  52.348  1.00  0.00     0.085 A 
HETATM   10  C20 UNL     1      25.741   1.369  52.673  1.00  0.00     0.072 A 
ENDROOT
BRANCH   1  11
HETATM   11  N1  UNL     1      26.241   3.220  51.148  1.00  0.00    -0.370 N 
HETATM   12  H9  UNL     1      25.788   4.150  51.135  1.00  0.00     0.161 HD
BRANCH  11  13
HETATM   13  C6  UNL     1      26.488   2.984  49.738  1.00  0.00     0.150 C 
BRANCH  13  14
HETATM   14  C5  UNL     1      27.027   4.271  49.179  1.00  0.00     0.016 C 
HETATM   15  C4  UNL     1      26.432   5.416  48.842  1.00  0.00     0.031 C 
HETATM   16 CL1  UNL     1      24.718   5.655  48.991  1.00  0.00    -0.085 Cl
BRANCH  15  17
HETATM   17  C3  UNL     1      27.302   6.474  48.320  1.00  0.00     0.019 C 
HETATM   18  C2  UNL     1      28.558   6.184  48.112  1.00  0.00    -0.029 C 
HETATM   19  C1  UNL     1      29.511   7.186  47.588  1.00  0.00     0.036 C 
ENDBRANCH  15  17
ENDBRANCH  13  14
ENDBRANCH  11  13
ENDBRANCH   1  11
BRANCH   9  20
HETATM   20  O1  UNL     1      23.900   2.203  51.436  1.00  0.00    -0.345 OA
BRANCH  20  21
HETATM   21  C14 UNL     1      22.563   2.326  51.045  1.00  0.00     0.132 C 
HETATM   22  C15 UNL     1      22.159   3.763  50.852  1.00  0.00     0.062 C 
HETATM   23  C16 UNL     1      21.233   4.036  49.717  1.00  0.00     0.274 C 
HETATM   24  N4  UNL     1      21.647   3.476  48.460  1.00  0.00     0.084 N 
HETATM   25  C17 UNL     1      20.475   2.935  47.796  1.00  0.00     0.309 C 
HETATM   26  C18 UNL     1      22.583   2.384  48.619  1.00  0.00     0.274 C 
HETATM   27  C19 UNL     1      22.231   1.557  49.805  1.00  0.00     0.062 C 
ENDBRANCH  20  21
ENDBRANCH   9  20
TORSDOF 6
ENDMDL
MODEL 5
REMARK VINA RESULT:      -7.9      2.502      6.428
REMARK  6 active torsions:
REMARK  status: ('A' for Active; 'I' for Inactive)
REMARK    1  A    between atoms: C3_3  and  C4_4 
REMARK    2  A    between atoms: C5_6  and  C6_7 
REMARK    3  A    between atoms: C6_7  and  N1_8 
REMARK    4  A    between atoms: N1_8  and  C7_9 
REMARK    5  A    between atoms: C13_17  and  O1_18 
REMARK    6  A    between atoms: O1_18  and  C14_19 
ROOT
HETATM    1  C7  UNL     1      24.155   5.291  50.993  1.00  0.00     0.140 A 
HETATM    2  N2  UNL     1      23.575   6.492  51.112  1.00  0.00    -0.224 NA
HETATM    3  C8  UNL     1      24.008   7.583  50.509  1.00  0.00     0.236 A 
HETATM    4  N3  UNL     1      25.094   7.474  49.733  1.00  0.00    -0.241 NA
HETATM    5  C9  UNL     1      25.717   6.284  49.579  1.00  0.00     0.075 A 
HETATM    6  C10 UNL     1      26.817   6.300  48.760  1.00  0.00     0.033 A 
HETATM    7  C11 UNL     1      27.481   5.104  48.579  1.00  0.00     0.005 A 
HETATM    8  C12 UNL     1      27.007   3.980  49.222  1.00  0.00     0.038 A 
HETATM    9  C13 UNL     1      25.911   3.913  50.050  1.00  0.00     0.085 A 
HETATM   10  C20 UNL     1      25.265   5.130  50.213  1.00  0.00     0.072 A 
ENDROOT
BRANCH   1  11
HETATM   11  N1  UNL     1      23.558   4.222  51.717  1.00  0.00    -0.370 N 
HETATM   12  H9  UNL     1      23.803   3.603  52.509  1.00  0.00     0.161 HD
BRANCH  11  13
HETATM   13  C6  UNL     1      22.232   3.751  51.365  1.00  0.00     0.150 C 
BRANCH  13  14
HETATM   14  C5  UNL     1      21.918   2.620  52.304  1.00  0.00     0.016 C 
HETATM   15  C4  UNL     1      21.635   1.334  52.091  1.00  0.00     0.031 C 
HETATM   16 CL1  UNL     1      21.552   0.651  50.496  1.00  0.00    -0.085 Cl
BRANCH  15  17
HETATM   17  C3  UNL     1      21.380   0.517  53.280  1.00  0.00     0.019 C 
HETATM   18  C2  UNL     1      22.003  -0.626  53.382  1.00  0.00    -0.029 C 
HETATM   19  C1  UNL     1      21.808  -1.518  54.545  1.00  0.00     0.036 C 
ENDBRANCH  15  17
ENDBRANCH  13  14
ENDBRANCH  11  13
ENDBRANCH   1  11
BRANCH   9  20
HETATM   20  O1  UNL     1      25.441   2.814  50.682  1.00  0.00    -0.345 OA
BRANCH  20  21
HETATM   21  C14 UNL     1      26.207   1.825  51.309  1.00  0.00     0.132 C 
HETATM   22  C15 UNL     1      27.276   2.411  52.191  1.00  0.00     0.062 C 
HETATM   23  C16 UNL     1      27.540   1.689  53.467  1.00  0.00     0.274 C 
HETATM   24  N4  UNL     1      26.367   1.407  54.249  1.00  0.00     0.084 N 
HETATM   25  C17 UNL     1      26.493   0.066  54.788  1.00  0.00     0.309 C 
HETATM   26  C18 UNL     1      25.155   1.433  53.459  1.00  0.00     0.274 C 
HETATM   27  C19 UNL     1      25.392   0.857  52.108  1.00  0.00     0.062 C 
ENDBRANCH  20  21
ENDBRANCH   9  20
TORSDOF 6
ENDMDL
MODEL 6
REMARK VINA RESULT:      -7.9      1.946      5.065
REMARK  6 active torsions:
REMARK  status: ('A' for Active; 'I' for Inactive)
REMARK    1  A    between atoms: C3_3  and  C4_4 
REMARK    2  A    between atoms: C5_6  and  C6_7 
REMARK    3  A    between atoms: C6_7  and  N1_8 
REMARK    4  A    between atoms: N1_8  and  C7_9 
REMARK    5  A    between atoms: C13_17  and  O1_18 
REMARK    6  A    between atoms: O1_18  and  C14_19 
ROOT
HETATM    1  C7  UNL     1      25.824   0.655  52.907  1.00  0.00     0.140 A 
HETATM    2  N2  UNL     1      27.076   0.671  53.381  1.00  0.00    -0.224 NA
HETATM    3  C8  UNL     1      27.441   0.110  54.519  1.00  0.00     0.236 A 
HETATM    4  N3  UNL     1      26.496  -0.511  55.235  1.00  0.00    -0.241 NA
HETATM    5  C9  UNL     1      25.217  -0.557  54.801  1.00  0.00     0.075 A 
HETATM    6  C10 UNL     1      24.343  -1.221  55.622  1.00  0.00     0.033 A 
HETATM    7  C11 UNL     1      23.026  -1.290  55.214  1.00  0.00     0.005 A 
HETATM    8  C12 UNL     1      22.673  -0.694  54.021  1.00  0.00     0.038 A 
HETATM    9  C13 UNL     1      23.510  -0.018  53.164  1.00  0.00     0.085 A 
HETATM   10  C20 UNL     1      24.825   0.033  53.603  1.00  0.00     0.072 A 
ENDROOT
BRANCH   1  11
HETATM   11  N1  UNL     1      25.605   1.313  51.664  1.00  0.00    -0.370 N 
HETATM   12  H9  UNL     1      24.911   1.289  50.898  1.00  0.00     0.161 HD
BRANCH  11  13
HETATM   13  C6  UNL     1      26.530   2.331  51.204  1.00  0.00     0.150 C 
BRANCH  13  14
HETATM   14  C5  UNL     1      25.691   3.477  50.711  1.00  0.00     0.016 C 
HETATM   15  C4  UNL     1      25.905   4.402  49.774  1.00  0.00     0.031 C 
HETATM   16 CL1  UNL     1      27.375   4.472  48.853  1.00  0.00    -0.085 Cl
BRANCH  15  17
HETATM   17  C3  UNL     1      24.832   5.379  49.567  1.00  0.00     0.019 C 
HETATM   18  C2  UNL     1      24.410   6.052  50.602  1.00  0.00    -0.029 C 
HETATM   19  C1  UNL     1      23.332   7.058  50.490  1.00  0.00     0.036 C 
ENDBRANCH  15  17
ENDBRANCH  13  14
ENDBRANCH  11  13
ENDBRANCH   1  11
BRANCH   9  20
HETATM   20  O1  UNL     1      23.169   0.566  51.994  1.00  0.00    -0.345 OA
BRANCH  20  21
HETATM   21  C14 UNL     1      22.008   1.303  51.741  1.00  0.00     0.132 C 
HETATM   22  C15 UNL     1      22.180   2.762  52.067  1.00  0.00     0.062 C 
HETATM   23  C16 UNL     1      21.514   3.722  51.144  1.00  0.00     0.274 C 
HETATM   24  N4  UNL     1      21.788   3.502  49.750  1.00  0.00     0.084 N 
HETATM   25  C17 UNL     1      20.556   3.693  49.009  1.00  0.00     0.309 C 
HETATM   26  C18 UNL     1      22.239   2.153  49.481  1.00  0.00     0.274 C 
HETATM   27  C19 UNL     1      21.514   1.174  50.334  1.00  0.00     0.062 C 
ENDBRANCH  20  21
ENDBRANCH   9  20
TORSDOF 6
ENDMDL
MODEL 7
REMARK VINA RESULT:      -7.6      3.447      5.974
REMARK  6 active torsions:
REMARK  status: ('A' for Active; 'I' for Inactive)
REMARK    1  A    between atoms: C3_3  and  C4_4 
REMARK    2  A    between atoms: C5_6  and  C6_7 
REMARK    3  A    between atoms: C6_7  and  N1_8 
REMARK    4  A    between atoms: N1_8  and  C7_9 
REMARK    5  A    between atoms: C13_17  and  O1_18 
REMARK    6  A    between atoms: O1_18  and  C14_19 
ROOT
HETATM    1  C7  UNL     1      22.481  -0.076  53.033  1.00  0.00     0.140 A 
HETATM    2  N2  UNL     1      22.976  -0.739  54.085  1.00  0.00    -0.224 NA
HETATM    3  C8  UNL     1      22.248  -1.483  54.897  1.00  0.00     0.236 A 
HETATM    4  N3  UNL     1      20.937  -1.575  54.645  1.00  0.00    -0.241 NA
HETATM    5  C9  UNL     1      20.387  -0.926  53.595  1.00  0.00     0.075 A 
HETATM    6  C10 UNL     1      19.035  -1.098  53.442  1.00  0.00     0.033 A 
HETATM    7  C11 UNL     1      18.436  -0.450  52.380  1.00  0.00     0.005 A 
HETATM    8  C12 UNL     1      19.221   0.321  51.549  1.00  0.00     0.038 A 
HETATM    9  C13 UNL     1      20.576   0.524  51.660  1.00  0.00     0.085 A 
HETATM   10  C20 UNL     1      21.149  -0.139  52.736  1.00  0.00     0.072 A 
ENDROOT
BRANCH   1  11
HETATM   11  N1  UNL     1      23.408   0.683  52.265  1.00  0.00    -0.370 N 
HETATM   12  H9  UNL     1      23.622   0.847  51.266  1.00  0.00     0.161 HD
BRANCH  11  13
HETATM   13  C6  UNL     1      24.397   1.514  52.926  1.00  0.00     0.150 C 
BRANCH  13  14
HETATM   14  C5  UNL     1      25.715   0.806  52.777  1.00  0.00     0.016 C 
HETATM   15  C4  UNL     1      26.497   0.179  53.658  1.00  0.00     0.031 C 
HETATM   16 CL1  UNL     1      26.095   0.066  55.344  1.00  0.00    -0.085 Cl
BRANCH  15  17
HETATM   17  C3  UNL     1      27.734  -0.404  53.131  1.00  0.00     0.019 C 
HETATM   18  C2  UNL     1      28.798  -0.362  53.886  1.00  0.00    -0.029 C 
HETATM   19  C1  UNL     1      30.091  -0.924  53.439  1.00  0.00     0.036 C 
ENDBRANCH  15  17
ENDBRANCH  13  14
ENDBRANCH  11  13
ENDBRANCH   1  11
BRANCH   9  20
HETATM   20  O1  UNL     1      21.350   1.278  50.847  1.00  0.00    -0.345 OA
BRANCH  20  21
HETATM   21  C14 UNL     1      20.905   2.238  49.932  1.00  0.00     0.132 C 
HETATM   22  C15 UNL     1      21.716   3.504  50.000  1.00  0.00     0.062 C 
HETATM   23  C16 UNL     1      21.988   4.177  48.699  1.00  0.00     0.274 C 
HETATM   24  N4  UNL     1      22.519   3.316  47.679  1.00  0.00     0.084 N 
HETATM   25  C17 UNL     1      21.880   3.654  46.421  1.00  0.00     0.309 C 
HETATM   26  C18 UNL     1      22.241   1.919  47.932  1.00  0.00     0.274 C 
HETATM   27  C19 UNL     1      20.884   1.749  48.518  1.00  0.00     0.062 C 
ENDBRANCH  20  21
ENDBRANCH   9  20
TORSDOF 6
ENDMDL
MODEL 8
REMARK VINA RESULT:      -7.5      1.679      5.292
REMARK  6 active torsions:
REMARK  status: ('A' for Active; 'I' for Inactive)
REMARK    1  A    between atoms: C3_3  and  C4_4 
REMARK    2  A    between atoms: C5_6  and  C6_7 
REMARK    3  A    between atoms: C6_7  and  N1_8 
REMARK    4  A    between atoms: N1_8  and  C7_9 
REMARK    5  A    between atoms: C13_17  and  O1_18 
REMARK    6  A    between atoms: O1_18  and  C14_19 
ROOT
HETATM    1  C7  UNL     1      24.780   0.926  52.623  1.00  0.00     0.140 A 
HETATM    2  N2  UNL     1      26.118   0.934  52.672  1.00  0.00    -0.224 NA
HETATM    3  C8  UNL     1      26.829   0.236  53.538  1.00  0.00     0.236 A 
HETATM    4  N3  UNL     1      26.163  -0.524  54.417  1.00  0.00    -0.241 NA
HETATM    5  C9  UNL     1      24.812  -0.568  54.409  1.00  0.00     0.075 A 
HETATM    6  C10 UNL     1      24.247  -1.383  55.356  1.00  0.00     0.033 A 
HETATM    7  C11 UNL     1      22.869  -1.454  55.382  1.00  0.00     0.005 A 
HETATM    8  C12 UNL     1      22.152  -0.713  54.466  1.00  0.00     0.038 A 
HETATM    9  C13 UNL     1      22.671   0.116  53.499  1.00  0.00     0.085 A 
HETATM   10  C20 UNL     1      24.057   0.166  53.499  1.00  0.00     0.072 A 
ENDROOT
BRANCH   1  11
HETATM   11  N1  UNL     1      24.175   1.743  51.627  1.00  0.00    -0.370 N 
HETATM   12  H9  UNL     1      23.792   1.629  50.673  1.00  0.00     0.161 HD
BRANCH  11  13
HETATM   13  C6  UNL     1      23.964   3.157  51.871  1.00  0.00     0.150 C 
BRANCH  13  14
HETATM   14  C5  UNL     1      24.855   3.892  50.908  1.00  0.00     0.016 C 
HETATM   15  C4  UNL     1      24.703   4.222  49.625  1.00  0.00     0.031 C 
HETATM   16 CL1  UNL     1      23.284   3.799  48.716  1.00  0.00    -0.085 Cl
BRANCH  15  17
HETATM   17  C3  UNL     1      25.810   4.956  49.005  1.00  0.00     0.019 C 
HETATM   18  C2  UNL     1      27.005   4.438  49.083  1.00  0.00    -0.029 C 
HETATM   19  C1  UNL     1      28.183   5.107  48.489  1.00  0.00     0.036 C 
ENDBRANCH  15  17
ENDBRANCH  13  14
ENDBRANCH  11  13
ENDBRANCH   1  11
BRANCH   9  20
HETATM   20  O1  UNL     1      21.973   0.843  52.598  1.00  0.00    -0.345 OA
BRANCH  20  21
HETATM   21  C14 UNL     1      20.597   1.090  52.618  1.00  0.00     0.132 C 
HETATM   22  C15 UNL     1      20.281   2.554  52.471  1.00  0.00     0.062 C 
HETATM   23  C16 UNL     1      19.083   2.887  51.651  1.00  0.00     0.274 C 
HETATM   24  N4  UNL     1      19.045   2.252  50.362  1.00  0.00     0.084 N 
HETATM   25  C17 UNL     1      17.684   1.815  50.112  1.00  0.00     0.309 C 
HETATM   26  C18 UNL     1      19.885   1.076  50.298  1.00  0.00     0.274 C 
HETATM   27  C19 UNL     1      19.838   0.323  51.580  1.00  0.00     0.062 C 
ENDBRANCH  20  21
ENDBRANCH   9  20
TORSDOF 6
ENDMDL
MODEL 9
REMARK VINA RESULT:      -7.5      2.728      4.998
REMARK  6 active torsions:
REMARK  status: ('A' for Active; 'I' for Inactive)
REMARK    1  A    between atoms: C3_3  and  C4_4 
REMARK    2  A    between atoms: C5_6  and  C6_7 
REMARK    3  A    between atoms: C6_7  and  N1_8 
REMARK    4  A    between atoms: N1_8  and  C7_9 
REMARK    5  A    between atoms: C13_17  and  O1_18 
REMARK    6  A    between atoms: O1_18  and  C14_19 
ROOT
HETATM    1  C7  UNL     1      22.558   0.010  53.086  1.00  0.00     0.140 A 
HETATM    2  N2  UNL     1      23.065  -0.581  54.175  1.00  0.00    -0.224 NA
HETATM    3  C8  UNL     1      22.357  -1.314  55.014  1.00  0.00     0.236 A 
HETATM    4  N3  UNL     1      21.053  -1.471  54.751  1.00  0.00    -0.241 NA
HETATM    5  C9  UNL     1      20.492  -0.896  53.665  1.00  0.00     0.075 A 
HETATM    6  C10 UNL     1      19.150  -1.131  53.505  1.00  0.00     0.033 A 
HETATM    7  C11 UNL     1      18.540  -0.560  52.406  1.00  0.00     0.005 A 
HETATM    8  C12 UNL     1      19.304   0.202  51.548  1.00  0.00     0.038 A 
HETATM    9  C13 UNL     1      20.649   0.466  51.665  1.00  0.00     0.085 A 
HETATM   10  C20 UNL     1      21.233  -0.121  52.777  1.00  0.00     0.072 A 
ENDROOT
BRANCH   1  11
HETATM   11  N1  UNL     1      23.464   0.769  52.293  1.00  0.00    -0.370 N 
HETATM   12  H9  UNL     1      23.913   0.697  51.364  1.00  0.00     0.161 HD
BRANCH  11  13
HETATM   13  C6  UNL     1      23.997   2.023  52.791  1.00  0.00     0.150 C 
BRANCH  13  14
HETATM   14  C5  UNL     1      24.797   2.621  51.668  1.00  0.00     0.016 C 
HETATM   15  C4  UNL     1      26.001   2.327  51.173  1.00  0.00     0.031 C 
HETATM   16 CL1  UNL     1      26.991   1.057  51.825  1.00  0.00    -0.085 Cl
BRANCH  15  17
HETATM   17  C3  UNL     1      26.461   3.147  50.049  1.00  0.00     0.019 C 
HETATM   18  C2  UNL     1      26.016   4.371  49.962  1.00  0.00    -0.029 C 
HETATM   19  C1  UNL     1      26.424   5.271  48.862  1.00  0.00     0.036 C 
ENDBRANCH  15  17
ENDBRANCH  13  14
ENDBRANCH  11  13
ENDBRANCH   1  11
BRANCH   9  20
HETATM   20  O1  UNL     1      21.402   1.211  50.825  1.00  0.00    -0.345 OA
BRANCH  20  21
HETATM   21  C14 UNL     1      20.949   2.239  49.993  1.00  0.00     0.132 C 
HETATM   22  C15 UNL     1      21.362   3.597  50.493  1.00  0.00     0.062 C 
HETATM   23  C16 UNL     1      21.745   4.590  49.450  1.00  0.00     0.274 C 
HETATM   24  N4  UNL     1      22.705   4.114  48.493  1.00  0.00     0.084 N 
HETATM   25  C17 UNL     1      22.311   4.588  47.180  1.00  0.00     0.309 C 
HETATM   26  C18 UNL     1      22.749   2.669  48.425  1.00  0.00     0.274 C 
HETATM   27  C19 UNL     1      21.386   2.091  48.569  1.00  0.00     0.062 C 
ENDBRANCH  20  21
ENDBRANCH   9  20
TORSDOF 6
ENDMDL
