MODEL 1
REMARK VINA RESULT:      -8.3      0.000      0.000
REMARK  3 active torsions:
REMARK  status: ('A' for Active; 'I' for Inactive)
REMARK    1  A    between atoms: C4_6  and  C5_7 
REMARK    2  A    between atoms: C8_11  and  N4_12 
REMARK    3  A    between atoms: N4_12  and  C9_13 
ROOT
HETATM    1  C5  UNL     1      21.340  -0.543  53.501  1.00  0.00     0.104 A 
HETATM    2  C6  UNL     1      21.437  -1.207  54.733  1.00  0.00     0.150 A 
HETATM    3  N3  UNL     1      22.647  -1.376  55.344  1.00  0.00    -0.267 NA
HETATM    4  C7  UNL     1      23.732  -0.886  54.727  1.00  0.00     0.166 A 
HETATM    5  C8  UNL     1      23.680  -0.230  53.522  1.00  0.00     0.146 A 
HETATM    6  N5  UNL     1      22.470  -0.060  52.906  1.00  0.00    -0.226 NA
ENDROOT
BRANCH   1   7
HETATM    7  C4  UNL     1      20.039  -0.356  52.850  1.00  0.00     0.077 C 
HETATM    8  N2  UNL     1      18.862  -0.770  53.551  1.00  0.00    -0.362 N 
HETATM    9  C3  UNL     1      17.758  -1.498  53.041  1.00  0.00     0.105 C 
HETATM   10  H6  UNL     1      18.830  -0.491  54.555  1.00  0.00     0.165 HD
HETATM   11  C2  UNL     1      16.598  -1.290  52.449  1.00  0.00     0.102 C 
HETATM   12  N1  UNL     1      15.838  -0.175  52.005  1.00  0.00    -0.393 N 
HETATM   13  C1  UNL     1      14.920   0.255  53.031  1.00  0.00     0.148 C 
HETATM   14  C18 UNL     1      16.134   0.278  50.667  1.00  0.00     0.123 C 
HETATM   15  C17 UNL     1      16.819   1.655  50.665  1.00  0.00     0.039 C 
HETATM   16  C16 UNL     1      18.075   1.492  51.514  1.00  0.00     0.120 C 
HETATM   17  N6  UNL     1      18.849   0.432  50.904  1.00  0.00    -0.397 N 
HETATM   18  C15 UNL     1      19.999   0.181  51.660  1.00  0.00     0.115 C 
HETATM   19  H15 UNL     1      18.734  -0.162  50.054  1.00  0.00     0.158 HD
ENDBRANCH   1   7
BRANCH   5  20
HETATM   20  N4  UNL     1      24.711   0.355  52.740  1.00  0.00    -0.340 N 
HETATM   21  H9  UNL     1      24.536   1.042  51.970  1.00  0.00     0.167 HD
BRANCH  20  22
HETATM   22  C9  UNL     1      26.084   0.001  52.999  1.00  0.00     0.035 A 
HETATM   23  C10 UNL     1      26.566  -1.247  52.676  1.00  0.00     0.029 A 
HETATM   24  C11 UNL     1      27.872  -1.614  52.895  1.00  0.00     0.004 A 
HETATM   25  C12 UNL     1      28.712  -0.681  53.461  1.00  0.00     0.024 A 
HETATM   26  C13 UNL     1      28.278   0.596  53.809  1.00  0.00     0.036 A 
HETATM   27 CL1  UNL     1      29.397   1.775  54.527  1.00  0.00    -0.084 Cl
HETATM   28  C14 UNL     1      26.942   0.951  53.578  1.00  0.00     0.053 A 
ENDBRANCH  20  22
ENDBRANCH   5  20
TORSDOF 3
ENDMDL
MODEL 2
REMARK VINA RESULT:      -8.2      4.312      6.495
REMARK  3 active torsions:
REMARK  status: ('A' for Active; 'I' for Inactive)
REMARK    1  A    between atoms: C4_6  and  C5_7 
REMARK    2  A    between atoms: C8_11  and  N4_12 
REMARK    3  A    between atoms: N4_12  and  C9_13 
ROOT
HETATM    1  C5  UNL     1      23.268   2.074  52.039  1.00  0.00     0.104 A 
HETATM    2  C6  UNL     1      22.077   1.524  51.541  1.00  0.00     0.150 A 
HETATM    3  N3  UNL     1      21.655   0.290  51.942  1.00  0.00    -0.267 NA
HETATM    4  C7  UNL     1      22.415  -0.375  52.825  1.00  0.00     0.166 A 
HETATM    5  C8  UNL     1      23.586   0.127  53.336  1.00  0.00     0.146 A 
HETATM    6  N5  UNL     1      24.013   1.364  52.936  1.00  0.00    -0.226 NA
ENDROOT
BRANCH   1   7
HETATM    7  C4  UNL     1      23.717   3.404  51.613  1.00  0.00     0.077 C 
HETATM    8  N2  UNL     1      24.338   3.533  50.331  1.00  0.00    -0.362 N 
HETATM    9  C3  UNL     1      25.510   4.260  50.003  1.00  0.00     0.105 C 
HETATM   10  H6  UNL     1      23.856   3.028  49.557  1.00  0.00     0.165 HD
HETATM   11  C2  UNL     1      25.877   5.471  49.628  1.00  0.00     0.102 C 
HETATM   12  N1  UNL     1      25.245   6.713  49.353  1.00  0.00    -0.393 N 
HETATM   13  C1  UNL     1      24.934   6.825  47.949  1.00  0.00     0.148 C 
HETATM   14  C18 UNL     1      25.054   7.573  50.496  1.00  0.00     0.123 C 
HETATM   15  C17 UNL     1      23.568   7.717  50.864  1.00  0.00     0.039 C 
HETATM   16  C16 UNL     1      23.065   6.300  51.114  1.00  0.00     0.120 C 
HETATM   17  N6  UNL     1      23.896   5.747  52.162  1.00  0.00    -0.397 N 
HETATM   18  C15 UNL     1      23.533   4.420  52.413  1.00  0.00     0.115 C 
HETATM   19  H15 UNL     1      24.678   6.115  52.746  1.00  0.00     0.158 HD
ENDBRANCH   1   7
BRANCH   5  20
HETATM   20  N4  UNL     1      24.500  -0.424  54.272  1.00  0.00    -0.340 N 
HETATM   21  H9  UNL     1      24.221  -0.769  55.221  1.00  0.00     0.167 HD
BRANCH  20  22
HETATM   22  C9  UNL     1      25.894  -0.528  53.925  1.00  0.00     0.035 A 
HETATM   23  C10 UNL     1      26.335  -1.494  53.049  1.00  0.00     0.029 A 
HETATM   24  C11 UNL     1      27.655  -1.613  52.684  1.00  0.00     0.004 A 
HETATM   25  C12 UNL     1      28.552  -0.721  53.228  1.00  0.00     0.024 A 
HETATM   26  C13 UNL     1      28.162   0.276  54.120  1.00  0.00     0.036 A 
HETATM   27 CL1  UNL     1      29.349   1.414  54.791  1.00  0.00    -0.084 Cl
HETATM   28  C14 UNL     1      26.811   0.381  54.480  1.00  0.00     0.053 A 
ENDBRANCH  20  22
ENDBRANCH   5  20
TORSDOF 3
ENDMDL
MODEL 3
REMARK VINA RESULT:      -8.0      4.955      7.455
REMARK  3 active torsions:
REMARK  status: ('A' for Active; 'I' for Inactive)
REMARK    1  A    between atoms: C4_6  and  C5_7 
REMARK    2  A    between atoms: C8_11  and  N4_12 
REMARK    3  A    between atoms: N4_12  and  C9_13 
ROOT
HETATM    1  C5  UNL     1      22.175   3.615  51.738  1.00  0.00     0.104 A 
HETATM    2  C6  UNL     1      20.884   3.993  52.136  1.00  0.00     0.150 A 
HETATM    3  N3  UNL     1      19.990   3.063  52.584  1.00  0.00    -0.267 NA
HETATM    4  C7  UNL     1      20.388   1.784  52.630  1.00  0.00     0.166 A 
HETATM    5  C8  UNL     1      21.642   1.373  52.250  1.00  0.00     0.146 A 
HETATM    6  N5  UNL     1      22.541   2.301  51.800  1.00  0.00    -0.226 NA
ENDROOT
BRANCH   1   7
HETATM    7  C4  UNL     1      23.138   4.616  51.264  1.00  0.00     0.077 C 
HETATM    8  N2  UNL     1      23.624   4.508  49.922  1.00  0.00    -0.362 N 
HETATM    9  C3  UNL     1      24.961   4.639  49.471  1.00  0.00     0.105 C 
HETATM   10  H6  UNL     1      22.893   4.313  49.206  1.00  0.00     0.165 HD
HETATM   11  C2  UNL     1      25.801   5.568  49.057  1.00  0.00     0.102 C 
HETATM   12  N1  UNL     1      25.782   6.973  48.847  1.00  0.00    -0.393 N 
HETATM   13  C1  UNL     1      25.424   7.278  47.483  1.00  0.00     0.148 C 
HETATM   14  C18 UNL     1      26.114   7.772  50.002  1.00  0.00     0.123 C 
HETATM   15  C17 UNL     1      24.899   8.557  50.525  1.00  0.00     0.039 C 
HETATM   16  C16 UNL     1      23.832   7.511  50.830  1.00  0.00     0.120 C 
HETATM   17  N6  UNL     1      24.416   6.594  51.786  1.00  0.00    -0.397 N 
HETATM   18  C15 UNL     1      23.514   5.566  52.077  1.00  0.00     0.115 C 
HETATM   19  H15 UNL     1      25.332   6.540  52.283  1.00  0.00     0.158 HD
ENDBRANCH   1   7
BRANCH   5  20
HETATM   20  N4  UNL     1      22.231   0.081  52.242  1.00  0.00    -0.340 N 
HETATM   21  H9  UNL     1      22.118  -0.603  51.457  1.00  0.00     0.167 HD
BRANCH  20  22
HETATM   22  C9  UNL     1      23.033  -0.339  53.363  1.00  0.00     0.035 A 
HETATM   23  C10 UNL     1      22.466  -0.992  54.434  1.00  0.00     0.029 A 
HETATM   24  C11 UNL     1      23.202  -1.420  55.513  1.00  0.00     0.004 A 
HETATM   25  C12 UNL     1      24.557  -1.175  55.499  1.00  0.00     0.024 A 
HETATM   26  C13 UNL     1      25.185  -0.519  54.442  1.00  0.00     0.036 A 
HETATM   27 CL1  UNL     1      26.938  -0.233  54.459  1.00  0.00    -0.084 Cl
HETATM   28  C14 UNL     1      24.416  -0.090  53.351  1.00  0.00     0.053 A 
ENDBRANCH  20  22
ENDBRANCH   5  20
TORSDOF 3
ENDMDL
MODEL 4
REMARK VINA RESULT:      -8.0      4.997      8.279
REMARK  3 active torsions:
REMARK  status: ('A' for Active; 'I' for Inactive)
REMARK    1  A    between atoms: C4_6  and  C5_7 
REMARK    2  A    between atoms: C8_11  and  N4_12 
REMARK    3  A    between atoms: N4_12  and  C9_13 
ROOT
HETATM    1  C5  UNL     1      22.861   3.103  52.343  1.00  0.00     0.104 A 
HETATM    2  C6  UNL     1      21.618   2.477  52.163  1.00  0.00     0.150 A 
HETATM    3  N3  UNL     1      20.541   3.179  51.705  1.00  0.00    -0.267 NA
HETATM    4  C7  UNL     1      20.713   4.481  51.434  1.00  0.00     0.166 A 
HETATM    5  C8  UNL     1      21.911   5.131  51.596  1.00  0.00     0.146 A 
HETATM    6  N5  UNL     1      22.993   4.431  52.056  1.00  0.00    -0.226 NA
ENDROOT
BRANCH   1   7
HETATM    7  C4  UNL     1      24.020   2.346  52.828  1.00  0.00     0.077 C 
HETATM    8  N2  UNL     1      24.039   0.929  52.625  1.00  0.00    -0.362 N 
HETATM    9  C3  UNL     1      24.401  -0.077  53.556  1.00  0.00     0.105 C 
HETATM   10  H6  UNL     1      23.752   0.620  51.671  1.00  0.00     0.165 HD
HETATM   11  C2  UNL     1      25.467  -0.732  53.971  1.00  0.00     0.102 C 
HETATM   12  N1  UNL     1      26.857  -0.757  53.677  1.00  0.00    -0.393 N 
HETATM   13  C1  UNL     1      27.146  -1.755  52.676  1.00  0.00     0.148 C 
HETATM   14  C18 UNL     1      27.658   0.189  54.415  1.00  0.00     0.123 C 
HETATM   15  C17 UNL     1      28.217   1.298  53.510  1.00  0.00     0.039 C 
HETATM   16  C16 UNL     1      27.003   1.951  52.859  1.00  0.00     0.120 C 
HETATM   17  N6  UNL     1      26.160   2.420  53.939  1.00  0.00    -0.397 N 
HETATM   18  C15 UNL     1      24.991   2.986  53.423  1.00  0.00     0.115 C 
HETATM   19  H15 UNL     1      26.239   2.423  54.979  1.00  0.00     0.158 HD
ENDBRANCH   1   7
BRANCH   5  20
HETATM   20  N4  UNL     1      22.272   6.482  51.354  1.00  0.00    -0.340 N 
HETATM   21  H9  UNL     1      21.843   7.297  51.853  1.00  0.00     0.167 HD
BRANCH  20  22
HETATM   22  C9  UNL     1      23.284   6.780  50.371  1.00  0.00     0.035 A 
HETATM   23  C10 UNL     1      23.139   6.376  49.063  1.00  0.00     0.029 A 
HETATM   24  C11 UNL     1      24.076   6.655  48.096  1.00  0.00     0.004 A 
HETATM   25  C12 UNL     1      25.193   7.367  48.475  1.00  0.00     0.024 A 
HETATM   26  C13 UNL     1      25.391   7.800  49.783  1.00  0.00     0.036 A 
HETATM   27 CL1  UNL     1      26.841   8.725  50.227  1.00  0.00    -0.084 Cl
HETATM   28  C14 UNL     1      24.424   7.505  50.755  1.00  0.00     0.053 A 
ENDBRANCH  20  22
ENDBRANCH   5  20
TORSDOF 3
ENDMDL
MODEL 5
REMARK VINA RESULT:      -7.9      6.985     10.181
REMARK  3 active torsions:
REMARK  status: ('A' for Active; 'I' for Inactive)
REMARK    1  A    between atoms: C4_6  and  C5_7 
REMARK    2  A    between atoms: C8_11  and  N4_12 
REMARK    3  A    between atoms: N4_12  and  C9_13 
ROOT
HETATM    1  C5  UNL     1      24.962   6.058  50.384  1.00  0.00     0.104 A 
HETATM    2  C6  UNL     1      24.052   6.635  51.283  1.00  0.00     0.150 A 
HETATM    3  N3  UNL     1      23.156   5.863  51.964  1.00  0.00    -0.267 NA
HETATM    4  C7  UNL     1      23.177   4.540  51.745  1.00  0.00     0.166 A 
HETATM    5  C8  UNL     1      24.050   3.936  50.875  1.00  0.00     0.146 A 
HETATM    6  N5  UNL     1      24.950   4.706  50.190  1.00  0.00    -0.226 NA
ENDROOT
BRANCH   1   7
HETATM    7  C4  UNL     1      25.930   6.888  49.659  1.00  0.00     0.077 C 
HETATM    8  N2  UNL     1      26.721   7.818  50.406  1.00  0.00    -0.362 N 
HETATM    9  C3  UNL     1      27.008   9.169  50.084  1.00  0.00     0.105 C 
HETATM   10  H6  UNL     1      27.128   7.439  51.288  1.00  0.00     0.165 HD
HETATM   11  C2  UNL     1      27.894   9.881  49.415  1.00  0.00     0.102 C 
HETATM   12  N1  UNL     1      29.062   9.636  48.645  1.00  0.00    -0.393 N 
HETATM   13  C1  UNL     1      30.241   9.714  49.473  1.00  0.00     0.148 C 
HETATM   14  C18 UNL     1      28.832   9.370  47.246  1.00  0.00     0.123 C 
HETATM   15  C17 UNL     1      29.154   7.912  46.878  1.00  0.00     0.039 C 
HETATM   16  C16 UNL     1      28.277   7.055  47.783  1.00  0.00     0.120 C 
HETATM   17  N6  UNL     1      26.909   7.454  47.529  1.00  0.00    -0.397 N 
HETATM   18  C15 UNL     1      26.039   6.748  48.365  1.00  0.00     0.115 C 
HETATM   19  H15 UNL     1      26.454   8.131  46.878  1.00  0.00     0.158 HD
ENDBRANCH   1   7
BRANCH   5  20
HETATM   20  N4  UNL     1      24.218   2.569  50.531  1.00  0.00    -0.340 N 
HETATM   21  H9  UNL     1      24.066   2.190  49.567  1.00  0.00     0.167 HD
BRANCH  20  22
HETATM   22  C9  UNL     1      24.620   1.627  51.545  1.00  0.00     0.035 A 
HETATM   23  C10 UNL     1      25.951   1.368  51.782  1.00  0.00     0.029 A 
HETATM   24  C11 UNL     1      26.371   0.488  52.750  1.00  0.00     0.004 A 
HETATM   25  C12 UNL     1      25.405  -0.146  53.500  1.00  0.00     0.024 A 
HETATM   26  C13 UNL     1      24.045   0.077  53.304  1.00  0.00     0.036 A 
HETATM   27 CL1  UNL     1      22.831  -0.753  54.301  1.00  0.00    -0.084 Cl
HETATM   28  C14 UNL     1      23.637   0.979  52.310  1.00  0.00     0.053 A 
ENDBRANCH  20  22
ENDBRANCH   5  20
TORSDOF 3
ENDMDL
MODEL 6
REMARK VINA RESULT:      -7.9      3.615      8.460
REMARK  3 active torsions:
REMARK  status: ('A' for Active; 'I' for Inactive)
REMARK    1  A    between atoms: C4_6  and  C5_7 
REMARK    2  A    between atoms: C8_11  and  N4_12 
REMARK    3  A    between atoms: N4_12  and  C9_13 
ROOT
HETATM    1  C5  UNL     1      23.437   0.786  53.127  1.00  0.00     0.104 A 
HETATM    2  C6  UNL     1      22.749  -0.345  53.590  1.00  0.00     0.150 A 
HETATM    3  N3  UNL     1      21.437  -0.546  53.272  1.00  0.00    -0.267 NA
HETATM    4  C7  UNL     1      20.832   0.372  52.504  1.00  0.00     0.166 A 
HETATM    5  C8  UNL     1      21.469   1.493  52.030  1.00  0.00     0.146 A 
HETATM    6  N5  UNL     1      22.784   1.698  52.347  1.00  0.00    -0.226 NA
ENDROOT
BRANCH   1   7
HETATM    7  C4  UNL     1      24.849   0.997  53.462  1.00  0.00     0.077 C 
HETATM    8  N2  UNL     1      25.675  -0.153  53.674  1.00  0.00    -0.362 N 
HETATM    9  C3  UNL     1      26.616  -0.366  54.713  1.00  0.00     0.105 C 
HETATM   10  H6  UNL     1      25.559  -0.912  52.969  1.00  0.00     0.165 HD
HETATM   11  C2  UNL     1      27.889  -0.153  54.982  1.00  0.00     0.102 C 
HETATM   12  N1  UNL     1      29.010   0.427  54.330  1.00  0.00    -0.393 N 
HETATM   13  C1  UNL     1      29.759  -0.578  53.616  1.00  0.00     0.148 C 
HETATM   14  C18 UNL     1      29.159   1.851  54.512  1.00  0.00     0.123 C 
HETATM   15  C17 UNL     1      28.907   2.626  53.209  1.00  0.00     0.039 C 
HETATM   16  C16 UNL     1      27.499   2.243  52.767  1.00  0.00     0.120 C 
HETATM   17  N6  UNL     1      26.615   2.592  53.859  1.00  0.00    -0.397 N 
HETATM   18  C15 UNL     1      25.303   2.218  53.553  1.00  0.00     0.115 C 
HETATM   19  H15 UNL     1      26.746   3.045  54.789  1.00  0.00     0.158 HD
ENDBRANCH   1   7
BRANCH   5  20
HETATM   20  N4  UNL     1      20.995   2.550  51.210  1.00  0.00    -0.340 N 
HETATM   21  H9  UNL     1      20.302   3.267  51.529  1.00  0.00     0.167 HD
BRANCH  20  22
HETATM   22  C9  UNL     1      21.478   2.668  49.857  1.00  0.00     0.035 A 
HETATM   23  C10 UNL     1      21.606   1.558  49.053  1.00  0.00     0.029 A 
HETATM   24  C11 UNL     1      22.049   1.635  47.754  1.00  0.00     0.004 A 
HETATM   25  C12 UNL     1      22.370   2.880  47.260  1.00  0.00     0.024 A 
HETATM   26  C13 UNL     1      22.260   4.036  48.029  1.00  0.00     0.036 A 
HETATM   27 CL1  UNL     1      22.675   5.624  47.350  1.00  0.00    -0.084 Cl
HETATM   28  C14 UNL     1      21.807   3.937  49.352  1.00  0.00     0.053 A 
ENDBRANCH  20  22
ENDBRANCH   5  20
TORSDOF 3
ENDMDL
MODEL 7
REMARK VINA RESULT:      -7.8      3.264      8.702
REMARK  3 active torsions:
REMARK  status: ('A' for Active; 'I' for Inactive)
REMARK    1  A    between atoms: C4_6  and  C5_7 
REMARK    2  A    between atoms: C8_11  and  N4_12 
REMARK    3  A    between atoms: N4_12  and  C9_13 
ROOT
HETATM    1  C5  UNL     1      22.275   2.595  52.066  1.00  0.00     0.104 A 
HETATM    2  C6  UNL     1      21.962   3.959  52.164  1.00  0.00     0.150 A 
HETATM    3  N3  UNL     1      20.777   4.441  51.686  1.00  0.00    -0.267 NA
HETATM    4  C7  UNL     1      19.928   3.568  51.125  1.00  0.00     0.166 A 
HETATM    5  C8  UNL     1      20.196   2.226  51.010  1.00  0.00     0.146 A 
HETATM    6  N5  UNL     1      21.382   1.739  51.486  1.00  0.00    -0.226 NA
ENDROOT
BRANCH   1   7
HETATM    7  C4  UNL     1      23.545   2.077  52.587  1.00  0.00     0.077 C 
HETATM    8  N2  UNL     1      23.761   0.663  52.566  1.00  0.00    -0.362 N 
HETATM    9  C3  UNL     1      24.291  -0.150  53.599  1.00  0.00     0.105 C 
HETATM   10  H6  UNL     1      23.493   0.192  51.675  1.00  0.00     0.165 HD
HETATM   11  C2  UNL     1      25.452  -0.590  54.043  1.00  0.00     0.102 C 
HETATM   12  N1  UNL     1      26.822  -0.462  53.687  1.00  0.00    -0.393 N 
HETATM   13  C1  UNL     1      27.222  -1.534  52.809  1.00  0.00     0.148 C 
HETATM   14  C18 UNL     1      27.501   0.676  54.258  1.00  0.00     0.123 C 
HETATM   15  C17 UNL     1      27.868   1.721  53.192  1.00  0.00     0.039 C 
HETATM   16  C16 UNL     1      26.553   2.107  52.523  1.00  0.00     0.120 C 
HETATM   17  N6  UNL     1      25.685   2.595  53.573  1.00  0.00    -0.397 N 
HETATM   18  C15 UNL     1      24.431   2.919  53.047  1.00  0.00     0.115 C 
HETATM   19  H15 UNL     1      25.793   2.748  54.600  1.00  0.00     0.158 HD
ENDBRANCH   1   7
BRANCH   5  20
HETATM   20  N4  UNL     1      19.422   1.171  50.461  1.00  0.00    -0.340 N 
HETATM   21  H9  UNL     1      19.570   0.780  49.501  1.00  0.00     0.167 HD
BRANCH  20  22
HETATM   22  C9  UNL     1      18.365   0.585  51.247  1.00  0.00     0.035 A 
HETATM   23  C10 UNL     1      17.093   1.109  51.225  1.00  0.00     0.029 A 
HETATM   24  C11 UNL     1      16.058   0.568  51.949  1.00  0.00     0.004 A 
HETATM   25  C12 UNL     1      16.328  -0.542  52.720  1.00  0.00     0.024 A 
HETATM   26  C13 UNL     1      17.597  -1.114  52.780  1.00  0.00     0.036 A 
HETATM   27 CL1  UNL     1      17.901  -2.552  53.778  1.00  0.00    -0.084 Cl
HETATM   28  C14 UNL     1      18.639  -0.546  52.034  1.00  0.00     0.053 A 
ENDBRANCH  20  22
ENDBRANCH   5  20
TORSDOF 3
ENDMDL
MODEL 8
REMARK VINA RESULT:      -7.7      6.588      9.756
REMARK  3 active torsions:
REMARK  status: ('A' for Active; 'I' for Inactive)
REMARK    1  A    between atoms: C4_6  and  C5_7 
REMARK    2  A    between atoms: C8_11  and  N4_12 
REMARK    3  A    between atoms: N4_12  and  C9_13 
ROOT
HETATM    1  C5  UNL     1      23.933   5.639  50.303  1.00  0.00     0.104 A 
HETATM    2  C6  UNL     1      22.821   6.324  50.815  1.00  0.00     0.150 A 
HETATM    3  N3  UNL     1      21.690   5.650  51.177  1.00  0.00    -0.267 NA
HETATM    4  C7  UNL     1      21.681   4.318  51.027  1.00  0.00     0.166 A 
HETATM    5  C8  UNL     1      22.748   3.610  50.530  1.00  0.00     0.146 A 
HETATM    6  N5  UNL     1      23.883   4.281  50.166  1.00  0.00    -0.226 NA
ENDROOT
BRANCH   1   7
HETATM    7  C4  UNL     1      25.151   6.363  49.922  1.00  0.00     0.077 C 
HETATM    8  N2  UNL     1      25.855   5.938  48.751  1.00  0.00    -0.362 N 
HETATM    9  C3  UNL     1      27.253   5.760  48.596  1.00  0.00     0.105 C 
HETATM   10  H6  UNL     1      25.252   5.743  47.924  1.00  0.00     0.165 HD
HETATM   11  C2  UNL     1      28.327   6.445  48.255  1.00  0.00     0.102 C 
HETATM   12  N1  UNL     1      28.633   7.773  47.854  1.00  0.00    -0.393 N 
HETATM   13  C1  UNL     1      28.614   7.886  46.416  1.00  0.00     0.148 C 
HETATM   14  C18 UNL     1      28.889   8.698  48.931  1.00  0.00     0.123 C 
HETATM   15  C17 UNL     1      27.781   9.756  49.056  1.00  0.00     0.039 C 
HETATM   16  C16 UNL     1      26.486   8.976  49.257  1.00  0.00     0.120 C 
HETATM   17  N6  UNL     1      26.677   8.159  50.436  1.00  0.00    -0.397 N 
HETATM   18  C15 UNL     1      25.547   7.366  50.659  1.00  0.00     0.115 C 
HETATM   19  H15 UNL     1      27.450   8.042  51.128  1.00  0.00     0.158 HD
ENDBRANCH   1   7
BRANCH   5  20
HETATM   20  N4  UNL     1      22.915   2.217  50.315  1.00  0.00    -0.340 N 
HETATM   21  H9  UNL     1      22.857   1.764  49.372  1.00  0.00     0.167 HD
BRANCH  20  22
HETATM   22  C9  UNL     1      23.181   1.353  51.438  1.00  0.00     0.035 A 
HETATM   23  C10 UNL     1      24.448   1.247  51.965  1.00  0.00     0.029 A 
HETATM   24  C11 UNL     1      24.734   0.446  53.043  1.00  0.00     0.004 A 
HETATM   25  C12 UNL     1      23.698  -0.270  53.601  1.00  0.00     0.024 A 
HETATM   26  C13 UNL     1      22.397  -0.202  53.109  1.00  0.00     0.036 A 
HETATM   27 CL1  UNL     1      21.087  -1.133  53.865  1.00  0.00    -0.084 Cl
HETATM   28  C14 UNL     1      22.125   0.621  52.007  1.00  0.00     0.053 A 
ENDBRANCH  20  22
ENDBRANCH   5  20
TORSDOF 3
ENDMDL
MODEL 9
REMARK VINA RESULT:      -7.6      6.445      8.935
REMARK  3 active torsions:
REMARK  status: ('A' for Active; 'I' for Inactive)
REMARK    1  A    between atoms: C4_6  and  C5_7 
REMARK    2  A    between atoms: C8_11  and  N4_12 
REMARK    3  A    between atoms: N4_12  and  C9_13 
ROOT
HETATM    1  C5  UNL     1      24.782   4.608  49.962  1.00  0.00     0.104 A 
HETATM    2  C6  UNL     1      23.828   4.788  48.950  1.00  0.00     0.150 A 
HETATM    3  N3  UNL     1      23.795   5.938  48.214  1.00  0.00    -0.267 NA
HETATM    4  C7  UNL     1      24.704   6.884  48.493  1.00  0.00     0.166 A 
HETATM    5  C8  UNL     1      25.655   6.747  49.474  1.00  0.00     0.146 A 
HETATM    6  N5  UNL     1      25.691   5.597  50.214  1.00  0.00    -0.226 NA
ENDROOT
BRANCH   1   7
HETATM    7  C4  UNL     1      24.822   3.369  50.746  1.00  0.00     0.077 C 
HETATM    8  N2  UNL     1      26.007   3.075  51.493  1.00  0.00    -0.362 N 
HETATM    9  C3  UNL     1      26.691   1.837  51.583  1.00  0.00     0.105 C 
HETATM   10  H6  UNL     1      26.397   3.879  52.030  1.00  0.00     0.165 HD
HETATM   11  C2  UNL     1      26.691   0.733  52.306  1.00  0.00     0.102 C 
HETATM   12  N1  UNL     1      25.968   0.209  53.410  1.00  0.00    -0.393 N 
HETATM   13  C1  UNL     1      26.633   0.526  54.650  1.00  0.00     0.148 C 
HETATM   14  C18 UNL     1      24.760  -0.504  53.072  1.00  0.00     0.123 C 
HETATM   15  C17 UNL     1      23.500   0.252  53.525  1.00  0.00     0.039 C 
HETATM   16  C16 UNL     1      23.574   1.619  52.852  1.00  0.00     0.120 C 
HETATM   17  N6  UNL     1      23.652   1.373  51.428  1.00  0.00    -0.397 N 
HETATM   18  C15 UNL     1      23.779   2.582  50.738  1.00  0.00     0.115 C 
HETATM   19  H15 UNL     1      23.633   0.516  50.831  1.00  0.00     0.158 HD
ENDBRANCH   1   7
BRANCH   5  20
HETATM   20  N4  UNL     1      26.686   7.628  49.893  1.00  0.00    -0.340 N 
HETATM   21  H9  UNL     1      26.685   8.127  50.814  1.00  0.00     0.167 HD
BRANCH  20  22
HETATM   22  C9  UNL     1      27.811   7.867  49.024  1.00  0.00     0.035 A 
HETATM   23  C10 UNL     1      28.070   7.035  47.958  1.00  0.00     0.029 A 
HETATM   24  C11 UNL     1      29.124   7.241  47.100  1.00  0.00     0.004 A 
HETATM   25  C12 UNL     1      29.938   8.327  47.336  1.00  0.00     0.024 A 
HETATM   26  C13 UNL     1      29.723   9.201  48.399  1.00  0.00     0.036 A 
HETATM   27 CL1  UNL     1      30.790  10.596  48.662  1.00  0.00    -0.084 Cl
HETATM   28  C14 UNL     1      28.643   8.973  49.264  1.00  0.00     0.053 A 
ENDBRANCH  20  22
ENDBRANCH   5  20
TORSDOF 3
ENDMDL
