MODEL 1
REMARK VINA RESULT:      -7.6      0.000      0.000
REMARK  7 active torsions:
REMARK  status: ('A' for Active; 'I' for Inactive)
REMARK    1  A    between atoms: C3_3  and  C4_4 
REMARK    2  A    between atoms: C4_4  and  N1_5 
REMARK    3  A    between atoms: N1_5  and  C5_6 
REMARK    4  A    between atoms: C7_8  and  C8_9 
REMARK    5  A    between atoms: C11_12  and  N2_13 
REMARK    6  A    between atoms: N2_13  and  C12_14 
REMARK    7  A    between atoms: C16_18  and  O1_19 
ROOT
HETATM    1  C8  UNL     1      26.239   3.300  49.792  1.00  0.00     0.029 C 
HETATM    2  C9  UNL     1      26.499   4.582  49.461  1.00  0.00     0.043 A 
HETATM    3  C10 UNL     1      27.624   4.863  48.558  1.00  0.00     0.137 A 
HETATM    4  C11 UNL     1      27.716   6.332  48.365  1.00  0.00     0.111 A 
HETATM    5  N3  UNL     1      26.930   7.211  48.890  1.00  0.00    -0.228 NA
HETATM    6  C18 UNL     1      25.851   6.807  49.754  1.00  0.00     0.235 A 
HETATM    7  N4  UNL     1      25.641   5.565  50.026  1.00  0.00    -0.246 NA
ENDROOT
BRANCH   1   8
HETATM    8  C7  UNL     1      25.148   2.932  50.681  1.00  0.00     0.026 C 
HETATM    9  C5  UNL     1      25.408   2.527  51.911  1.00  0.00     0.001 C 
HETATM   10  C6  UNL     1      24.420   2.110  52.923  1.00  0.00     0.068 C 
BRANCH   9  11
HETATM   11  N1  UNL     1      26.733   2.436  52.405  1.00  0.00    -0.390 N 
HETATM   12  H8  UNL     1      27.419   2.781  51.667  1.00  0.00     0.159 HD
BRANCH  11  13
HETATM   13  C4  UNL     1      27.354   2.007  53.641  1.00  0.00     0.146 C 
BRANCH  13  14
HETATM   14  C3  UNL     1      27.881   0.619  53.458  1.00  0.00    -0.012 C 
HETATM   15  C2  UNL     1      29.092   0.179  53.688  1.00  0.00    -0.033 C 
HETATM   16  C1  UNL     1      29.996  -1.020  53.655  1.00  0.00     0.036 C 
ENDBRANCH  13  14
ENDBRANCH  11  13
ENDBRANCH   9  11
ENDBRANCH   1   8
BRANCH   4  17
HETATM   17  N2  UNL     1      28.820   6.721  47.523  1.00  0.00    -0.344 N 
HETATM   18  H16 UNL     1      28.700   7.059  46.532  1.00  0.00     0.167 HD
BRANCH  17  19
HETATM   19  C12 UNL     1      30.131   6.627  48.119  1.00  0.00     0.036 A 
HETATM   20  C13 UNL     1      30.614   7.653  48.894  1.00  0.00     0.029 A 
HETATM   21  C14 UNL     1      31.893   7.430  49.420  1.00  0.00     0.005 A 
HETATM   22  C15 UNL     1      32.602   6.275  49.179  1.00  0.00     0.038 A 
HETATM   23  C16 UNL     1      32.087   5.260  48.395  1.00  0.00     0.086 A 
HETATM   24  C17 UNL     1      30.814   5.442  47.850  1.00  0.00     0.067 A 
BRANCH  23  25
HETATM   25  O1  UNL     1      32.682   4.052  48.071  1.00  0.00    -0.271 OA
HETATM   26 BR1  UNL     1      32.155   3.132  46.533  1.00  0.00     0.105 Br
ENDBRANCH  23  25
ENDBRANCH  17  19
ENDBRANCH   4  17
TORSDOF 7
ENDMDL
MODEL 2
REMARK VINA RESULT:      -7.6      2.781      6.966
REMARK  7 active torsions:
REMARK  status: ('A' for Active; 'I' for Inactive)
REMARK    1  A    between atoms: C3_3  and  C4_4 
REMARK    2  A    between atoms: C4_4  and  N1_5 
REMARK    3  A    between atoms: N1_5  and  C5_6 
REMARK    4  A    between atoms: C7_8  and  C8_9 
REMARK    5  A    between atoms: C11_12  and  N2_13 
REMARK    6  A    between atoms: N2_13  and  C12_14 
REMARK    7  A    between atoms: C16_18  and  O1_19 
ROOT
HETATM    1  C8  UNL     1      28.462   6.589  47.944  1.00  0.00     0.029 C 
HETATM    2  C9  UNL     1      27.445   6.086  48.675  1.00  0.00     0.043 A 
HETATM    3  C10 UNL     1      27.332   4.627  48.816  1.00  0.00     0.137 A 
HETATM    4  C11 UNL     1      26.135   4.326  49.639  1.00  0.00     0.111 A 
HETATM    5  N3  UNL     1      25.337   5.200  50.156  1.00  0.00    -0.228 NA
HETATM    6  C18 UNL     1      25.563   6.607  49.956  1.00  0.00     0.235 A 
HETATM    7  N4  UNL     1      26.559   7.033  49.257  1.00  0.00    -0.246 NA
ENDROOT
BRANCH   1   8
HETATM    8  C7  UNL     1      28.648   8.018  47.751  1.00  0.00     0.026 C 
HETATM    9  C5  UNL     1      29.550   8.667  48.464  1.00  0.00     0.001 C 
HETATM   10  C6  UNL     1      29.849  10.110  48.395  1.00  0.00     0.068 C 
BRANCH   9  11
HETATM   11  N1  UNL     1      30.357   8.011  49.427  1.00  0.00    -0.390 N 
HETATM   12  H8  UNL     1      29.754   7.683  50.240  1.00  0.00     0.159 HD
BRANCH  11  13
HETATM   13  C4  UNL     1      31.762   7.685  49.556  1.00  0.00     0.146 C 
BRANCH  13  14
HETATM   14  C3  UNL     1      31.940   6.219  49.320  1.00  0.00    -0.012 C 
HETATM   15  C2  UNL     1      31.898   5.575  48.181  1.00  0.00    -0.033 C 
HETATM   16  C1  UNL     1      32.009   4.231  47.520  1.00  0.00     0.036 C 
ENDBRANCH  13  14
ENDBRANCH  11  13
ENDBRANCH   9  11
ENDBRANCH   1   8
BRANCH   4  17
HETATM   17  N2  UNL     1      25.906   2.911  49.804  1.00  0.00    -0.344 N 
HETATM   18  H16 UNL     1      25.849   2.237  48.996  1.00  0.00     0.167 HD
BRANCH  17  19
HETATM   19  C12 UNL     1      25.761   2.451  51.164  1.00  0.00     0.036 A 
HETATM   20  C13 UNL     1      24.542   2.009  51.618  1.00  0.00     0.029 A 
HETATM   21  C14 UNL     1      24.542   1.580  52.952  1.00  0.00     0.005 A 
HETATM   22  C15 UNL     1      25.672   1.600  53.737  1.00  0.00     0.038 A 
HETATM   23  C16 UNL     1      26.884   2.050  53.249  1.00  0.00     0.086 A 
HETATM   24  C17 UNL     1      26.929   2.487  51.923  1.00  0.00     0.067 A 
BRANCH  23  25
HETATM   25  O1  UNL     1      28.095   2.124  53.919  1.00  0.00    -0.271 OA
HETATM   26 BR1  UNL     1      29.254   0.660  53.921  1.00  0.00     0.105 Br
ENDBRANCH  23  25
ENDBRANCH  17  19
ENDBRANCH   4  17
TORSDOF 7
ENDMDL
MODEL 3
REMARK VINA RESULT:      -7.4      2.728      4.635
REMARK  7 active torsions:
REMARK  status: ('A' for Active; 'I' for Inactive)
REMARK    1  A    between atoms: C3_3  and  C4_4 
REMARK    2  A    between atoms: C4_4  and  N1_5 
REMARK    3  A    between atoms: N1_5  and  C5_6 
REMARK    4  A    between atoms: C7_8  and  C8_9 
REMARK    5  A    between atoms: C11_12  and  N2_13 
REMARK    6  A    between atoms: N2_13  and  C12_14 
REMARK    7  A    between atoms: C16_18  and  O1_19 
ROOT
HETATM    1  C8  UNL     1      29.023   5.473  48.189  1.00  0.00     0.029 C 
HETATM    2  C9  UNL     1      30.173   6.116  48.479  1.00  0.00     0.043 A 
HETATM    3  C10 UNL     1      31.425   5.346  48.504  1.00  0.00     0.137 A 
HETATM    4  C11 UNL     1      32.534   6.263  48.864  1.00  0.00     0.111 A 
HETATM    5  N3  UNL     1      32.419   7.527  49.100  1.00  0.00    -0.228 NA
HETATM    6  C18 UNL     1      31.134   8.172  49.032  1.00  0.00     0.235 A 
HETATM    7  N4  UNL     1      30.068   7.510  48.737  1.00  0.00    -0.246 NA
ENDROOT
BRANCH   1   8
HETATM    8  C7  UNL     1      27.739   6.157  48.145  1.00  0.00     0.026 C 
HETATM    9  C5  UNL     1      26.732   5.716  48.876  1.00  0.00     0.001 C 
HETATM   10  C6  UNL     1      25.374   6.288  48.932  1.00  0.00     0.068 C 
BRANCH   9  11
HETATM   11  N1  UNL     1      26.858   4.582  49.717  1.00  0.00    -0.390 N 
HETATM   12  H8  UNL     1      27.481   4.815  50.548  1.00  0.00     0.159 HD
BRANCH  11  13
HETATM   13  C4  UNL     1      26.347   3.226  49.716  1.00  0.00     0.146 C 
BRANCH  13  14
HETATM   14  C3  UNL     1      26.601   2.616  51.058  1.00  0.00    -0.012 C 
HETATM   15  C2  UNL     1      26.563   1.350  51.388  1.00  0.00    -0.033 C 
HETATM   16  C1  UNL     1      26.732   0.362  52.506  1.00  0.00     0.036 C 
ENDBRANCH  13  14
ENDBRANCH  11  13
ENDBRANCH   9  11
ENDBRANCH   1   8
BRANCH   4  17
HETATM   17  N2  UNL     1      33.808   5.595  48.958  1.00  0.00    -0.344 N 
HETATM   18  H16 UNL     1      34.403   5.604  49.829  1.00  0.00     0.167 HD
BRANCH  17  19
HETATM   19  C12 UNL     1      34.241   4.892  47.775  1.00  0.00     0.036 A 
HETATM   20  C13 UNL     1      34.727   3.611  47.869  1.00  0.00     0.029 A 
HETATM   21  C14 UNL     1      35.101   3.041  46.646  1.00  0.00     0.005 A 
HETATM   22  C15 UNL     1      34.988   3.713  45.450  1.00  0.00     0.038 A 
HETATM   23  C16 UNL     1      34.494   5.002  45.388  1.00  0.00     0.086 A 
HETATM   24  C17 UNL     1      34.109   5.609  46.586  1.00  0.00     0.067 A 
BRANCH  23  25
HETATM   25  O1  UNL     1      34.324   5.794  44.264  1.00  0.00    -0.271 OA
HETATM   26 BR1  UNL     1      33.367   5.143  42.798  1.00  0.00     0.105 Br
ENDBRANCH  23  25
ENDBRANCH  17  19
ENDBRANCH   4  17
TORSDOF 7
ENDMDL
MODEL 4
REMARK VINA RESULT:      -7.4      5.724      8.293
REMARK  7 active torsions:
REMARK  status: ('A' for Active; 'I' for Inactive)
REMARK    1  A    between atoms: C3_3  and  C4_4 
REMARK    2  A    between atoms: C4_4  and  N1_5 
REMARK    3  A    between atoms: N1_5  and  C5_6 
REMARK    4  A    between atoms: C7_8  and  C8_9 
REMARK    5  A    between atoms: C11_12  and  N2_13 
REMARK    6  A    between atoms: N2_13  and  C12_14 
REMARK    7  A    between atoms: C16_18  and  O1_19 
ROOT
HETATM    1  C8  UNL     1      26.724   2.100  53.399  1.00  0.00     0.029 C 
HETATM    2  C9  UNL     1      26.158   2.574  52.269  1.00  0.00     0.043 A 
HETATM    3  C10 UNL     1      24.756   3.013  52.313  1.00  0.00     0.137 A 
HETATM    4  C11 UNL     1      24.363   3.468  50.957  1.00  0.00     0.111 A 
HETATM    5  N3  UNL     1      25.129   3.487  49.917  1.00  0.00    -0.228 NA
HETATM    6  C18 UNL     1      26.495   3.039  50.005  1.00  0.00     0.235 A 
HETATM    7  N4  UNL     1      26.987   2.607  51.115  1.00  0.00    -0.246 NA
ENDROOT
BRANCH   1   8
HETATM    8  C7  UNL     1      28.104   1.642  53.444  1.00  0.00     0.026 C 
HETATM    9  C5  UNL     1      28.369   0.374  53.699  1.00  0.00     0.001 C 
HETATM   10  C6  UNL     1      29.706  -0.240  53.792  1.00  0.00     0.068 C 
BRANCH   9  11
HETATM   11  N1  UNL     1      27.341  -0.573  53.935  1.00  0.00    -0.390 N 
HETATM   12  H8  UNL     1      27.418  -0.952  54.927  1.00  0.00     0.159 HD
BRANCH  11  13
HETATM   13  C4  UNL     1      26.239  -1.122  53.172  1.00  0.00     0.146 C 
BRANCH  13  14
HETATM   14  C3  UNL     1      24.961  -0.825  53.890  1.00  0.00    -0.012 C 
HETATM   15  C2  UNL     1      23.852  -0.337  53.395  1.00  0.00    -0.033 C 
HETATM   16  C1  UNL     1      22.446   0.089  53.704  1.00  0.00     0.036 C 
ENDBRANCH  13  14
ENDBRANCH  11  13
ENDBRANCH   9  11
ENDBRANCH   1   8
BRANCH   4  17
HETATM   17  N2  UNL     1      22.984   3.883  50.880  1.00  0.00    -0.344 N 
HETATM   18  H16 UNL     1      22.686   4.894  50.848  1.00  0.00     0.167 HD
BRANCH  17  19
HETATM   19  C12 UNL     1      22.007   2.822  50.841  1.00  0.00     0.036 A 
HETATM   20  C13 UNL     1      22.310   1.623  50.244  1.00  0.00     0.029 A 
HETATM   21  C14 UNL     1      21.278   0.677  50.286  1.00  0.00     0.005 A 
HETATM   22  C15 UNL     1      20.062   0.933  50.879  1.00  0.00     0.038 A 
HETATM   23  C16 UNL     1      19.789   2.151  51.471  1.00  0.00     0.086 A 
HETATM   24  C17 UNL     1      20.791   3.123  51.452  1.00  0.00     0.067 A 
BRANCH  23  25
HETATM   25  O1  UNL     1      18.619   2.545  52.102  1.00  0.00    -0.271 OA
HETATM   26 BR1  UNL     1      17.538   3.858  51.331  1.00  0.00     0.105 Br
ENDBRANCH  23  25
ENDBRANCH  17  19
ENDBRANCH   4  17
TORSDOF 7
ENDMDL
MODEL 5
REMARK VINA RESULT:      -7.4      4.660      8.423
REMARK  7 active torsions:
REMARK  status: ('A' for Active; 'I' for Inactive)
REMARK    1  A    between atoms: C3_3  and  C4_4 
REMARK    2  A    between atoms: C4_4  and  N1_5 
REMARK    3  A    between atoms: N1_5  and  C5_6 
REMARK    4  A    between atoms: C7_8  and  C8_9 
REMARK    5  A    between atoms: C11_12  and  N2_13 
REMARK    6  A    between atoms: N2_13  and  C12_14 
REMARK    7  A    between atoms: C16_18  and  O1_19 
ROOT
HETATM    1  C8  UNL     1      27.270   4.796  48.809  1.00  0.00     0.029 C 
HETATM    2  C9  UNL     1      26.259   4.576  49.675  1.00  0.00     0.043 A 
HETATM    3  C10 UNL     1      26.075   3.221  50.215  1.00  0.00     0.137 A 
HETATM    4  C11 UNL     1      24.899   3.231  51.120  1.00  0.00     0.111 A 
HETATM    5  N3  UNL     1      24.171   4.261  51.397  1.00  0.00    -0.228 NA
HETATM    6  C18 UNL     1      24.462   5.543  50.810  1.00  0.00     0.235 A 
HETATM    7  N4  UNL     1      25.449   5.699  49.997  1.00  0.00    -0.246 NA
ENDROOT
BRANCH   1   8
HETATM    8  C7  UNL     1      27.523   6.103  48.224  1.00  0.00     0.026 C 
HETATM    9  C5  UNL     1      28.734   6.627  48.280  1.00  0.00     0.001 C 
HETATM   10  C6  UNL     1      29.146   7.940  47.749  1.00  0.00     0.068 C 
BRANCH   9  11
HETATM   11  N1  UNL     1      29.814   5.950  48.900  1.00  0.00    -0.390 N 
HETATM   12  H8  UNL     1      29.466   5.420  49.755  1.00  0.00     0.159 HD
BRANCH  11  13
HETATM   13  C4  UNL     1      31.233   5.807  48.646  1.00  0.00     0.146 C 
BRANCH  13  14
HETATM   14  C3  UNL     1      31.425   4.845  47.517  1.00  0.00    -0.012 C 
HETATM   15  C2  UNL     1      32.186   3.780  47.485  1.00  0.00    -0.033 C 
HETATM   16  C1  UNL     1      32.652   2.623  46.649  1.00  0.00     0.036 C 
ENDBRANCH  13  14
ENDBRANCH  11  13
ENDBRANCH   9  11
ENDBRANCH   1   8
BRANCH   4  17
HETATM   17  N2  UNL     1      24.604   1.933  51.674  1.00  0.00    -0.344 N 
HETATM   18  H16 UNL     1      25.294   1.378  52.246  1.00  0.00     0.167 HD
BRANCH  17  19
HETATM   19  C12 UNL     1      23.283   1.419  51.406  1.00  0.00     0.036 A 
HETATM   20  C13 UNL     1      22.685   1.645  50.190  1.00  0.00     0.029 A 
HETATM   21  C14 UNL     1      21.410   1.082  50.057  1.00  0.00     0.005 A 
HETATM   22  C15 UNL     1      20.809   0.362  51.065  1.00  0.00     0.038 A 
HETATM   23  C16 UNL     1      21.437   0.152  52.277  1.00  0.00     0.086 A 
HETATM   24  C17 UNL     1      22.712   0.696  52.452  1.00  0.00     0.067 A 
BRANCH  23  25
HETATM   25  O1  UNL     1      20.958  -0.549  53.372  1.00  0.00    -0.271 OA
HETATM   26 BR1  UNL     1      22.128  -1.080  54.727  1.00  0.00     0.105 Br
ENDBRANCH  23  25
ENDBRANCH  17  19
ENDBRANCH   4  17
TORSDOF 7
ENDMDL
MODEL 6
REMARK VINA RESULT:      -7.3      4.584      7.650
REMARK  7 active torsions:
REMARK  status: ('A' for Active; 'I' for Inactive)
REMARK    1  A    between atoms: C3_3  and  C4_4 
REMARK    2  A    between atoms: C4_4  and  N1_5 
REMARK    3  A    between atoms: N1_5  and  C5_6 
REMARK    4  A    between atoms: C7_8  and  C8_9 
REMARK    5  A    between atoms: C11_12  and  N2_13 
REMARK    6  A    between atoms: N2_13  and  C12_14 
REMARK    7  A    between atoms: C16_18  and  O1_19 
ROOT
HETATM    1  C8  UNL     1      22.525   4.783  49.316  1.00  0.00     0.029 C 
HETATM    2  C9  UNL     1      23.641   4.305  49.905  1.00  0.00     0.043 A 
HETATM    3  C10 UNL     1      23.586   3.934  51.326  1.00  0.00     0.137 A 
HETATM    4  C11 UNL     1      24.929   3.460  51.740  1.00  0.00     0.111 A 
HETATM    5  N3  UNL     1      25.966   3.374  50.976  1.00  0.00    -0.228 NA
HETATM    6  C18 UNL     1      25.890   3.758  49.591  1.00  0.00     0.235 A 
HETATM    7  N4  UNL     1      24.792   4.198  49.078  1.00  0.00    -0.246 NA
ENDROOT
BRANCH   1   8
HETATM    8  C7  UNL     1      22.490   5.175  47.916  1.00  0.00     0.026 C 
HETATM    9  C5  UNL     1      22.054   4.326  47.004  1.00  0.00     0.001 C 
HETATM   10  C6  UNL     1      21.969   4.568  45.552  1.00  0.00     0.068 C 
BRANCH   9  11
HETATM   11  N1  UNL     1      21.610   3.024  47.345  1.00  0.00    -0.390 N 
HETATM   12  H8  UNL     1      20.546   2.989  47.328  1.00  0.00     0.159 HD
BRANCH  11  13
HETATM   13  C4  UNL     1      22.243   1.768  47.690  1.00  0.00     0.146 C 
BRANCH  13  14
HETATM   14  C3  UNL     1      21.392   1.060  48.696  1.00  0.00    -0.012 C 
HETATM   15  C2  UNL     1      21.586   0.955  49.986  1.00  0.00    -0.033 C 
HETATM   16  C1  UNL     1      21.049   0.395  51.272  1.00  0.00     0.036 C 
ENDBRANCH  13  14
ENDBRANCH  11  13
ENDBRANCH   9  11
ENDBRANCH   1   8
BRANCH   4  17
HETATM   17  N2  UNL     1      24.996   3.109  53.138  1.00  0.00    -0.344 N 
HETATM   18  H16 UNL     1      24.938   3.819  53.915  1.00  0.00     0.167 HD
BRANCH  17  19
HETATM   19  C12 UNL     1      25.146   1.703  53.428  1.00  0.00     0.036 A 
HETATM   20  C13 UNL     1      24.144   0.820  53.109  1.00  0.00     0.029 A 
HETATM   21  C14 UNL     1      24.421  -0.514  53.434  1.00  0.00     0.005 A 
HETATM   22  C15 UNL     1      25.603  -0.902  54.025  1.00  0.00     0.038 A 
HETATM   23  C16 UNL     1      26.592   0.012  54.333  1.00  0.00     0.086 A 
HETATM   24  C17 UNL     1      26.356   1.354  54.025  1.00  0.00     0.067 A 
BRANCH  23  25
HETATM   25  O1  UNL     1      27.822  -0.233  54.921  1.00  0.00    -0.271 OA
HETATM   26 BR1  UNL     1      29.332  -0.500  53.855  1.00  0.00     0.105 Br
ENDBRANCH  23  25
ENDBRANCH  17  19
ENDBRANCH   4  17
TORSDOF 7
ENDMDL
MODEL 7
REMARK VINA RESULT:      -7.2      4.040      5.570
REMARK  7 active torsions:
REMARK  status: ('A' for Active; 'I' for Inactive)
REMARK    1  A    between atoms: C3_3  and  C4_4 
REMARK    2  A    between atoms: C4_4  and  N1_5 
REMARK    3  A    between atoms: N1_5  and  C5_6 
REMARK    4  A    between atoms: C7_8  and  C8_9 
REMARK    5  A    between atoms: C11_12  and  N2_13 
REMARK    6  A    between atoms: N2_13  and  C12_14 
REMARK    7  A    between atoms: C16_18  and  O1_19 
ROOT
HETATM    1  C8  UNL     1      21.669   0.450  51.431  1.00  0.00     0.029 C 
HETATM    2  C9  UNL     1      21.713   1.784  51.229  1.00  0.00     0.043 A 
HETATM    3  C10 UNL     1      22.148   2.285  49.917  1.00  0.00     0.137 A 
HETATM    4  C11 UNL     1      22.131   3.768  49.952  1.00  0.00     0.111 A 
HETATM    5  N3  UNL     1      21.779   4.494  50.959  1.00  0.00    -0.228 NA
HETATM    6  C18 UNL     1      21.358   3.882  52.193  1.00  0.00     0.235 A 
HETATM    7  N4  UNL     1      21.323   2.600  52.326  1.00  0.00    -0.246 NA
ENDROOT
BRANCH   1   8
HETATM    8  C7  UNL     1      21.253  -0.131  52.698  1.00  0.00     0.026 C 
HETATM    9  C5  UNL     1      22.147  -0.694  53.490  1.00  0.00     0.001 C 
HETATM   10  C6  UNL     1      21.885  -1.334  54.792  1.00  0.00     0.068 C 
BRANCH   9  11
HETATM   11  N1  UNL     1      23.521  -0.753  53.144  1.00  0.00    -0.390 N 
HETATM   12  H8  UNL     1      23.689  -1.557  52.467  1.00  0.00     0.159 HD
BRANCH  11  13
HETATM   13  C4  UNL     1      24.710   0.003  53.478  1.00  0.00     0.146 C 
BRANCH  13  14
HETATM   14  C3  UNL     1      25.912  -0.783  53.065  1.00  0.00    -0.012 C 
HETATM   15  C2  UNL     1      27.158  -0.599  53.422  1.00  0.00    -0.033 C 
HETATM   16  C1  UNL     1      28.569  -1.092  53.276  1.00  0.00     0.036 C 
ENDBRANCH  13  14
ENDBRANCH  11  13
ENDBRANCH   9  11
ENDBRANCH   1   8
BRANCH   4  17
HETATM   17  N2  UNL     1      22.584   4.365  48.719  1.00  0.00    -0.344 N 
HETATM   18  H16 UNL     1      22.004   4.385  47.839  1.00  0.00     0.167 HD
BRANCH  17  19
HETATM   19  C12 UNL     1      23.902   4.951  48.750  1.00  0.00     0.036 A 
HETATM   20  C13 UNL     1      24.099   6.236  48.307  1.00  0.00     0.029 A 
HETATM   21  C14 UNL     1      25.421   6.687  48.402  1.00  0.00     0.005 A 
HETATM   22  C15 UNL     1      26.437   5.902  48.900  1.00  0.00     0.038 A 
HETATM   23  C16 UNL     1      26.206   4.613  49.339  1.00  0.00     0.086 A 
HETATM   24  C17 UNL     1      24.900   4.124  49.262  1.00  0.00     0.067 A 
BRANCH  23  25
HETATM   25  O1  UNL     1      27.124   3.716  49.862  1.00  0.00    -0.271 OA
HETATM   26 BR1  UNL     1      26.594   2.489  51.166  1.00  0.00     0.105 Br
ENDBRANCH  23  25
ENDBRANCH  17  19
ENDBRANCH   4  17
TORSDOF 7
ENDMDL
MODEL 8
REMARK VINA RESULT:      -7.2      4.420      8.331
REMARK  7 active torsions:
REMARK  status: ('A' for Active; 'I' for Inactive)
REMARK    1  A    between atoms: C3_3  and  C4_4 
REMARK    2  A    between atoms: C4_4  and  N1_5 
REMARK    3  A    between atoms: N1_5  and  C5_6 
REMARK    4  A    between atoms: C7_8  and  C8_9 
REMARK    5  A    between atoms: C11_12  and  N2_13 
REMARK    6  A    between atoms: N2_13  and  C12_14 
REMARK    7  A    between atoms: C16_18  and  O1_19 
ROOT
HETATM    1  C8  UNL     1      22.925   4.174  48.825  1.00  0.00     0.029 C 
HETATM    2  C9  UNL     1      22.437   3.607  49.948  1.00  0.00     0.043 A 
HETATM    3  C10 UNL     1      22.467   2.142  50.070  1.00  0.00     0.137 A 
HETATM    4  C11 UNL     1      21.863   1.767  51.372  1.00  0.00     0.111 A 
HETATM    5  N3  UNL     1      21.403   2.589  52.254  1.00  0.00    -0.228 NA
HETATM    6  C18 UNL     1      21.441   4.010  52.022  1.00  0.00     0.235 A 
HETATM    7  N4  UNL     1      21.931   4.497  50.934  1.00  0.00    -0.246 NA
ENDROOT
BRANCH   1   8
HETATM    8  C7  UNL     1      22.932   5.614  48.620  1.00  0.00     0.026 C 
HETATM    9  C5  UNL     1      24.023   6.311  48.879  1.00  0.00     0.001 C 
HETATM   10  C6  UNL     1      24.185   7.769  48.736  1.00  0.00     0.068 C 
BRANCH   9  11
HETATM   11  N1  UNL     1      25.207   5.697  49.359  1.00  0.00    -0.390 N 
HETATM   12  H8  UNL     1      25.076   5.401  50.373  1.00  0.00     0.159 HD
BRANCH  11  13
HETATM   13  C4  UNL     1      26.509   5.379  48.808  1.00  0.00     0.146 C 
BRANCH  13  14
HETATM   14  C3  UNL     1      26.941   4.047  49.333  1.00  0.00    -0.012 C 
HETATM   15  C2  UNL     1      26.439   3.374  50.337  1.00  0.00    -0.033 C 
HETATM   16  C1  UNL     1      26.537   2.115  51.151  1.00  0.00     0.036 C 
ENDBRANCH  13  14
ENDBRANCH  11  13
ENDBRANCH   9  11
ENDBRANCH   1   8
BRANCH   4  17
HETATM   17  N2  UNL     1      21.805   0.340  51.574  1.00  0.00    -0.344 N 
HETATM   18  H16 UNL     1      21.368  -0.325  50.882  1.00  0.00     0.167 HD
BRANCH  17  19
HETATM   19  C12 UNL     1      22.393  -0.148  52.798  1.00  0.00     0.036 A 
HETATM   20  C13 UNL     1      21.597  -0.670  53.789  1.00  0.00     0.029 A 
HETATM   21  C14 UNL     1      22.294  -1.117  54.918  1.00  0.00     0.005 A 
HETATM   22  C15 UNL     1      23.665  -1.039  55.021  1.00  0.00     0.038 A 
HETATM   23  C16 UNL     1      24.438  -0.509  54.006  1.00  0.00     0.086 A 
HETATM   24  C17 UNL     1      23.782  -0.051  52.861  1.00  0.00     0.067 A 
BRANCH  23  25
HETATM   25  O1  UNL     1      25.816  -0.370  53.971  1.00  0.00    -0.271 OA
HETATM   26 BR1  UNL     1      26.825  -1.361  52.752  1.00  0.00     0.105 Br
ENDBRANCH  23  25
ENDBRANCH  17  19
ENDBRANCH   4  17
TORSDOF 7
ENDMDL
MODEL 9
REMARK VINA RESULT:      -7.2      3.701      8.216
REMARK  7 active torsions:
REMARK  status: ('A' for Active; 'I' for Inactive)
REMARK    1  A    between atoms: C3_3  and  C4_4 
REMARK    2  A    between atoms: C4_4  and  N1_5 
REMARK    3  A    between atoms: N1_5  and  C5_6 
REMARK    4  A    between atoms: C7_8  and  C8_9 
REMARK    5  A    between atoms: C11_12  and  N2_13 
REMARK    6  A    between atoms: N2_13  and  C12_14 
REMARK    7  A    between atoms: C16_18  and  O1_19 
ROOT
HETATM    1  C8  UNL     1      25.129   5.545  50.221  1.00  0.00     0.029 C 
HETATM    2  C9  UNL     1      24.220   4.800  50.884  1.00  0.00     0.043 A 
HETATM    3  C10 UNL     1      24.199   3.347  50.658  1.00  0.00     0.137 A 
HETATM    4  C11 UNL     1      23.110   2.760  51.477  1.00  0.00     0.111 A 
HETATM    5  N3  UNL     1      22.325   3.414  52.266  1.00  0.00    -0.228 NA
HETATM    6  C18 UNL     1      22.454   4.841  52.412  1.00  0.00     0.235 A 
HETATM    7  N4  UNL     1      23.350   5.501  51.762  1.00  0.00    -0.246 NA
ENDROOT
BRANCH   1   8
HETATM    8  C7  UNL     1      25.219   6.987  50.382  1.00  0.00     0.026 C 
HETATM    9  C5  UNL     1      26.299   7.630  49.977  1.00  0.00     0.001 C 
HETATM   10  C6  UNL     1      26.546   9.080  50.081  1.00  0.00     0.068 C 
BRANCH   9  11
HETATM   11  N1  UNL     1      27.392   6.954  49.380  1.00  0.00    -0.390 N 
HETATM   12  H8  UNL     1      28.224   6.954  50.044  1.00  0.00     0.159 HD
BRANCH  11  13
HETATM   13  C4  UNL     1      27.634   6.276  48.123  1.00  0.00     0.146 C 
BRANCH  13  14
HETATM   14  C3  UNL     1      28.904   5.495  48.233  1.00  0.00    -0.012 C 
HETATM   15  C2  UNL     1      30.120   5.952  48.394  1.00  0.00    -0.033 C 
HETATM   16  C1  UNL     1      31.567   5.580  48.544  1.00  0.00     0.036 C 
ENDBRANCH  13  14
ENDBRANCH  11  13
ENDBRANCH   9  11
ENDBRANCH   1   8
BRANCH   4  17
HETATM   17  N2  UNL     1      22.974   1.336  51.295  1.00  0.00    -0.344 N 
HETATM   18  H16 UNL     1      22.815   0.886  50.355  1.00  0.00     0.167 HD
BRANCH  17  19
HETATM   19  C12 UNL     1      23.074   0.535  52.492  1.00  0.00     0.036 A 
HETATM   20  C13 UNL     1      21.940   0.144  53.160  1.00  0.00     0.029 A 
HETATM   21  C14 UNL     1      22.178  -0.637  54.298  1.00  0.00     0.005 A 
HETATM   22  C15 UNL     1      23.446  -0.983  54.707  1.00  0.00     0.038 A 
HETATM   23  C16 UNL     1      24.567  -0.574  54.012  1.00  0.00     0.086 A 
HETATM   24  C17 UNL     1      24.375   0.208  52.870  1.00  0.00     0.067 A 
BRANCH  23  25
HETATM   25  O1  UNL     1      25.894  -0.846  54.304  1.00  0.00    -0.271 OA
HETATM   26 BR1  UNL     1      27.123  -1.098  52.920  1.00  0.00     0.105 Br
ENDBRANCH  23  25
ENDBRANCH  17  19
ENDBRANCH   4  17
TORSDOF 7
ENDMDL
