MODEL 1
REMARK VINA RESULT:      -7.5      0.000      0.000
REMARK  5 active torsions:
REMARK  status: ('A' for Active; 'I' for Inactive)
REMARK    1  A    between atoms: N1_1  and  C1_2 
REMARK    2  A    between atoms: N2_5  and  C4_6 
REMARK    3  A    between atoms: C4_6  and  C5_7 
REMARK    4  A    between atoms: C4_6  and  C6_9 
REMARK    5  A    between atoms: C5_7  and  O1_8 
ROOT
HETATM    1  C1  UNL     1      25.633   3.913  50.474  1.00  0.00     0.065 C 
HETATM    2  C2  UNL     1      26.572   2.976  50.693  1.00  0.00     0.029 C 
HETATM    3  C3  UNL     1      26.503   1.542  51.097  1.00  0.00     0.153 C 
HETATM    4  N2  UNL     1      25.626   1.327  52.248  1.00  0.00    -0.369 N 
HETATM    5  C12 UNL     1      24.230   1.488  52.345  1.00  0.00     0.025 C 
HETATM    6  C13 UNL     1      23.456   2.381  51.749  1.00  0.00     0.035 C 
HETATM    7  C14 UNL     1      22.009   2.335  52.021  1.00  0.00     0.317 C 
HETATM    8  N3  UNL     1      21.454   1.055  52.270  1.00  0.00     0.088 N 
HETATM    9  C15 UNL     1      22.392  -0.010  52.426  1.00  0.00     0.276 C 
HETATM   10  C16 UNL     1      23.614   0.502  53.232  1.00  0.00     0.088 C 
HETATM   11  S1  UNL     1      23.882   3.699  50.617  1.00  0.00    -0.074 SA
HETATM   12  H17 UNL     1      20.707   1.025  52.998  1.00  0.00     0.316 HD
ENDROOT
BRANCH   4  13
HETATM   13  C4  UNL     1      26.300   0.880  53.446  1.00  0.00     0.141 C 
BRANCH  13  14
HETATM   14  C5  UNL     1      26.604   1.948  54.438  1.00  0.00     0.194 C 
BRANCH  14  15
HETATM   15  O1  UNL     1      27.585   2.857  54.047  1.00  0.00    -0.398 OA
HETATM   16  H9  UNL     1      28.454   2.453  54.249  1.00  0.00     0.209 HD
ENDBRANCH  14  15
ENDBRANCH  13  14
BRANCH  13  17
HETATM   17  C6  UNL     1      27.239  -0.220  53.311  1.00  0.00    -0.033 A 
HETATM   18  C7  UNL     1      26.705  -1.412  52.797  1.00  0.00     0.009 A 
HETATM   19  C8  UNL     1      27.499  -2.529  52.620  1.00  0.00     0.001 A 
HETATM   20  C9  UNL     1      28.842  -2.530  52.935  1.00  0.00     0.000 A 
HETATM   21  C10 UNL     1      29.394  -1.373  53.442  1.00  0.00     0.001 A 
HETATM   22  C11 UNL     1      28.567  -0.280  53.603  1.00  0.00     0.009 A 
ENDBRANCH  13  17
ENDBRANCH   4  13
BRANCH   1  23
HETATM   23  N1  UNL     1      26.007   5.245  50.084  1.00  0.00    -0.394 N 
HETATM   24  H1  UNL     1      25.999   6.126  50.608  1.00  0.00     0.156 HD
HETATM   25  H2  UNL     1      26.350   5.334  49.098  1.00  0.00     0.156 HD
ENDBRANCH   1  23
TORSDOF 5
ENDMDL
MODEL 2
REMARK VINA RESULT:      -7.0      2.813      4.291
REMARK  5 active torsions:
REMARK  status: ('A' for Active; 'I' for Inactive)
REMARK    1  A    between atoms: N1_1  and  C1_2 
REMARK    2  A    between atoms: N2_5  and  C4_6 
REMARK    3  A    between atoms: C4_6  and  C5_7 
REMARK    4  A    between atoms: C4_6  and  C6_9 
REMARK    5  A    between atoms: C5_7  and  O1_8 
ROOT
HETATM    1  C1  UNL     1      26.812   4.912  49.262  1.00  0.00     0.065 C 
HETATM    2  C2  UNL     1      26.538   3.604  49.412  1.00  0.00     0.029 C 
HETATM    3  C3  UNL     1      25.318   2.865  49.847  1.00  0.00     0.153 C 
HETATM    4  N2  UNL     1      24.742   3.409  51.077  1.00  0.00    -0.369 N 
HETATM    5  C12 UNL     1      24.139   4.663  51.296  1.00  0.00     0.025 C 
HETATM    6  C13 UNL     1      24.441   5.834  50.757  1.00  0.00     0.035 C 
HETATM    7  C14 UNL     1      23.646   7.006  51.159  1.00  0.00     0.317 C 
HETATM    8  N3  UNL     1      22.287   6.769  51.481  1.00  0.00     0.088 N 
HETATM    9  C15 UNL     1      21.900   5.398  51.571  1.00  0.00     0.276 C 
HETATM   10  C16 UNL     1      23.036   4.592  52.254  1.00  0.00     0.088 C 
HETATM   11  S1  UNL     1      25.706   6.259  49.567  1.00  0.00    -0.074 SA
HETATM   12  H17 UNL     1      21.910   7.332  52.274  1.00  0.00     0.316 HD
ENDROOT
BRANCH   4  13
HETATM   13  C4  UNL     1      24.802   2.523  52.217  1.00  0.00     0.141 C 
BRANCH  13  14
HETATM   14  C5  UNL     1      26.174   2.204  52.700  1.00  0.00     0.194 C 
BRANCH  14  15
HETATM   15  O1  UNL     1      26.569   2.883  53.851  1.00  0.00    -0.398 OA
HETATM   16  H9  UNL     1      26.917   2.215  54.478  1.00  0.00     0.209 HD
ENDBRANCH  14  15
ENDBRANCH  13  14
BRANCH  13  17
HETATM   17  C6  UNL     1      23.783   1.493  52.313  1.00  0.00    -0.033 A 
HETATM   18  C7  UNL     1      23.966   0.552  53.338  1.00  0.00     0.009 A 
HETATM   19  C8  UNL     1      23.062  -0.475  53.532  1.00  0.00     0.001 A 
HETATM   20  C9  UNL     1      21.945  -0.627  52.738  1.00  0.00     0.000 A 
HETATM   21  C10 UNL     1      21.738   0.283  51.722  1.00  0.00     0.001 A 
HETATM   22  C11 UNL     1      22.664   1.293  51.563  1.00  0.00     0.009 A 
ENDBRANCH  13  17
ENDBRANCH   4  13
BRANCH   1  23
HETATM   23  N1  UNL     1      28.111   5.339  48.816  1.00  0.00    -0.394 N 
HETATM   24  H1  UNL     1      28.395   6.146  48.251  1.00  0.00     0.156 HD
HETATM   25  H2  UNL     1      28.904   4.725  49.119  1.00  0.00     0.156 HD
ENDBRANCH   1  23
TORSDOF 5
ENDMDL
MODEL 3
REMARK VINA RESULT:      -7.0      2.625      5.490
REMARK  5 active torsions:
REMARK  status: ('A' for Active; 'I' for Inactive)
REMARK    1  A    between atoms: N1_1  and  C1_2 
REMARK    2  A    between atoms: N2_5  and  C4_6 
REMARK    3  A    between atoms: C4_6  and  C5_7 
REMARK    4  A    between atoms: C4_6  and  C6_9 
REMARK    5  A    between atoms: C5_7  and  O1_8 
ROOT
HETATM    1  C1  UNL     1      20.865   1.530  50.605  1.00  0.00     0.065 C 
HETATM    2  C2  UNL     1      21.614   2.374  49.873  1.00  0.00     0.029 C 
HETATM    3  C3  UNL     1      23.086   2.564  49.731  1.00  0.00     0.153 C 
HETATM    4  N2  UNL     1      23.768   2.642  51.023  1.00  0.00    -0.369 N 
HETATM    5  C12 UNL     1      23.927   1.645  52.005  1.00  0.00     0.025 C 
HETATM    6  C13 UNL     1      23.088   0.681  52.351  1.00  0.00     0.035 C 
HETATM    7  C14 UNL     1      23.499  -0.243  53.421  1.00  0.00     0.317 C 
HETATM    8  N3  UNL     1      24.885  -0.520  53.519  1.00  0.00     0.088 N 
HETATM    9  C15 UNL     1      25.739   0.280  52.700  1.00  0.00     0.276 C 
HETATM   10  C16 UNL     1      25.214   1.740  52.693  1.00  0.00     0.088 C 
HETATM   11  S1  UNL     1      21.463   0.289  51.716  1.00  0.00    -0.074 SA
HETATM   12  H17 UNL     1      25.255  -0.616  54.490  1.00  0.00     0.316 HD
ENDROOT
BRANCH   4  13
HETATM   13  C4  UNL     1      24.362   3.926  51.317  1.00  0.00     0.141 C 
BRANCH  13  14
HETATM   14  C5  UNL     1      23.464   4.900  51.997  1.00  0.00     0.194 C 
BRANCH  14  15
HETATM   15  O1  UNL     1      23.884   5.312  53.259  1.00  0.00    -0.398 OA
HETATM   16  H9  UNL     1      23.224   5.955  53.591  1.00  0.00     0.209 HD
ENDBRANCH  14  15
ENDBRANCH  13  14
BRANCH  13  17
HETATM   17  C6  UNL     1      25.342   4.437  50.374  1.00  0.00    -0.033 A 
HETATM   18  C7  UNL     1      25.157   5.768  49.968  1.00  0.00     0.009 A 
HETATM   19  C8  UNL     1      26.024   6.368  49.075  1.00  0.00     0.001 A 
HETATM   20  C9  UNL     1      27.106   5.697  48.543  1.00  0.00     0.000 A 
HETATM   21  C10 UNL     1      27.313   4.388  48.923  1.00  0.00     0.001 A 
HETATM   22  C11 UNL     1      26.424   3.827  49.817  1.00  0.00     0.009 A 
ENDBRANCH  13  17
ENDBRANCH   4  13
BRANCH   1  23
HETATM   23  N1  UNL     1      19.430   1.580  50.536  1.00  0.00    -0.394 N 
HETATM   24  H1  UNL     1      18.777   1.193  49.848  1.00  0.00     0.156 HD
HETATM   25  H2  UNL     1      18.970   2.096  51.323  1.00  0.00     0.156 HD
ENDBRANCH   1  23
TORSDOF 5
ENDMDL
MODEL 4
REMARK VINA RESULT:      -6.6      2.443      3.532
REMARK  5 active torsions:
REMARK  status: ('A' for Active; 'I' for Inactive)
REMARK    1  A    between atoms: N1_1  and  C1_2 
REMARK    2  A    between atoms: N2_5  and  C4_6 
REMARK    3  A    between atoms: C4_6  and  C5_7 
REMARK    4  A    between atoms: C4_6  and  C6_9 
REMARK    5  A    between atoms: C5_7  and  O1_8 
ROOT
HETATM    1  C1  UNL     1      20.690   2.282  50.464  1.00  0.00     0.065 C 
HETATM    2  C2  UNL     1      22.026   2.270  50.315  1.00  0.00     0.029 C 
HETATM    3  C3  UNL     1      23.100   1.383  50.847  1.00  0.00     0.153 C 
HETATM    4  N2  UNL     1      22.982   1.163  52.288  1.00  0.00    -0.369 N 
HETATM    5  C12 UNL     1      21.978   0.483  53.004  1.00  0.00     0.025 C 
HETATM    6  C13 UNL     1      20.680   0.414  52.749  1.00  0.00     0.035 C 
HETATM    7  C14 UNL     1      19.836  -0.373  53.663  1.00  0.00     0.317 C 
HETATM    8  N3  UNL     1      20.441  -1.502  54.268  1.00  0.00     0.088 N 
HETATM    9  C15 UNL     1      21.850  -1.629  54.077  1.00  0.00     0.276 C 
HETATM   10  C16 UNL     1      22.505  -0.226  54.170  1.00  0.00     0.088 C 
HETATM   11  S1  UNL     1      19.729   1.146  51.423  1.00  0.00    -0.074 SA
HETATM   12  H17 UNL     1      20.165  -1.682  55.258  1.00  0.00     0.316 HD
ENDROOT
BRANCH   4  13
HETATM   13  C4  UNL     1      24.058   1.722  53.076  1.00  0.00     0.141 C 
BRANCH  13  14
HETATM   14  C5  UNL     1      24.143   3.208  53.067  1.00  0.00     0.194 C 
BRANCH  14  15
HETATM   15  O1  UNL     1      25.026   3.746  52.133  1.00  0.00    -0.398 OA
HETATM   16  H9  UNL     1      25.683   3.051  51.920  1.00  0.00     0.209 HD
ENDBRANCH  14  15
ENDBRANCH  13  14
BRANCH  13  17
HETATM   17  C6  UNL     1      25.294   0.962  53.147  1.00  0.00    -0.033 A 
HETATM   18  C7  UNL     1      25.992   1.054  54.361  1.00  0.00     0.009 A 
HETATM   19  C8  UNL     1      27.181   0.376  54.552  1.00  0.00     0.001 A 
HETATM   20  C9  UNL     1      27.736  -0.418  53.570  1.00  0.00     0.000 A 
HETATM   21  C10 UNL     1      27.072  -0.528  52.366  1.00  0.00     0.001 A 
HETATM   22  C11 UNL     1      25.889   0.165  52.217  1.00  0.00     0.009 A 
ENDBRANCH  13  17
ENDBRANCH   4  13
BRANCH   1  23
HETATM   23  N1  UNL     1      19.891   3.286  49.814  1.00  0.00    -0.394 N 
HETATM   24  H1  UNL     1      19.456   3.301  48.886  1.00  0.00     0.156 HD
HETATM   25  H2  UNL     1      19.721   4.149  50.383  1.00  0.00     0.156 HD
ENDBRANCH   1  23
TORSDOF 5
ENDMDL
MODEL 5
REMARK VINA RESULT:      -6.5      3.513      6.836
REMARK  5 active torsions:
REMARK  status: ('A' for Active; 'I' for Inactive)
REMARK    1  A    between atoms: N1_1  and  C1_2 
REMARK    2  A    between atoms: N2_5  and  C4_6 
REMARK    3  A    between atoms: C4_6  and  C5_7 
REMARK    4  A    between atoms: C4_6  and  C6_9 
REMARK    5  A    between atoms: C5_7  and  O1_8 
ROOT
HETATM    1  C1  UNL     1      22.270   4.535  52.128  1.00  0.00     0.065 C 
HETATM    2  C2  UNL     1      21.007   4.076  52.093  1.00  0.00     0.029 C 
HETATM    3  C3  UNL     1      20.379   2.795  52.529  1.00  0.00     0.153 C 
HETATM    4  N2  UNL     1      21.112   1.622  52.054  1.00  0.00    -0.369 N 
HETATM    5  C12 UNL     1      22.404   1.180  52.401  1.00  0.00     0.025 C 
HETATM    6  C13 UNL     1      23.475   1.901  52.694  1.00  0.00     0.035 C 
HETATM    7  C14 UNL     1      24.719   1.188  53.027  1.00  0.00     0.317 C 
HETATM    8  N3  UNL     1      24.576  -0.061  53.682  1.00  0.00     0.088 N 
HETATM    9  C15 UNL     1      23.245  -0.572  53.761  1.00  0.00     0.276 C 
HETATM   10  C16 UNL     1      22.507  -0.278  52.429  1.00  0.00     0.088 C 
HETATM   11  S1  UNL     1      23.684   3.676  52.757  1.00  0.00    -0.074 SA
HETATM   12  H17 UNL     1      25.259  -0.796  53.397  1.00  0.00     0.316 HD
ENDROOT
BRANCH   4  13
HETATM   13  C4  UNL     1      20.396   0.807  51.099  1.00  0.00     0.141 C 
BRANCH  13  14
HETATM   14  C5  UNL     1      20.449   1.286  49.690  1.00  0.00     0.194 C 
BRANCH  14  15
HETATM   15  O1  UNL     1      21.462   0.728  48.913  1.00  0.00    -0.398 OA
HETATM   16  H9  UNL     1      21.882   1.458  48.414  1.00  0.00     0.209 HD
ENDBRANCH  14  15
ENDBRANCH  13  14
BRANCH  13  17
HETATM   17  C6  UNL     1      19.181   0.157  51.559  1.00  0.00    -0.033 A 
HETATM   18  C7  UNL     1      18.094   0.207  50.673  1.00  0.00     0.009 A 
HETATM   19  C8  UNL     1      16.884  -0.377  50.996  1.00  0.00     0.001 A 
HETATM   20  C9  UNL     1      16.684  -1.032  52.193  1.00  0.00     0.000 A 
HETATM   21  C10 UNL     1      17.734  -1.098  53.085  1.00  0.00     0.001 A 
HETATM   22  C11 UNL     1      18.925  -0.502  52.723  1.00  0.00     0.009 A 
ENDBRANCH  13  17
ENDBRANCH   4  13
BRANCH   1  23
HETATM   23  N1  UNL     1      22.586   5.844  51.622  1.00  0.00    -0.394 N 
HETATM   24  H1  UNL     1      21.981   6.637  51.387  1.00  0.00     0.156 HD
HETATM   25  H2  UNL     1      23.607   6.021  51.469  1.00  0.00     0.156 HD
ENDBRANCH   1  23
TORSDOF 5
ENDMDL
MODEL 6
REMARK VINA RESULT:      -6.5      3.455      5.425
REMARK  5 active torsions:
REMARK  status: ('A' for Active; 'I' for Inactive)
REMARK    1  A    between atoms: N1_1  and  C1_2 
REMARK    2  A    between atoms: N2_5  and  C4_6 
REMARK    3  A    between atoms: C4_6  and  C5_7 
REMARK    4  A    between atoms: C4_6  and  C6_9 
REMARK    5  A    between atoms: C5_7  and  O1_8 
ROOT
HETATM    1  C1  UNL     1      22.182   6.515  50.836  1.00  0.00     0.065 C 
HETATM    2  C2  UNL     1      21.912   5.421  51.569  1.00  0.00     0.029 C 
HETATM    3  C3  UNL     1      22.729   4.241  51.973  1.00  0.00     0.153 C 
HETATM    4  N2  UNL     1      23.447   3.646  50.846  1.00  0.00    -0.369 N 
HETATM    5  C12 UNL     1      24.494   4.187  50.074  1.00  0.00     0.025 C 
HETATM    6  C13 UNL     1      24.693   5.445  49.714  1.00  0.00     0.035 C 
HETATM    7  C14 UNL     1      25.879   5.752  48.896  1.00  0.00     0.317 C 
HETATM    8  N3  UNL     1      27.025   4.949  49.120  1.00  0.00     0.088 N 
HETATM    9  C15 UNL     1      26.834   3.814  49.964  1.00  0.00     0.276 C 
HETATM   10  C16 UNL     1      25.457   3.172  49.650  1.00  0.00     0.088 C 
HETATM   11  S1  UNL     1      23.725   6.908  50.064  1.00  0.00    -0.074 SA
HETATM   12  H17 UNL     1      27.578   4.712  48.268  1.00  0.00     0.316 HD
ENDROOT
BRANCH   4  13
HETATM   13  C4  UNL     1      23.016   2.313  50.489  1.00  0.00     0.141 C 
BRANCH  13  14
HETATM   14  C5  UNL     1      21.918   2.249  49.486  1.00  0.00     0.194 C 
BRANCH  14  15
HETATM   15  O1  UNL     1      22.298   1.817  48.217  1.00  0.00    -0.398 OA
HETATM   16  H9  UNL     1      23.271   1.915  48.156  1.00  0.00     0.209 HD
ENDBRANCH  14  15
ENDBRANCH  13  14
BRANCH  13  17
HETATM   17  C6  UNL     1      23.057   1.300  51.530  1.00  0.00    -0.033 A 
HETATM   18  C7  UNL     1      21.866   0.585  51.727  1.00  0.00     0.009 A 
HETATM   19  C8  UNL     1      21.780  -0.405  52.687  1.00  0.00     0.001 A 
HETATM   20  C9  UNL     1      22.850  -0.739  53.491  1.00  0.00     0.000 A 
HETATM   21  C10 UNL     1      24.034  -0.054  53.320  1.00  0.00     0.001 A 
HETATM   22  C11 UNL     1      24.077   0.927  52.351  1.00  0.00     0.009 A 
ENDBRANCH  13  17
ENDBRANCH   4  13
BRANCH   1  23
HETATM   23  N1  UNL     1      21.170   7.511  50.609  1.00  0.00    -0.394 N 
HETATM   24  H1  UNL     1      20.581   8.033  51.266  1.00  0.00     0.156 HD
HETATM   25  H2  UNL     1      21.004   7.748  49.602  1.00  0.00     0.156 HD
ENDBRANCH   1  23
TORSDOF 5
ENDMDL
MODEL 7
REMARK VINA RESULT:      -6.4      4.206      5.365
REMARK  5 active torsions:
REMARK  status: ('A' for Active; 'I' for Inactive)
REMARK    1  A    between atoms: N1_1  and  C1_2 
REMARK    2  A    between atoms: N2_5  and  C4_6 
REMARK    3  A    between atoms: C4_6  and  C5_7 
REMARK    4  A    between atoms: C4_6  and  C6_9 
REMARK    5  A    between atoms: C5_7  and  O1_8 
ROOT
HETATM    1  C1  UNL     1      23.745   5.874  51.247  1.00  0.00     0.065 C 
HETATM    2  C2  UNL     1      23.715   4.895  52.168  1.00  0.00     0.029 C 
HETATM    3  C3  UNL     1      23.522   3.419  52.076  1.00  0.00     0.153 C 
HETATM    4  N2  UNL     1      22.372   3.055  51.248  1.00  0.00    -0.369 N 
HETATM    5  C12 UNL     1      22.182   3.230  49.864  1.00  0.00     0.025 C 
HETATM    6  C13 UNL     1      22.601   4.219  49.089  1.00  0.00     0.035 C 
HETATM    7  C14 UNL     1      22.266   4.164  47.656  1.00  0.00     0.317 C 
HETATM    8  N3  UNL     1      22.179   2.874  47.076  1.00  0.00     0.088 N 
HETATM    9  C15 UNL     1      22.229   1.778  47.989  1.00  0.00     0.276 C 
HETATM   10  C16 UNL     1      21.419   2.138  49.262  1.00  0.00     0.088 C 
HETATM   11  S1  UNL     1      23.547   5.680  49.499  1.00  0.00    -0.074 SA
HETATM   12  H17 UNL     1      21.427   2.753  46.363  1.00  0.00     0.316 HD
ENDROOT
BRANCH   4  13
HETATM   13  C4  UNL     1      21.288   2.422  51.964  1.00  0.00     0.141 C 
BRANCH  13  14
HETATM   14  C5  UNL     1      20.279   3.353  52.540  1.00  0.00     0.194 C 
BRANCH  14  15
HETATM   15  O1  UNL     1      19.034   3.337  51.915  1.00  0.00    -0.398 OA
HETATM   16  H9  UNL     1      19.066   3.989  51.185  1.00  0.00     0.209 HD
ENDBRANCH  14  15
ENDBRANCH  13  14
BRANCH  13  17
HETATM   17  C6  UNL     1      21.595   1.203  52.694  1.00  0.00    -0.033 A 
HETATM   18  C7  UNL     1      20.882   1.016  53.888  1.00  0.00     0.009 A 
HETATM   19  C8  UNL     1      21.085  -0.105  54.670  1.00  0.00     0.001 A 
HETATM   20  C9  UNL     1      21.988  -1.088  54.321  1.00  0.00     0.000 A 
HETATM   21  C10 UNL     1      22.703  -0.931  53.152  1.00  0.00     0.001 A 
HETATM   22  C11 UNL     1      22.470   0.202  52.401  1.00  0.00     0.009 A 
ENDBRANCH  13  17
ENDBRANCH   4  13
BRANCH   1  23
HETATM   23  N1  UNL     1      23.954   7.241  51.642  1.00  0.00    -0.394 N 
HETATM   24  H1  UNL     1      23.788   8.119  51.138  1.00  0.00     0.156 HD
HETATM   25  H2  UNL     1      24.338   7.366  52.608  1.00  0.00     0.156 HD
ENDBRANCH   1  23
TORSDOF 5
ENDMDL
MODEL 8
REMARK VINA RESULT:      -6.3      2.621      6.075
REMARK  5 active torsions:
REMARK  status: ('A' for Active; 'I' for Inactive)
REMARK    1  A    between atoms: N1_1  and  C1_2 
REMARK    2  A    between atoms: N2_5  and  C4_6 
REMARK    3  A    between atoms: C4_6  and  C5_7 
REMARK    4  A    between atoms: C4_6  and  C6_9 
REMARK    5  A    between atoms: C5_7  and  O1_8 
ROOT
HETATM    1  C1  UNL     1      21.504   0.335  53.512  1.00  0.00     0.065 C 
HETATM    2  C2  UNL     1      21.441   1.310  52.588  1.00  0.00     0.029 C 
HETATM    3  C3  UNL     1      22.418   1.825  51.586  1.00  0.00     0.153 C 
HETATM    4  N2  UNL     1      23.735   2.083  52.168  1.00  0.00    -0.369 N 
HETATM    5  C12 UNL     1      24.665   1.169  52.700  1.00  0.00     0.025 C 
HETATM    6  C13 UNL     1      24.438   0.049  53.367  1.00  0.00     0.035 C 
HETATM    7  C14 UNL     1      25.599  -0.735  53.820  1.00  0.00     0.317 C 
HETATM    8  N3  UNL     1      26.752  -0.690  52.996  1.00  0.00     0.088 N 
HETATM    9  C15 UNL     1      26.720   0.264  51.935  1.00  0.00     0.276 C 
HETATM   10  C16 UNL     1      26.049   1.567  52.442  1.00  0.00     0.088 C 
HETATM   11  S1  UNL     1      22.891  -0.715  53.839  1.00  0.00    -0.074 SA
HETATM   12  H17 UNL     1      27.664  -0.679  53.502  1.00  0.00     0.316 HD
ENDROOT
BRANCH   4  13
HETATM   13  C4  UNL     1      24.125   3.474  52.189  1.00  0.00     0.141 C 
BRANCH  13  14
HETATM   14  C5  UNL     1      23.806   4.204  53.447  1.00  0.00     0.194 C 
BRANCH  14  15
HETATM   15  O1  UNL     1      24.040   5.577  53.411  1.00  0.00    -0.398 OA
HETATM   16  H9  UNL     1      23.845   5.882  52.501  1.00  0.00     0.209 HD
ENDBRANCH  14  15
ENDBRANCH  13  14
BRANCH  13  17
HETATM   17  C6  UNL     1      24.054   4.203  50.935  1.00  0.00    -0.033 A 
HETATM   18  C7  UNL     1      25.283   4.432  50.296  1.00  0.00     0.009 A 
HETATM   19  C8  UNL     1      25.346   5.113  49.095  1.00  0.00     0.001 A 
HETATM   20  C9  UNL     1      24.217   5.598  48.469  1.00  0.00     0.000 A 
HETATM   21  C10 UNL     1      22.995   5.389  49.073  1.00  0.00     0.001 A 
HETATM   22  C11 UNL     1      22.976   4.704  50.271  1.00  0.00     0.009 A 
ENDBRANCH  13  17
ENDBRANCH   4  13
BRANCH   1  23
HETATM   23  N1  UNL     1      20.376   0.057  54.360  1.00  0.00    -0.394 N 
HETATM   24  H1  UNL     1      19.393  -0.121  54.132  1.00  0.00     0.156 HD
HETATM   25  H2  UNL     1      20.593   0.029  55.384  1.00  0.00     0.156 HD
ENDBRANCH   1  23
TORSDOF 5
ENDMDL
MODEL 9
REMARK VINA RESULT:      -6.2      1.929      2.375
REMARK  5 active torsions:
REMARK  status: ('A' for Active; 'I' for Inactive)
REMARK    1  A    between atoms: N1_1  and  C1_2 
REMARK    2  A    between atoms: N2_5  and  C4_6 
REMARK    3  A    between atoms: C4_6  and  C5_7 
REMARK    4  A    between atoms: C4_6  and  C6_9 
REMARK    5  A    between atoms: C5_7  and  O1_8 
ROOT
HETATM    1  C1  UNL     1      25.092   5.181  49.255  1.00  0.00     0.065 C 
HETATM    2  C2  UNL     1      25.963   4.348  49.851  1.00  0.00     0.029 C 
HETATM    3  C3  UNL     1      25.890   2.911  50.242  1.00  0.00     0.153 C 
HETATM    4  N2  UNL     1      24.661   2.590  50.968  1.00  0.00    -0.369 N 
HETATM    5  C12 UNL     1      23.330   2.598  50.509  1.00  0.00     0.025 C 
HETATM    6  C13 UNL     1      22.761   3.410  49.631  1.00  0.00     0.035 C 
HETATM    7  C14 UNL     1      21.337   3.205  49.320  1.00  0.00     0.317 C 
HETATM    8  N3  UNL     1      20.864   1.870  49.375  1.00  0.00     0.088 N 
HETATM    9  C15 UNL     1      21.771   0.911  49.916  1.00  0.00     0.276 C 
HETATM   10  C16 UNL     1      22.522   1.543  51.118  1.00  0.00     0.088 C 
HETATM   11  S1  UNL     1      23.456   4.778  48.713  1.00  0.00    -0.074 SA
HETATM   12  H17 UNL     1      19.900   1.752  49.755  1.00  0.00     0.316 HD
ENDROOT
BRANCH   4  13
HETATM   13  C4  UNL     1      24.857   2.205  52.347  1.00  0.00     0.141 C 
BRANCH  13  14
HETATM   14  C5  UNL     1      24.534   3.257  53.351  1.00  0.00     0.194 C 
BRANCH  14  15
HETATM   15  O1  UNL     1      24.225   4.507  52.820  1.00  0.00    -0.398 OA
HETATM   16  H9  UNL     1      23.293   4.473  52.518  1.00  0.00     0.209 HD
ENDBRANCH  14  15
ENDBRANCH  13  14
BRANCH  13  17
HETATM   17  C6  UNL     1      25.950   1.293  52.635  1.00  0.00    -0.033 A 
HETATM   18  C7  UNL     1      25.703  -0.059  52.351  1.00  0.00     0.009 A 
HETATM   19  C8  UNL     1      26.666  -1.023  52.580  1.00  0.00     0.001 A 
HETATM   20  C9  UNL     1      27.907  -0.710  53.094  1.00  0.00     0.000 A 
HETATM   21  C10 UNL     1      28.179   0.611  53.383  1.00  0.00     0.001 A 
HETATM   22  C11 UNL     1      27.190   1.541  53.139  1.00  0.00     0.009 A 
ENDBRANCH  13  17
ENDBRANCH   4  13
BRANCH   1  23
HETATM   23  N1  UNL     1      25.449   6.551  48.999  1.00  0.00    -0.394 N 
HETATM   24  H1  UNL     1      25.892   6.989  48.186  1.00  0.00     0.156 HD
HETATM   25  H2  UNL     1      25.215   7.217  49.773  1.00  0.00     0.156 HD
ENDBRANCH   1  23
TORSDOF 5
ENDMDL
