MODEL 1
REMARK VINA RESULT:      -9.8      0.000      0.000
REMARK  5 active torsions:
REMARK  status: ('A' for Active; 'I' for Inactive)
REMARK    1  A    between atoms: C4_5  and  C5_6 
REMARK    2  A    between atoms: N2_9  and  C7_10 
REMARK    3  A    between atoms: N3_13  and  C10_14 
REMARK    4  A    between atoms: C10_14  and  C11_15 
REMARK    5  A    between atoms: C17_21  and  C18_22 
ROOT
HETATM    1  C5  UNL     1      25.364  -0.601  54.137  1.00  0.00     0.095 A 
HETATM    2  N1  UNL     1      24.742  -1.265  55.152  1.00  0.00    -0.241 NA
HETATM    3  C6  UNL     1      23.423  -0.961  55.102  1.00  0.00     0.212 A 
HETATM    4  N2  UNL     1      23.229  -0.117  54.068  1.00  0.00    -0.308 N 
HETATM    5  C17 UNL     1      24.396   0.131  53.445  1.00  0.00     0.068 A 
ENDROOT
BRANCH   4   6
HETATM    6  C7  UNL     1      21.902   0.427  53.721  1.00  0.00     0.331 C 
HETATM    7  C8  UNL     1      20.844  -0.133  54.650  1.00  0.00     0.088 C 
HETATM    8  C9  UNL     1      20.760  -1.231  53.620  1.00  0.00     0.279 C 
HETATM    9  N3  UNL     1      21.261  -0.287  52.643  1.00  0.00     0.116 N 
BRANCH   9  10
HETATM   10  C10 UNL     1      20.175   0.477  52.082  1.00  0.00     0.313 C 
BRANCH  10  11
HETATM   11  C11 UNL     1      20.616   1.356  50.968  1.00  0.00    -0.030 A 
HETATM   12  C12 UNL     1      20.486   2.716  50.874  1.00  0.00     0.009 A 
HETATM   13  C13 UNL     1      20.950   3.405  49.769  1.00  0.00     0.001 A 
HETATM   14  C14 UNL     1      21.566   2.753  48.711  1.00  0.00     0.000 A 
HETATM   15  C15 UNL     1      21.726   1.381  48.749  1.00  0.00     0.001 A 
HETATM   16  C16 UNL     1      21.240   0.751  49.882  1.00  0.00     0.009 A 
ENDBRANCH  10  11
ENDBRANCH   9  10
ENDBRANCH   4   6
BRANCH   5  17
HETATM   17  C18 UNL     1      24.652   0.946  52.276  1.00  0.00     0.045 C 
HETATM   18  C19 UNL     1      24.468   2.213  51.988  1.00  0.00    -0.015 C 
HETATM   19  C20 UNL     1      23.910   3.237  52.849  1.00  0.00     0.123 C 
HETATM   20  C24 UNL     1      24.829   2.672  50.654  1.00  0.00     0.042 C 
HETATM   21  N4  UNL     1      23.692   4.479  52.493  1.00  0.00    -0.284 NA
HETATM   22  C21 UNL     1      23.985   4.842  51.182  1.00  0.00     0.201 C 
HETATM   23  C22 UNL     1      23.999   6.158  50.631  1.00  0.00     0.145 C 
HETATM   24  C23 UNL     1      24.653   3.911  50.304  1.00  0.00     0.058 C 
HETATM   25  N5  UNL     1      24.492   6.029  49.469  1.00  0.00    -0.189 NA
HETATM   26  N6  UNL     1      24.886   4.736  49.152  1.00  0.00    -0.280 N 
HETATM   27  H20 UNL     1      25.287   4.365  48.256  1.00  0.00     0.189 HD
ENDBRANCH   5  17
BRANCH   1  28
HETATM   28  C4  UNL     1      26.806  -0.664  53.889  1.00  0.00    -0.005 A 
HETATM   29  C3  UNL     1      27.530  -1.473  53.041  1.00  0.00     0.017 A 
HETATM   30  C2  UNL     1      28.900  -1.310  53.000  1.00  0.00     0.043 A 
HETATM   31  C1  UNL     1      29.561  -0.364  53.780  1.00  0.00     0.116 A 
HETATM   32  F1  UNL     1      30.909  -0.247  53.698  1.00  0.00    -0.206 F 
HETATM   33  C26 UNL     1      28.835   0.451  54.634  1.00  0.00     0.043 A 
HETATM   34  C25 UNL     1      27.486   0.282  54.667  1.00  0.00     0.017 A 
ENDBRANCH   1  28
TORSDOF 5
ENDMDL
MODEL 2
REMARK VINA RESULT:      -9.2      2.745      6.352
REMARK  5 active torsions:
REMARK  status: ('A' for Active; 'I' for Inactive)
REMARK    1  A    between atoms: C4_5  and  C5_6 
REMARK    2  A    between atoms: N2_9  and  C7_10 
REMARK    3  A    between atoms: N3_13  and  C10_14 
REMARK    4  A    between atoms: C10_14  and  C11_15 
REMARK    5  A    between atoms: C17_21  and  C18_22 
ROOT
HETATM    1  C5  UNL     1      23.125   4.742  49.162  1.00  0.00     0.095 A 
HETATM    2  N1  UNL     1      22.318   4.785  48.064  1.00  0.00    -0.241 NA
HETATM    3  C6  UNL     1      21.453   3.745  48.141  1.00  0.00     0.212 A 
HETATM    4  N2  UNL     1      21.722   3.063  49.274  1.00  0.00    -0.308 N 
HETATM    5  C17 UNL     1      22.742   3.642  49.933  1.00  0.00     0.068 A 
ENDROOT
BRANCH   4   6
HETATM    6  C7  UNL     1      20.972   1.858  49.675  1.00  0.00     0.331 C 
HETATM    7  C8  UNL     1      19.504   2.014  49.335  1.00  0.00     0.088 C 
HETATM    8  C9  UNL     1      19.424   2.629  50.710  1.00  0.00     0.279 C 
HETATM    9  N3  UNL     1      20.598   1.862  51.070  1.00  0.00     0.116 N 
BRANCH   9  10
HETATM   10  C10 UNL     1      20.219   0.544  51.513  1.00  0.00     0.313 C 
BRANCH  10  11
HETATM   11  C11 UNL     1      21.039   0.073  52.659  1.00  0.00    -0.030 A 
HETATM   12  C12 UNL     1      20.642  -0.092  53.959  1.00  0.00     0.009 A 
HETATM   13  C13 UNL     1      21.522  -0.545  54.925  1.00  0.00     0.001 A 
HETATM   14  C14 UNL     1      22.840  -0.851  54.621  1.00  0.00     0.000 A 
HETATM   15  C15 UNL     1      23.300  -0.705  53.325  1.00  0.00     0.001 A 
HETATM   16  C16 UNL     1      22.370  -0.248  52.407  1.00  0.00     0.009 A 
ENDBRANCH  10  11
ENDBRANCH   9  10
ENDBRANCH   4   6
BRANCH   5  17
HETATM   17  C18 UNL     1      23.337   3.272  51.201  1.00  0.00     0.045 C 
HETATM   18  C19 UNL     1      24.537   2.883  51.567  1.00  0.00    -0.015 C 
HETATM   19  C20 UNL     1      25.700   2.710  50.721  1.00  0.00     0.123 C 
HETATM   20  C24 UNL     1      24.751   2.557  52.970  1.00  0.00     0.042 C 
HETATM   21  N4  UNL     1      26.863   2.262  51.127  1.00  0.00    -0.284 NA
HETATM   22  C21 UNL     1      26.987   1.892  52.462  1.00  0.00     0.201 C 
HETATM   23  C22 UNL     1      28.187   1.555  53.159  1.00  0.00     0.145 C 
HETATM   24  C23 UNL     1      25.912   2.149  53.391  1.00  0.00     0.058 C 
HETATM   25  N5  UNL     1      27.852   1.467  54.379  1.00  0.00    -0.189 NA
HETATM   26  N6  UNL     1      26.520   1.765  54.632  1.00  0.00    -0.280 N 
HETATM   27  H20 UNL     1      25.994   1.737  55.541  1.00  0.00     0.189 HD
ENDBRANCH   5  17
BRANCH   1  28
HETATM   28  C4  UNL     1      24.205   5.697  49.412  1.00  0.00    -0.005 A 
HETATM   29  C3  UNL     1      25.510   5.705  48.968  1.00  0.00     0.017 A 
HETATM   30  C2  UNL     1      26.322   6.750  49.358  1.00  0.00     0.043 A 
HETATM   31  C1  UNL     1      25.867   7.783  50.175  1.00  0.00     0.116 A 
HETATM   32  F1  UNL     1      26.710   8.785  50.526  1.00  0.00    -0.206 F 
HETATM   33  C26 UNL     1      24.556   7.777  50.623  1.00  0.00     0.043 A 
HETATM   34  C25 UNL     1      23.764   6.744  50.233  1.00  0.00     0.017 A 
ENDBRANCH   1  28
TORSDOF 5
ENDMDL
MODEL 3
REMARK VINA RESULT:      -9.1      1.799      3.192
REMARK  5 active torsions:
REMARK  status: ('A' for Active; 'I' for Inactive)
REMARK    1  A    between atoms: C4_5  and  C5_6 
REMARK    2  A    between atoms: N2_9  and  C7_10 
REMARK    3  A    between atoms: N3_13  and  C10_14 
REMARK    4  A    between atoms: C10_14  and  C11_15 
REMARK    5  A    between atoms: C17_21  and  C18_22 
ROOT
HETATM    1  C5  UNL     1      24.909  -0.377  53.897  1.00  0.00     0.095 A 
HETATM    2  N1  UNL     1      24.154  -1.130  54.745  1.00  0.00    -0.241 NA
HETATM    3  C6  UNL     1      22.853  -0.960  54.409  1.00  0.00     0.212 A 
HETATM    4  N2  UNL     1      22.801  -0.108  53.363  1.00  0.00    -0.308 N 
HETATM    5  C17 UNL     1      24.044   0.275  53.014  1.00  0.00     0.068 A 
ENDROOT
BRANCH   4   6
HETATM    6  C7  UNL     1      21.533   0.309  52.738  1.00  0.00     0.331 C 
HETATM    7  C8  UNL     1      21.065   1.627  53.322  1.00  0.00     0.088 C 
HETATM    8  C9  UNL     1      20.378   0.742  54.331  1.00  0.00     0.279 C 
HETATM    9  N3  UNL     1      20.375  -0.310  53.337  1.00  0.00     0.116 N 
BRANCH   9  10
HETATM   10  C10 UNL     1      19.218  -0.190  52.485  1.00  0.00     0.313 C 
BRANCH  10  11
HETATM   11  C11 UNL     1      18.209  -1.249  52.746  1.00  0.00    -0.030 A 
HETATM   12  C12 UNL     1      18.355  -2.373  53.515  1.00  0.00     0.009 A 
HETATM   13  C13 UNL     1      17.319  -3.275  53.669  1.00  0.00     0.001 A 
HETATM   14  C14 UNL     1      16.090  -3.083  53.055  1.00  0.00     0.000 A 
HETATM   15  C15 UNL     1      15.882  -1.967  52.266  1.00  0.00     0.001 A 
HETATM   16  C16 UNL     1      16.959  -1.104  52.152  1.00  0.00     0.009 A 
ENDBRANCH  10  11
ENDBRANCH   9  10
ENDBRANCH   4   6
BRANCH   5  17
HETATM   17  C18 UNL     1      24.461   1.146  51.936  1.00  0.00     0.045 C 
HETATM   18  C19 UNL     1      24.394   2.441  51.729  1.00  0.00    -0.015 C 
HETATM   19  C20 UNL     1      23.834   3.442  52.614  1.00  0.00     0.123 C 
HETATM   20  C24 UNL     1      24.906   2.961  50.469  1.00  0.00     0.042 C 
HETATM   21  N4  UNL     1      23.736   4.719  52.336  1.00  0.00    -0.284 NA
HETATM   22  C21 UNL     1      24.172   5.147  51.086  1.00  0.00     0.201 C 
HETATM   23  C22 UNL     1      24.328   6.494  50.639  1.00  0.00     0.145 C 
HETATM   24  C23 UNL     1      24.850   4.231  50.200  1.00  0.00     0.058 C 
HETATM   25  N5  UNL     1      24.914   6.407  49.517  1.00  0.00    -0.189 NA
HETATM   26  N6  UNL     1      25.243   5.113  49.138  1.00  0.00    -0.280 N 
HETATM   27  H20 UNL     1      25.698   4.775  48.254  1.00  0.00     0.189 HD
ENDBRANCH   5  17
BRANCH   1  28
HETATM   28  C4  UNL     1      26.369  -0.287  53.971  1.00  0.00    -0.005 A 
HETATM   29  C3  UNL     1      27.174   0.565  54.695  1.00  0.00     0.017 A 
HETATM   30  C2  UNL     1      28.542   0.419  54.582  1.00  0.00     0.043 A 
HETATM   31  C1  UNL     1      29.122  -0.552  53.770  1.00  0.00     0.116 A 
HETATM   32  F1  UNL     1      30.472  -0.650  53.698  1.00  0.00    -0.206 F 
HETATM   33  C26 UNL     1      28.314  -1.411  53.041  1.00  0.00     0.043 A 
HETATM   34  C25 UNL     1      26.969  -1.258  53.160  1.00  0.00     0.017 A 
ENDBRANCH   1  28
TORSDOF 5
ENDMDL
MODEL 4
REMARK VINA RESULT:      -8.8      1.706      2.555
REMARK  5 active torsions:
REMARK  status: ('A' for Active; 'I' for Inactive)
REMARK    1  A    between atoms: C4_5  and  C5_6 
REMARK    2  A    between atoms: N2_9  and  C7_10 
REMARK    3  A    between atoms: N3_13  and  C10_14 
REMARK    4  A    between atoms: C10_14  and  C11_15 
REMARK    5  A    between atoms: C17_21  and  C18_22 
ROOT
HETATM    1  C5  UNL     1      23.910   0.082  53.131  1.00  0.00     0.095 A 
HETATM    2  N1  UNL     1      23.283  -1.127  53.084  1.00  0.00    -0.241 NA
HETATM    3  C6  UNL     1      21.949  -0.903  53.003  1.00  0.00     0.212 A 
HETATM    4  N2  UNL     1      21.751   0.431  53.001  1.00  0.00    -0.308 N 
HETATM    5  C17 UNL     1      22.930   1.076  53.078  1.00  0.00     0.068 A 
ENDROOT
BRANCH   4   6
HETATM    6  C7  UNL     1      20.408   1.037  52.929  1.00  0.00     0.331 C 
HETATM    7  C8  UNL     1      19.390   0.010  52.474  1.00  0.00     0.088 C 
HETATM    8  C9  UNL     1      19.776   0.488  51.096  1.00  0.00     0.279 C 
HETATM    9  N3  UNL     1      20.172   1.745  51.694  1.00  0.00     0.116 N 
BRANCH   9  10
HETATM   10  C10 UNL     1      19.036   2.626  51.805  1.00  0.00     0.313 C 
BRANCH  10  11
HETATM   11  C11 UNL     1      19.150   3.814  50.920  1.00  0.00    -0.030 A 
HETATM   12  C12 UNL     1      18.217   4.296  50.042  1.00  0.00     0.009 A 
HETATM   13  C13 UNL     1      18.464   5.423  49.281  1.00  0.00     0.001 A 
HETATM   14  C14 UNL     1      19.663   6.114  49.373  1.00  0.00     0.000 A 
HETATM   15  C15 UNL     1      20.644   5.676  50.243  1.00  0.00     0.001 A 
HETATM   16  C16 UNL     1      20.335   4.543  50.975  1.00  0.00     0.009 A 
ENDBRANCH  10  11
ENDBRANCH   9  10
ENDBRANCH   4   6
BRANCH   5  17
HETATM   17  C18 UNL     1      23.193   2.500  53.071  1.00  0.00     0.045 C 
HETATM   18  C19 UNL     1      23.533   3.362  52.140  1.00  0.00    -0.015 C 
HETATM   19  C20 UNL     1      23.749   3.093  50.733  1.00  0.00     0.123 C 
HETATM   20  C24 UNL     1      23.749   4.746  52.535  1.00  0.00     0.042 C 
HETATM   21  N4  UNL     1      24.145   3.979  49.852  1.00  0.00    -0.284 NA
HETATM   22  C21 UNL     1      24.411   5.269  50.302  1.00  0.00     0.201 C 
HETATM   23  C22 UNL     1      24.674   6.425  49.507  1.00  0.00     0.145 C 
HETATM   24  C23 UNL     1      24.104   5.642  51.662  1.00  0.00     0.058 C 
HETATM   25  N5  UNL     1      24.676   7.397  50.322  1.00  0.00    -0.189 NA
HETATM   26  N6  UNL     1      24.383   7.049  51.633  1.00  0.00    -0.280 N 
HETATM   27  H20 UNL     1      24.352   7.656  52.490  1.00  0.00     0.189 HD
ENDBRANCH   5  17
BRANCH   1  28
HETATM   28  C4  UNL     1      25.360   0.240  53.248  1.00  0.00    -0.005 A 
HETATM   29  C3  UNL     1      26.303   0.555  52.294  1.00  0.00     0.017 A 
HETATM   30  C2  UNL     1      27.622   0.650  52.689  1.00  0.00     0.043 A 
HETATM   31  C1  UNL     1      28.021   0.439  54.007  1.00  0.00     0.116 A 
HETATM   32  F1  UNL     1      29.330   0.546  54.339  1.00  0.00    -0.206 F 
HETATM   33  C26 UNL     1      27.075   0.122  54.969  1.00  0.00     0.043 A 
HETATM   34  C25 UNL     1      25.778   0.031  54.569  1.00  0.00     0.017 A 
ENDBRANCH   1  28
TORSDOF 5
ENDMDL
MODEL 5
REMARK VINA RESULT:      -8.4      3.115      6.466
REMARK  5 active torsions:
REMARK  status: ('A' for Active; 'I' for Inactive)
REMARK    1  A    between atoms: C4_5  and  C5_6 
REMARK    2  A    between atoms: N2_9  and  C7_10 
REMARK    3  A    between atoms: N3_13  and  C10_14 
REMARK    4  A    between atoms: C10_14  and  C11_15 
REMARK    5  A    between atoms: C17_21  and  C18_22 
ROOT
HETATM    1  C5  UNL     1      25.512   3.930  50.295  1.00  0.00     0.095 A 
HETATM    2  N1  UNL     1      26.784   3.446  50.229  1.00  0.00    -0.241 NA
HETATM    3  C6  UNL     1      26.937   2.539  51.224  1.00  0.00     0.212 A 
HETATM    4  N2  UNL     1      25.772   2.462  51.900  1.00  0.00    -0.308 N 
HETATM    5  C17 UNL     1      24.867   3.300  51.363  1.00  0.00     0.068 A 
ENDROOT
BRANCH   4   6
HETATM    6  C7  UNL     1      25.582   1.570  53.059  1.00  0.00     0.331 C 
HETATM    7  C8  UNL     1      26.842   0.771  53.323  1.00  0.00     0.088 C 
HETATM    8  C9  UNL     1      26.222  -0.207  52.357  1.00  0.00     0.279 C 
HETATM    9  N3  UNL     1      24.927   0.330  52.718  1.00  0.00     0.116 N 
BRANCH   9  10
HETATM   10  C10 UNL     1      24.420  -0.334  53.893  1.00  0.00     0.313 C 
BRANCH  10  11
HETATM   11  C11 UNL     1      22.953  -0.566  53.826  1.00  0.00    -0.030 A 
HETATM   12  C12 UNL     1      22.178  -1.279  54.701  1.00  0.00     0.009 A 
HETATM   13  C13 UNL     1      20.815  -1.407  54.509  1.00  0.00     0.001 A 
HETATM   14  C14 UNL     1      20.174  -0.820  53.428  1.00  0.00     0.000 A 
HETATM   15  C15 UNL     1      20.904  -0.088  52.510  1.00  0.00     0.001 A 
HETATM   16  C16 UNL     1      22.263   0.002  52.759  1.00  0.00     0.009 A 
ENDBRANCH  10  11
ENDBRANCH   9  10
ENDBRANCH   4   6
BRANCH   5  17
HETATM   17  C18 UNL     1      23.487   3.519  51.742  1.00  0.00     0.045 C 
HETATM   18  C19 UNL     1      22.331   3.166  51.228  1.00  0.00    -0.015 C 
HETATM   19  C20 UNL     1      22.106   2.383  50.030  1.00  0.00     0.123 C 
HETATM   20  C24 UNL     1      21.119   3.617  51.897  1.00  0.00     0.042 C 
HETATM   21  N4  UNL     1      20.929   2.107  49.524  1.00  0.00    -0.284 NA
HETATM   22  C21 UNL     1      19.808   2.629  50.162  1.00  0.00     0.201 C 
HETATM   23  C22 UNL     1      18.440   2.316  49.901  1.00  0.00     0.145 C 
HETATM   24  C23 UNL     1      19.945   3.315  51.425  1.00  0.00     0.058 C 
HETATM   25  N5  UNL     1      17.786   2.879  50.831  1.00  0.00    -0.189 NA
HETATM   26  N6  UNL     1      18.570   3.530  51.774  1.00  0.00    -0.280 N 
HETATM   27  H20 UNL     1      18.273   4.090  52.611  1.00  0.00     0.189 HD
ENDBRANCH   5  17
BRANCH   1  28
HETATM   28  C4  UNL     1      24.985   4.955  49.392  1.00  0.00    -0.005 A 
HETATM   29  C3  UNL     1      23.849   4.958  48.613  1.00  0.00     0.017 A 
HETATM   30  C2  UNL     1      23.586   6.079  47.852  1.00  0.00     0.043 A 
HETATM   31  C1  UNL     1      24.425   7.191  47.849  1.00  0.00     0.116 A 
HETATM   32  F1  UNL     1      24.117   8.265  47.082  1.00  0.00    -0.206 F 
HETATM   33  C26 UNL     1      25.569   7.190  48.631  1.00  0.00     0.043 A 
HETATM   34  C25 UNL     1      25.819   6.081  49.378  1.00  0.00     0.017 A 
ENDBRANCH   1  28
TORSDOF 5
ENDMDL
MODEL 6
REMARK VINA RESULT:      -8.4      3.221      6.688
REMARK  5 active torsions:
REMARK  status: ('A' for Active; 'I' for Inactive)
REMARK    1  A    between atoms: C4_5  and  C5_6 
REMARK    2  A    between atoms: N2_9  and  C7_10 
REMARK    3  A    between atoms: N3_13  and  C10_14 
REMARK    4  A    between atoms: C10_14  and  C11_15 
REMARK    5  A    between atoms: C17_21  and  C18_22 
ROOT
HETATM    1  C5  UNL     1      19.394   1.399  51.183  1.00  0.00     0.095 A 
HETATM    2  N1  UNL     1      18.559   0.708  52.010  1.00  0.00    -0.241 NA
HETATM    3  C6  UNL     1      19.310  -0.154  52.737  1.00  0.00     0.212 A 
HETATM    4  N2  UNL     1      20.598   0.001  52.365  1.00  0.00    -0.308 N 
HETATM    5  C17 UNL     1      20.696   0.946  51.412  1.00  0.00     0.068 A 
ENDROOT
BRANCH   4   6
HETATM    6  C7  UNL     1      21.697  -0.788  52.952  1.00  0.00     0.331 C 
HETATM    7  C8  UNL     1      21.211  -1.542  54.173  1.00  0.00     0.088 C 
HETATM    8  C9  UNL     1      21.609  -0.282  54.901  1.00  0.00     0.279 C 
HETATM    9  N3  UNL     1      22.544  -0.014  53.829  1.00  0.00     0.116 N 
BRANCH   9  10
HETATM   10  C10 UNL     1      23.795  -0.688  54.075  1.00  0.00     0.313 C 
BRANCH  10  11
HETATM   11  C11 UNL     1      24.932  -0.052  53.360  1.00  0.00    -0.030 A 
HETATM   12  C12 UNL     1      25.973  -0.675  52.724  1.00  0.00     0.009 A 
HETATM   13  C13 UNL     1      26.965   0.053  52.094  1.00  0.00     0.001 A 
HETATM   14  C14 UNL     1      26.950   1.440  52.077  1.00  0.00     0.000 A 
HETATM   15  C15 UNL     1      25.925   2.125  52.701  1.00  0.00     0.001 A 
HETATM   16  C16 UNL     1      24.964   1.338  53.314  1.00  0.00     0.009 A 
ENDBRANCH  10  11
ENDBRANCH   9  10
ENDBRANCH   4   6
BRANCH   5  17
HETATM   17  C18 UNL     1      21.879   1.458  50.752  1.00  0.00     0.045 C 
HETATM   18  C19 UNL     1      22.535   2.594  50.806  1.00  0.00    -0.015 C 
HETATM   19  C20 UNL     1      22.225   3.749  51.623  1.00  0.00     0.123 C 
HETATM   20  C24 UNL     1      23.696   2.755  49.940  1.00  0.00     0.042 C 
HETATM   21  N4  UNL     1      22.879   4.884  51.598  1.00  0.00    -0.284 NA
HETATM   22  C21 UNL     1      23.932   5.008  50.696  1.00  0.00     0.201 C 
HETATM   23  C22 UNL     1      24.885   6.068  50.619  1.00  0.00     0.145 C 
HETATM   24  C23 UNL     1      24.375   3.863  49.936  1.00  0.00     0.058 C 
HETATM   25  N5  UNL     1      25.753   5.676  49.781  1.00  0.00    -0.189 NA
HETATM   26  N6  UNL     1      25.537   4.397  49.284  1.00  0.00    -0.280 N 
HETATM   27  H20 UNL     1      26.086   3.863  48.566  1.00  0.00     0.189 HD
ENDBRANCH   5  17
BRANCH   1  28
HETATM   28  C4  UNL     1      18.936   2.406  50.225  1.00  0.00    -0.005 A 
HETATM   29  C3  UNL     1      18.955   2.400  48.847  1.00  0.00     0.017 A 
HETATM   30  C2  UNL     1      18.441   3.496  48.185  1.00  0.00     0.043 A 
HETATM   31  C1  UNL     1      17.912   4.593  48.861  1.00  0.00     0.116 A 
HETATM   32  F1  UNL     1      17.421   5.644  48.159  1.00  0.00    -0.206 F 
HETATM   33  C26 UNL     1      17.892   4.602  50.247  1.00  0.00     0.043 A 
HETATM   34  C25 UNL     1      18.400   3.517  50.889  1.00  0.00     0.017 A 
ENDBRANCH   1  28
TORSDOF 5
ENDMDL
MODEL 7
REMARK VINA RESULT:      -8.3      1.916      5.125
REMARK  5 active torsions:
REMARK  status: ('A' for Active; 'I' for Inactive)
REMARK    1  A    between atoms: C4_5  and  C5_6 
REMARK    2  A    between atoms: N2_9  and  C7_10 
REMARK    3  A    between atoms: N3_13  and  C10_14 
REMARK    4  A    between atoms: C10_14  and  C11_15 
REMARK    5  A    between atoms: C17_21  and  C18_22 
ROOT
HETATM    1  C5  UNL     1      26.264   2.632  51.129  1.00  0.00     0.095 A 
HETATM    2  N1  UNL     1      26.913   3.317  50.147  1.00  0.00    -0.241 NA
HETATM    3  C6  UNL     1      26.044   4.211  49.617  1.00  0.00     0.212 A 
HETATM    4  N2  UNL     1      24.867   4.081  50.264  1.00  0.00    -0.308 N 
HETATM    5  C17 UNL     1      24.957   3.122  51.203  1.00  0.00     0.068 A 
ENDROOT
BRANCH   4   6
HETATM    6  C7  UNL     1      23.685   4.900  49.938  1.00  0.00     0.331 C 
HETATM    7  C8  UNL     1      24.040   6.373  49.962  1.00  0.00     0.088 C 
HETATM    8  C9  UNL     1      23.673   6.265  51.421  1.00  0.00     0.279 C 
HETATM    9  N3  UNL     1      22.830   5.139  51.077  1.00  0.00     0.116 N 
BRANCH   9  10
HETATM   10  C10 UNL     1      21.527   5.597  50.665  1.00  0.00     0.313 C 
BRANCH  10  11
HETATM   11  C11 UNL     1      20.575   4.477  50.444  1.00  0.00    -0.030 A 
HETATM   12  C12 UNL     1      20.399   3.743  49.302  1.00  0.00     0.009 A 
HETATM   13  C13 UNL     1      19.470   2.720  49.244  1.00  0.00     0.001 A 
HETATM   14  C14 UNL     1      18.680   2.394  50.336  1.00  0.00     0.000 A 
HETATM   15  C15 UNL     1      18.812   3.099  51.517  1.00  0.00     0.001 A 
HETATM   16  C16 UNL     1      19.759   4.109  51.509  1.00  0.00     0.009 A 
ENDBRANCH  10  11
ENDBRANCH   9  10
ENDBRANCH   4   6
BRANCH   5  17
HETATM   17  C18 UNL     1      23.956   2.673  52.149  1.00  0.00     0.045 C 
HETATM   18  C19 UNL     1      22.951   1.831  52.084  1.00  0.00    -0.015 C 
HETATM   19  C20 UNL     1      22.538   1.044  50.941  1.00  0.00     0.123 C 
HETATM   20  C24 UNL     1      22.122   1.663  53.269  1.00  0.00     0.042 C 
HETATM   21  N4  UNL     1      21.489   0.259  50.909  1.00  0.00    -0.284 NA
HETATM   22  C21 UNL     1      20.689   0.197  52.045  1.00  0.00     0.201 C 
HETATM   23  C22 UNL     1      19.617  -0.711  52.301  1.00  0.00     0.145 C 
HETATM   24  C23 UNL     1      21.102   0.857  53.261  1.00  0.00     0.058 C 
HETATM   25  N5  UNL     1      19.303  -0.523  53.515  1.00  0.00    -0.189 NA
HETATM   26  N6  UNL     1      20.092   0.408  54.177  1.00  0.00    -0.280 N 
HETATM   27  H20 UNL     1      20.018   0.760  55.163  1.00  0.00     0.189 HD
ENDBRANCH   5  17
BRANCH   1  28
HETATM   28  C4  UNL     1      26.878   1.559  51.914  1.00  0.00    -0.005 A 
HETATM   29  C3  UNL     1      26.647   0.201  51.903  1.00  0.00     0.017 A 
HETATM   30  C2  UNL     1      27.389  -0.591  52.755  1.00  0.00     0.043 A 
HETATM   31  C1  UNL     1      28.352  -0.064  53.612  1.00  0.00     0.116 A 
HETATM   32  F1  UNL     1      29.052  -0.890  54.427  1.00  0.00    -0.206 F 
HETATM   33  C26 UNL     1      28.587   1.301  53.625  1.00  0.00     0.043 A 
HETATM   34  C25 UNL     1      27.851   2.073  52.782  1.00  0.00     0.017 A 
ENDBRANCH   1  28
TORSDOF 5
ENDMDL
MODEL 8
REMARK VINA RESULT:      -8.2      3.311      5.494
REMARK  5 active torsions:
REMARK  status: ('A' for Active; 'I' for Inactive)
REMARK    1  A    between atoms: C4_5  and  C5_6 
REMARK    2  A    between atoms: N2_9  and  C7_10 
REMARK    3  A    between atoms: N3_13  and  C10_14 
REMARK    4  A    between atoms: C10_14  and  C11_15 
REMARK    5  A    between atoms: C17_21  and  C18_22 
ROOT
HETATM    1  C5  UNL     1      20.239   0.906  51.791  1.00  0.00     0.095 A 
HETATM    2  N1  UNL     1      19.249   0.181  51.197  1.00  0.00    -0.241 NA
HETATM    3  C6  UNL     1      18.477   1.036  50.484  1.00  0.00     0.212 A 
HETATM    4  N2  UNL     1      18.982   2.278  50.635  1.00  0.00    -0.308 N 
HETATM    5  C17 UNL     1      20.067   2.245  51.431  1.00  0.00     0.068 A 
ENDROOT
BRANCH   4   6
HETATM    6  C7  UNL     1      18.382   3.465  49.998  1.00  0.00     0.331 C 
HETATM    7  C8  UNL     1      17.323   3.048  48.997  1.00  0.00     0.088 C 
HETATM    8  C9  UNL     1      18.486   3.011  48.037  1.00  0.00     0.279 C 
HETATM    9  N3  UNL     1      19.159   3.967  48.890  1.00  0.00     0.116 N 
BRANCH   9  10
HETATM   10  C10 UNL     1      18.768   5.310  48.543  1.00  0.00     0.313 C 
BRANCH  10  11
HETATM   11  C11 UNL     1      19.892   6.276  48.657  1.00  0.00    -0.030 A 
HETATM   12  C12 UNL     1      20.837   6.574  47.713  1.00  0.00     0.009 A 
HETATM   13  C13 UNL     1      21.829   7.505  47.961  1.00  0.00     0.001 A 
HETATM   14  C14 UNL     1      21.910   8.176  49.172  1.00  0.00     0.000 A 
HETATM   15  C15 UNL     1      20.983   7.918  50.165  1.00  0.00     0.001 A 
HETATM   16  C16 UNL     1      20.017   6.976  49.853  1.00  0.00     0.009 A 
ENDBRANCH  10  11
ENDBRANCH   9  10
ENDBRANCH   4   6
BRANCH   5  17
HETATM   17  C18 UNL     1      20.938   3.329  51.833  1.00  0.00     0.045 C 
HETATM   18  C19 UNL     1      21.905   3.991  51.242  1.00  0.00    -0.015 C 
HETATM   19  C20 UNL     1      22.405   3.799  49.896  1.00  0.00     0.123 C 
HETATM   20  C24 UNL     1      22.592   5.025  52.004  1.00  0.00     0.042 C 
HETATM   21  N4  UNL     1      23.415   4.448  49.371  1.00  0.00    -0.284 NA
HETATM   22  C21 UNL     1      24.083   5.369  50.171  1.00  0.00     0.201 C 
HETATM   23  C22 UNL     1      25.079   6.308  49.764  1.00  0.00     0.145 C 
HETATM   24  C23 UNL     1      23.570   5.702  51.479  1.00  0.00     0.058 C 
HETATM   25  N5  UNL     1      25.267   7.054  50.773  1.00  0.00    -0.189 NA
HETATM   26  N6  UNL     1      24.452   6.768  51.860  1.00  0.00    -0.280 N 
HETATM   27  H20 UNL     1      24.434   7.212  52.811  1.00  0.00     0.189 HD
ENDBRANCH   5  17
BRANCH   1  28
HETATM   28  C4  UNL     1      21.257   0.323  52.667  1.00  0.00    -0.005 A 
HETATM   29  C3  UNL     1      22.624   0.245  52.517  1.00  0.00     0.017 A 
HETATM   30  C2  UNL     1      23.355  -0.360  53.520  1.00  0.00     0.043 A 
HETATM   31  C1  UNL     1      22.757  -0.884  54.664  1.00  0.00     0.116 A 
HETATM   32  F1  UNL     1      23.524  -1.467  55.617  1.00  0.00    -0.206 F 
HETATM   33  C26 UNL     1      21.382  -0.807  54.817  1.00  0.00     0.043 A 
HETATM   34  C25 UNL     1      20.672  -0.209  53.824  1.00  0.00     0.017 A 
ENDBRANCH   1  28
TORSDOF 5
ENDMDL
MODEL 9
REMARK VINA RESULT:      -8.2      2.950      4.887
REMARK  5 active torsions:
REMARK  status: ('A' for Active; 'I' for Inactive)
REMARK    1  A    between atoms: C4_5  and  C5_6 
REMARK    2  A    between atoms: N2_9  and  C7_10 
REMARK    3  A    between atoms: N3_13  and  C10_14 
REMARK    4  A    between atoms: C10_14  and  C11_15 
REMARK    5  A    between atoms: C17_21  and  C18_22 
ROOT
HETATM    1  C5  UNL     1      24.898   2.242  51.654  1.00  0.00     0.095 A 
HETATM    2  N1  UNL     1      25.614   1.322  52.360  1.00  0.00    -0.241 NA
HETATM    3  C6  UNL     1      24.751   0.635  53.146  1.00  0.00     0.212 A 
HETATM    4  N2  UNL     1      23.512   1.124  52.930  1.00  0.00    -0.308 N 
HETATM    5  C17 UNL     1      23.556   2.113  52.019  1.00  0.00     0.068 A 
ENDROOT
BRANCH   4   6
HETATM    6  C7  UNL     1      22.320   0.609  53.628  1.00  0.00     0.331 C 
HETATM    7  C8  UNL     1      22.646  -0.685  54.346  1.00  0.00     0.088 C 
HETATM    8  C9  UNL     1      22.257  -1.315  53.032  1.00  0.00     0.279 C 
HETATM    9  N3  UNL     1      21.442  -0.148  52.768  1.00  0.00     0.116 N 
BRANCH   9  10
HETATM   10  C10 UNL     1      20.137  -0.305  53.360  1.00  0.00     0.313 C 
BRANCH  10  11
HETATM   11  C11 UNL     1      19.046  -0.240  52.354  1.00  0.00    -0.030 A 
HETATM   12  C12 UNL     1      17.811  -0.828  52.420  1.00  0.00     0.009 A 
HETATM   13  C13 UNL     1      16.889  -0.675  51.400  1.00  0.00     0.001 A 
HETATM   14  C14 UNL     1      17.174   0.077  50.270  1.00  0.00     0.000 A 
HETATM   15  C15 UNL     1      18.404   0.695  50.146  1.00  0.00     0.001 A 
HETATM   16  C16 UNL     1      19.280   0.503  51.200  1.00  0.00     0.009 A 
ENDBRANCH  10  11
ENDBRANCH   9  10
ENDBRANCH   4   6
BRANCH   5  17
HETATM   17  C18 UNL     1      22.468   2.892  51.464  1.00  0.00     0.045 C 
HETATM   18  C19 UNL     1      21.803   2.855  50.333  1.00  0.00    -0.015 C 
HETATM   19  C20 UNL     1      21.994   1.933  49.232  1.00  0.00     0.123 C 
HETATM   20  C24 UNL     1      20.767   3.855  50.115  1.00  0.00     0.042 C 
HETATM   21  N4  UNL     1      21.341   1.974  48.096  1.00  0.00    -0.284 NA
HETATM   22  C21 UNL     1      20.418   2.999  47.914  1.00  0.00     0.201 C 
HETATM   23  C22 UNL     1      19.476   3.136  46.849  1.00  0.00     0.145 C 
HETATM   24  C23 UNL     1      20.087   3.881  49.008  1.00  0.00     0.058 C 
HETATM   25  N5  UNL     1      18.730   4.105  47.187  1.00  0.00    -0.189 NA
HETATM   26  N6  UNL     1      19.019   4.647  48.432  1.00  0.00    -0.280 N 
HETATM   27  H20 UNL     1      18.574   5.464  48.919  1.00  0.00     0.189 HD
ENDBRANCH   5  17
BRANCH   1  28
HETATM   28  C4  UNL     1      25.498   3.190  50.714  1.00  0.00    -0.005 A 
HETATM   29  C3  UNL     1      26.513   3.017  49.798  1.00  0.00     0.017 A 
HETATM   30  C2  UNL     1      26.878   4.097  49.020  1.00  0.00     0.043 A 
HETATM   31  C1  UNL     1      26.258   5.340  49.135  1.00  0.00     0.116 A 
HETATM   32  F1  UNL     1      26.658   6.366  48.345  1.00  0.00    -0.206 F 
HETATM   33  C26 UNL     1      25.238   5.517  50.056  1.00  0.00     0.043 A 
HETATM   34  C25 UNL     1      24.886   4.446  50.816  1.00  0.00     0.017 A 
ENDBRANCH   1  28
TORSDOF 5
ENDMDL
