MODEL 1
REMARK VINA RESULT:      -7.3      0.000      0.000
REMARK  7 active torsions:
REMARK  status: ('A' for Active; 'I' for Inactive)
REMARK    1  A    between atoms: C3_3  and  N1_4 
REMARK    2  A    between atoms: N1_4  and  C4_5 
REMARK    3  A    between atoms: C12_15  and  C13_16 
REMARK    4  A    between atoms: C13_16  and  C14_17 
REMARK    5  A    between atoms: C15_18  and  N3_19 
REMARK    6  A    between atoms: N3_19  and  C16_20 
REMARK    7  A    between atoms: C16_20  and  C17_21 
ROOT
HETATM    1  C1  UNL     1      23.132   1.186  52.204  1.00  0.00     0.028 C 
HETATM    2  C2  UNL     1      23.146   0.369  53.221  1.00  0.00     0.010 A 
HETATM    3  C3  UNL     1      21.942   0.053  53.814  1.00  0.00     0.045 A 
HETATM    4  C10 UNL     1      22.024  -0.820  54.883  1.00  0.00     0.049 A 
HETATM    5  C11 UNL     1      23.224  -1.338  55.326  1.00  0.00     0.119 A 
HETATM    6  N2  UNL     1      24.341  -0.965  54.678  1.00  0.00    -0.260 NA
HETATM    7  C12 UNL     1      24.366  -0.121  53.626  1.00  0.00     0.068 A 
ENDROOT
BRANCH   3   8
HETATM    8  N1  UNL     1      20.686   0.534  53.421  1.00  0.00    -0.355 N 
HETATM    9  H3  UNL     1      20.710   1.590  53.525  1.00  0.00     0.166 HD
BRANCH   8  10
HETATM   10  C4  UNL     1      19.495  -0.074  52.951  1.00  0.00     0.033 A 
HETATM   11  C5  UNL     1      18.932  -1.145  53.655  1.00  0.00     0.029 A 
HETATM   12  C6  UNL     1      17.776  -1.664  53.121  1.00  0.00     0.004 A 
HETATM   13  C7  UNL     1      17.121  -1.247  51.985  1.00  0.00     0.019 A 
HETATM   14  C8  UNL     1      17.718  -0.185  51.325  1.00  0.00     0.013 A 
HETATM   15 BR1  UNL     1      16.862   0.445  49.738  1.00  0.00    -0.051 Br
HETATM   16  C9  UNL     1      18.880   0.385  51.804  1.00  0.00     0.048 A 
ENDBRANCH   8  10
ENDBRANCH   3   8
BRANCH   7  17
HETATM   17  C13 UNL     1      25.518   0.189  53.053  1.00  0.00     0.034 C 
BRANCH  17  18
HETATM   18  C14 UNL     1      26.327  -0.861  52.445  1.00  0.00     0.019 C 
HETATM   19  C15 UNL     1      27.485  -1.214  52.977  1.00  0.00     0.083 C 
BRANCH  19  20
HETATM   20  N3  UNL     1      28.018  -0.620  54.148  1.00  0.00    -0.399 N 
HETATM   21  H13 UNL     1      27.588  -0.622  55.102  1.00  0.00     0.158 HD
BRANCH  20  22
HETATM   22  C16 UNL     1      29.293   0.041  53.919  1.00  0.00     0.118 C 
BRANCH  22  23
HETATM   23  C17 UNL     1      29.252   1.451  54.453  1.00  0.00     0.015 C 
HETATM   24  C18 UNL     1      28.549   2.401  53.536  1.00  0.00     0.006 C 
ENDBRANCH  22  23
ENDBRANCH  20  22
ENDBRANCH  19  20
ENDBRANCH  17  18
ENDBRANCH   7  17
TORSDOF 7
ENDMDL
MODEL 2
REMARK VINA RESULT:      -7.2      1.940      2.772
REMARK  7 active torsions:
REMARK  status: ('A' for Active; 'I' for Inactive)
REMARK    1  A    between atoms: C3_3  and  N1_4 
REMARK    2  A    between atoms: N1_4  and  C4_5 
REMARK    3  A    between atoms: C12_15  and  C13_16 
REMARK    4  A    between atoms: C13_16  and  C14_17 
REMARK    5  A    between atoms: C15_18  and  N3_19 
REMARK    6  A    between atoms: N3_19  and  C16_20 
REMARK    7  A    between atoms: C16_20  and  C17_21 
ROOT
HETATM    1  C1  UNL     1      22.238  -1.440  54.799  1.00  0.00     0.028 C 
HETATM    2  C2  UNL     1      22.132  -0.542  53.858  1.00  0.00     0.010 A 
HETATM    3  C3  UNL     1      20.867  -0.150  53.477  1.00  0.00     0.045 A 
HETATM    4  C10 UNL     1      20.823   0.807  52.480  1.00  0.00     0.049 A 
HETATM    5  C11 UNL     1      21.963   1.332  51.907  1.00  0.00     0.119 A 
HETATM    6  N2  UNL     1      23.148   0.881  52.351  1.00  0.00    -0.260 NA
HETATM    7  C12 UNL     1      23.297  -0.048  53.317  1.00  0.00     0.068 A 
ENDROOT
BRANCH   3   8
HETATM    8  N1  UNL     1      19.665  -0.633  54.012  1.00  0.00    -0.355 N 
HETATM    9  H3  UNL     1      19.721  -0.510  55.066  1.00  0.00     0.166 HD
BRANCH   8  10
HETATM   10  C4  UNL     1      18.493  -1.204  53.458  1.00  0.00     0.033 A 
HETATM   11  C5  UNL     1      17.705  -0.462  52.570  1.00  0.00     0.029 A 
HETATM   12  C6  UNL     1      16.591  -1.106  52.086  1.00  0.00     0.004 A 
HETATM   13  C7  UNL     1      16.173  -2.384  52.375  1.00  0.00     0.019 A 
HETATM   14  C8  UNL     1      16.987  -3.076  53.258  1.00  0.00     0.013 A 
HETATM   15 BR1  UNL     1      16.465  -4.859  53.706  1.00  0.00    -0.051 Br
HETATM   16  C9  UNL     1      18.121  -2.493  53.785  1.00  0.00     0.048 A 
ENDBRANCH   8  10
ENDBRANCH   3   8
BRANCH   7  17
HETATM   17  C13 UNL     1      24.509  -0.431  53.687  1.00  0.00     0.034 C 
BRANCH  17  18
HETATM   18  C14 UNL     1      25.583  -0.480  52.703  1.00  0.00     0.019 C 
HETATM   19  C15 UNL     1      26.760   0.064  52.962  1.00  0.00     0.083 C 
BRANCH  19  20
HETATM   20  N3  UNL     1      27.065   0.719  54.181  1.00  0.00    -0.399 N 
HETATM   21  H13 UNL     1      26.505   1.474  54.642  1.00  0.00     0.158 HD
BRANCH  20  22
HETATM   22  C16 UNL     1      28.296   0.241  54.790  1.00  0.00     0.118 C 
BRANCH  22  23
HETATM   23  C17 UNL     1      29.398   0.185  53.763  1.00  0.00     0.015 C 
HETATM   24  C18 UNL     1      30.096  -1.137  53.726  1.00  0.00     0.006 C 
ENDBRANCH  22  23
ENDBRANCH  20  22
ENDBRANCH  19  20
ENDBRANCH  17  18
ENDBRANCH   7  17
TORSDOF 7
ENDMDL
MODEL 3
REMARK VINA RESULT:      -7.2      5.237      7.924
REMARK  7 active torsions:
REMARK  status: ('A' for Active; 'I' for Inactive)
REMARK    1  A    between atoms: C3_3  and  N1_4 
REMARK    2  A    between atoms: N1_4  and  C4_5 
REMARK    3  A    between atoms: C12_15  and  C13_16 
REMARK    4  A    between atoms: C13_16  and  C14_17 
REMARK    5  A    between atoms: C15_18  and  N3_19 
REMARK    6  A    between atoms: N3_19  and  C16_20 
REMARK    7  A    between atoms: C16_20  and  C17_21 
ROOT
HETATM    1  C1  UNL     1      26.706   2.129  51.245  1.00  0.00     0.028 C 
HETATM    2  C2  UNL     1      25.587   2.758  51.477  1.00  0.00     0.010 A 
HETATM    3  C3  UNL     1      25.142   3.659  50.534  1.00  0.00     0.045 A 
HETATM    4  C10 UNL     1      23.949   4.288  50.837  1.00  0.00     0.049 A 
HETATM    5  C11 UNL     1      23.252   4.033  52.000  1.00  0.00     0.119 A 
HETATM    6  N2  UNL     1      23.773   3.135  52.854  1.00  0.00    -0.260 NA
HETATM    7  C12 UNL     1      24.928   2.470  52.651  1.00  0.00     0.068 A 
ENDROOT
BRANCH   3   8
HETATM    8  N1  UNL     1      25.790   3.969  49.330  1.00  0.00    -0.355 N 
HETATM    9  H3  UNL     1      25.578   3.182  48.650  1.00  0.00     0.166 HD
BRANCH   8  10
HETATM   10  C4  UNL     1      26.604   5.043  48.891  1.00  0.00     0.033 A 
HETATM   11  C5  UNL     1      26.044   6.311  48.700  1.00  0.00     0.029 A 
HETATM   12  C6  UNL     1      26.916   7.287  48.275  1.00  0.00     0.004 A 
HETATM   13  C7  UNL     1      28.261   7.151  48.023  1.00  0.00     0.019 A 
HETATM   14  C8  UNL     1      28.766   5.876  48.227  1.00  0.00     0.013 A 
HETATM   15 BR1  UNL     1      30.629   5.616  47.894  1.00  0.00    -0.051 Br
HETATM   16  C9  UNL     1      27.949   4.849  48.652  1.00  0.00     0.048 A 
ENDBRANCH   8  10
ENDBRANCH   3   8
BRANCH   7  17
HETATM   17  C13 UNL     1      25.362   1.604  53.553  1.00  0.00     0.034 C 
BRANCH  17  18
HETATM   18  C14 UNL     1      24.790   0.264  53.602  1.00  0.00     0.019 C 
HETATM   19  C15 UNL     1      25.542  -0.779  53.909  1.00  0.00     0.083 C 
BRANCH  19  20
HETATM   20  N3  UNL     1      26.924  -0.684  54.206  1.00  0.00    -0.399 N 
HETATM   21  H13 UNL     1      27.350  -0.317  55.090  1.00  0.00     0.158 HD
BRANCH  20  22
HETATM   22  C16 UNL     1      27.772  -1.160  53.125  1.00  0.00     0.118 C 
BRANCH  22  23
HETATM   23  C17 UNL     1      29.207  -0.771  53.379  1.00  0.00     0.015 C 
HETATM   24  C18 UNL     1      29.357   0.652  53.817  1.00  0.00     0.006 C 
ENDBRANCH  22  23
ENDBRANCH  20  22
ENDBRANCH  19  20
ENDBRANCH  17  18
ENDBRANCH   7  17
TORSDOF 7
ENDMDL
MODEL 4
REMARK VINA RESULT:      -7.1      4.449      6.568
REMARK  7 active torsions:
REMARK  status: ('A' for Active; 'I' for Inactive)
REMARK    1  A    between atoms: C3_3  and  N1_4 
REMARK    2  A    between atoms: N1_4  and  C4_5 
REMARK    3  A    between atoms: C12_15  and  C13_16 
REMARK    4  A    between atoms: C13_16  and  C14_17 
REMARK    5  A    between atoms: C15_18  and  N3_19 
REMARK    6  A    between atoms: N3_19  and  C16_20 
REMARK    7  A    between atoms: C16_20  and  C17_21 
ROOT
HETATM    1  C1  UNL     1      26.429   1.484  51.331  1.00  0.00     0.028 C 
HETATM    2  C2  UNL     1      25.155   1.430  51.604  1.00  0.00     0.010 A 
HETATM    3  C3  UNL     1      24.314   2.304  50.948  1.00  0.00     0.045 A 
HETATM    4  C10 UNL     1      22.976   2.194  51.278  1.00  0.00     0.049 A 
HETATM    5  C11 UNL     1      22.514   1.275  52.198  1.00  0.00     0.119 A 
HETATM    6  N2  UNL     1      23.418   0.469  52.781  1.00  0.00    -0.260 NA
HETATM    7  C12 UNL     1      24.742   0.498  52.528  1.00  0.00     0.068 A 
ENDROOT
BRANCH   3   8
HETATM    8  N1  UNL     1      24.706   3.261  50.002  1.00  0.00    -0.355 N 
HETATM    9  H3  UNL     1      24.761   2.767  49.064  1.00  0.00     0.166 HD
BRANCH   8  10
HETATM   10  C4  UNL     1      25.016   4.643  50.059  1.00  0.00     0.033 A 
HETATM   11  C5  UNL     1      24.285   5.489  50.901  1.00  0.00     0.029 A 
HETATM   12  C6  UNL     1      24.665   6.811  50.888  1.00  0.00     0.004 A 
HETATM   13  C7  UNL     1      25.673   7.382  50.147  1.00  0.00     0.019 A 
HETATM   14  C8  UNL     1      26.366   6.503  49.330  1.00  0.00     0.013 A 
HETATM   15 BR1  UNL     1      27.780   7.230  48.271  1.00  0.00    -0.051 Br
HETATM   16  C9  UNL     1      26.039   5.162  49.292  1.00  0.00     0.048 A 
ENDBRANCH   8  10
ENDBRANCH   3   8
BRANCH   7  17
HETATM   17  C13 UNL     1      25.555  -0.337  53.155  1.00  0.00     0.034 C 
BRANCH  17  18
HETATM   18  C14 UNL     1      25.532  -0.411  54.611  1.00  0.00     0.019 C 
HETATM   19  C15 UNL     1      26.464   0.189  55.332  1.00  0.00     0.083 C 
BRANCH  19  20
HETATM   20  N3  UNL     1      27.530   0.931  54.765  1.00  0.00    -0.399 N 
HETATM   21  H13 UNL     1      27.461   1.863  54.291  1.00  0.00     0.158 HD
BRANCH  20  22
HETATM   22  C16 UNL     1      28.816   0.265  54.892  1.00  0.00     0.118 C 
BRANCH  22  23
HETATM   23  C17 UNL     1      29.327  -0.143  53.534  1.00  0.00     0.015 C 
HETATM   24  C18 UNL     1      29.431  -1.626  53.371  1.00  0.00     0.006 C 
ENDBRANCH  22  23
ENDBRANCH  20  22
ENDBRANCH  19  20
ENDBRANCH  17  18
ENDBRANCH   7  17
TORSDOF 7
ENDMDL
MODEL 5
REMARK VINA RESULT:      -7.0      4.595      7.136
REMARK  7 active torsions:
REMARK  status: ('A' for Active; 'I' for Inactive)
REMARK    1  A    between atoms: C3_3  and  N1_4 
REMARK    2  A    between atoms: N1_4  and  C4_5 
REMARK    3  A    between atoms: C12_15  and  C13_16 
REMARK    4  A    between atoms: C13_16  and  C14_17 
REMARK    5  A    between atoms: C15_18  and  N3_19 
REMARK    6  A    between atoms: N3_19  and  C16_20 
REMARK    7  A    between atoms: C16_20  and  C17_21 
ROOT
HETATM    1  C1  UNL     1      24.938   3.044  53.153  1.00  0.00     0.028 C 
HETATM    2  C2  UNL     1      24.153   2.623  52.200  1.00  0.00     0.010 A 
HETATM    3  C3  UNL     1      24.021   3.408  51.075  1.00  0.00     0.045 A 
HETATM    4  C10 UNL     1      23.179   2.905  50.101  1.00  0.00     0.049 A 
HETATM    5  C11 UNL     1      22.517   1.703  50.244  1.00  0.00     0.119 A 
HETATM    6  N2  UNL     1      22.714   1.015  51.381  1.00  0.00    -0.260 NA
HETATM    7  C12 UNL     1      23.514   1.419  52.389  1.00  0.00     0.068 A 
ENDROOT
BRANCH   3   8
HETATM    8  N1  UNL     1      24.662   4.636  50.855  1.00  0.00    -0.355 N 
HETATM    9  H3  UNL     1      24.215   5.342  51.510  1.00  0.00     0.166 HD
BRANCH   8  10
HETATM   10  C4  UNL     1      25.702   5.071  49.997  1.00  0.00     0.033 A 
HETATM   11  C5  UNL     1      26.637   4.150  49.510  1.00  0.00     0.029 A 
HETATM   12  C6  UNL     1      27.606   4.670  48.682  1.00  0.00     0.004 A 
HETATM   13  C7  UNL     1      27.750   5.980  48.288  1.00  0.00     0.019 A 
HETATM   14  C8  UNL     1      26.800   6.850  48.797  1.00  0.00     0.013 A 
HETATM   15 BR1  UNL     1      26.942   8.687  48.290  1.00  0.00    -0.051 Br
HETATM   16  C9  UNL     1      25.800   6.398  49.633  1.00  0.00     0.048 A 
ENDBRANCH   8  10
ENDBRANCH   3   8
BRANCH   7  17
HETATM   17  C13 UNL     1      23.643   0.671  53.473  1.00  0.00     0.034 C 
BRANCH  17  18
HETATM   18  C14 UNL     1      24.249  -0.651  53.370  1.00  0.00     0.019 C 
HETATM   19  C15 UNL     1      25.463  -0.876  53.843  1.00  0.00     0.083 C 
BRANCH  19  20
HETATM   20  N3  UNL     1      26.252   0.121  54.470  1.00  0.00    -0.399 N 
HETATM   21  H13 UNL     1      26.030   0.627  55.359  1.00  0.00     0.158 HD
BRANCH  20  22
HETATM   22  C16 UNL     1      27.477   0.416  53.743  1.00  0.00     0.118 C 
BRANCH  22  23
HETATM   23  C17 UNL     1      28.676  -0.014  54.548  1.00  0.00     0.015 C 
HETATM   24  C18 UNL     1      29.675  -0.782  53.742  1.00  0.00     0.006 C 
ENDBRANCH  22  23
ENDBRANCH  20  22
ENDBRANCH  19  20
ENDBRANCH  17  18
ENDBRANCH   7  17
TORSDOF 7
ENDMDL
MODEL 6
REMARK VINA RESULT:      -6.8      1.358      1.999
REMARK  7 active torsions:
REMARK  status: ('A' for Active; 'I' for Inactive)
REMARK    1  A    between atoms: C3_3  and  N1_4 
REMARK    2  A    between atoms: N1_4  and  C4_5 
REMARK    3  A    between atoms: C12_15  and  C13_16 
REMARK    4  A    between atoms: C13_16  and  C14_17 
REMARK    5  A    between atoms: C15_18  and  N3_19 
REMARK    6  A    between atoms: N3_19  and  C16_20 
REMARK    7  A    between atoms: C16_20  and  C17_21 
ROOT
HETATM    1  C1  UNL     1      22.750   1.535  51.893  1.00  0.00     0.028 C 
HETATM    2  C2  UNL     1      22.732   0.681  52.879  1.00  0.00     0.010 A 
HETATM    3  C3  UNL     1      21.518   0.391  53.463  1.00  0.00     0.045 A 
HETATM    4  C10 UNL     1      21.566  -0.525  54.498  1.00  0.00     0.049 A 
HETATM    5  C11 UNL     1      22.744  -1.107  54.917  1.00  0.00     0.119 A 
HETATM    6  N2  UNL     1      23.874  -0.755  54.280  1.00  0.00    -0.260 NA
HETATM    7  C12 UNL     1      23.932   0.127  53.261  1.00  0.00     0.068 A 
ENDROOT
BRANCH   3   8
HETATM    8  N1  UNL     1      20.281   0.937  53.093  1.00  0.00    -0.355 N 
HETATM    9  H3  UNL     1      20.155   1.831  53.651  1.00  0.00     0.166 HD
BRANCH   8  10
HETATM   10  C4  UNL     1      19.258   0.551  52.191  1.00  0.00     0.033 A 
HETATM   11  C5  UNL     1      19.260   1.041  50.880  1.00  0.00     0.029 A 
HETATM   12  C6  UNL     1      18.227   0.606  50.083  1.00  0.00     0.004 A 
HETATM   13  C7  UNL     1      17.207  -0.249  50.431  1.00  0.00     0.019 A 
HETATM   14  C8  UNL     1      17.251  -0.706  51.738  1.00  0.00     0.013 A 
HETATM   15 BR1  UNL     1      15.863  -1.897  52.290  1.00  0.00    -0.051 Br
HETATM   16  C9  UNL     1      18.258  -0.310  52.595  1.00  0.00     0.048 A 
ENDBRANCH   8  10
ENDBRANCH   3   8
BRANCH   7  17
HETATM   17  C13 UNL     1      25.095   0.411  52.697  1.00  0.00     0.034 C 
BRANCH  17  18
HETATM   18  C14 UNL     1      25.804   1.627  53.077  1.00  0.00     0.019 C 
HETATM   19  C15 UNL     1      26.650   1.624  54.093  1.00  0.00     0.083 C 
BRANCH  19  20
HETATM   20  N3  UNL     1      26.928   0.474  54.873  1.00  0.00    -0.399 N 
HETATM   21  H13 UNL     1      26.228  -0.148  55.341  1.00  0.00     0.158 HD
BRANCH  20  22
HETATM   22  C16 UNL     1      28.351   0.198  54.991  1.00  0.00     0.118 C 
BRANCH  22  23
HETATM   23  C17 UNL     1      28.791  -0.740  53.897  1.00  0.00     0.015 C 
HETATM   24  C18 UNL     1      30.132  -0.393  53.334  1.00  0.00     0.006 C 
ENDBRANCH  22  23
ENDBRANCH  20  22
ENDBRANCH  19  20
ENDBRANCH  17  18
ENDBRANCH   7  17
TORSDOF 7
ENDMDL
MODEL 7
REMARK VINA RESULT:      -6.8      4.283      8.054
REMARK  7 active torsions:
REMARK  status: ('A' for Active; 'I' for Inactive)
REMARK    1  A    between atoms: C3_3  and  N1_4 
REMARK    2  A    between atoms: N1_4  and  C4_5 
REMARK    3  A    between atoms: C12_15  and  C13_16 
REMARK    4  A    between atoms: C13_16  and  C14_17 
REMARK    5  A    between atoms: C15_18  and  N3_19 
REMARK    6  A    between atoms: N3_19  and  C16_20 
REMARK    7  A    between atoms: C16_20  and  C17_21 
ROOT
HETATM    1  C1  UNL     1      23.729   4.300  52.856  1.00  0.00     0.028 C 
HETATM    2  C2  UNL     1      23.832   4.154  51.564  1.00  0.00     0.010 A 
HETATM    3  C3  UNL     1      24.945   3.510  51.071  1.00  0.00     0.045 A 
HETATM    4  C10 UNL     1      24.992   3.383  49.695  1.00  0.00     0.049 A 
HETATM    5  C11 UNL     1      23.995   3.869  48.873  1.00  0.00     0.119 A 
HETATM    6  N2  UNL     1      22.951   4.483  49.456  1.00  0.00    -0.260 NA
HETATM    7  C12 UNL     1      22.813   4.655  50.786  1.00  0.00     0.068 A 
ENDROOT
BRANCH   3   8
HETATM    8  N1  UNL     1      25.995   2.988  51.839  1.00  0.00    -0.355 N 
HETATM    9  H3  UNL     1      26.618   3.803  52.111  1.00  0.00     0.166 HD
BRANCH   8  10
HETATM   10  C4  UNL     1      26.348   1.688  52.282  1.00  0.00     0.033 A 
HETATM   11  C5  UNL     1      25.384   0.674  52.314  1.00  0.00     0.029 A 
HETATM   12  C6  UNL     1      25.826  -0.551  52.756  1.00  0.00     0.004 A 
HETATM   13  C7  UNL     1      27.097  -0.882  53.163  1.00  0.00     0.019 A 
HETATM   14  C8  UNL     1      28.014   0.157  53.113  1.00  0.00     0.013 A 
HETATM   15 BR1  UNL     1      29.801  -0.233  53.666  1.00  0.00    -0.051 Br
HETATM   16  C9  UNL     1      27.640   1.412  52.680  1.00  0.00     0.048 A 
ENDBRANCH   8  10
ENDBRANCH   3   8
BRANCH   7  17
HETATM   17  C13 UNL     1      21.747   5.274  51.266  1.00  0.00     0.034 C 
BRANCH  17  18
HETATM   18  C14 UNL     1      20.417   4.865  50.833  1.00  0.00     0.019 C 
HETATM   19  C15 UNL     1      19.771   3.896  51.461  1.00  0.00     0.083 C 
BRANCH  19  20
HETATM   20  N3  UNL     1      20.305   3.197  52.573  1.00  0.00    -0.399 N 
HETATM   21  H13 UNL     1      20.716   3.619  53.438  1.00  0.00     0.158 HD
BRANCH  20  22
HETATM   22  C16 UNL     1      20.240   1.752  52.420  1.00  0.00     0.118 C 
BRANCH  22  23
HETATM   23  C17 UNL     1      21.615   1.195  52.153  1.00  0.00     0.015 C 
HETATM   24  C18 UNL     1      21.889   0.992  50.697  1.00  0.00     0.006 C 
ENDBRANCH  22  23
ENDBRANCH  20  22
ENDBRANCH  19  20
ENDBRANCH  17  18
ENDBRANCH   7  17
TORSDOF 7
ENDMDL
MODEL 8
REMARK VINA RESULT:      -6.8      5.805      7.759
REMARK  7 active torsions:
REMARK  status: ('A' for Active; 'I' for Inactive)
REMARK    1  A    between atoms: C3_3  and  N1_4 
REMARK    2  A    between atoms: N1_4  and  C4_5 
REMARK    3  A    between atoms: C12_15  and  C13_16 
REMARK    4  A    between atoms: C13_16  and  C14_17 
REMARK    5  A    between atoms: C15_18  and  N3_19 
REMARK    6  A    between atoms: N3_19  and  C16_20 
REMARK    7  A    between atoms: C16_20  and  C17_21 
ROOT
HETATM    1  C1  UNL     1      26.290   3.106  49.521  1.00  0.00     0.028 C 
HETATM    2  C2  UNL     1      25.450   3.881  50.151  1.00  0.00     0.010 A 
HETATM    3  C3  UNL     1      24.546   3.293  51.009  1.00  0.00     0.045 A 
HETATM    4  C10 UNL     1      23.688   4.168  51.650  1.00  0.00     0.049 A 
HETATM    5  C11 UNL     1      23.733   5.532  51.444  1.00  0.00     0.119 A 
HETATM    6  N2  UNL     1      24.653   6.003  50.586  1.00  0.00    -0.260 NA
HETATM    7  C12 UNL     1      25.534   5.234  49.914  1.00  0.00     0.068 A 
ENDROOT
BRANCH   3   8
HETATM    8  N1  UNL     1      24.441   1.921  51.272  1.00  0.00    -0.355 N 
HETATM    9  H3  UNL     1      23.947   1.481  50.441  1.00  0.00     0.166 HD
BRANCH   8  10
HETATM   10  C4  UNL     1      24.837   1.084  52.346  1.00  0.00     0.033 A 
HETATM   11  C5  UNL     1      23.883   0.310  53.017  1.00  0.00     0.029 A 
HETATM   12  C6  UNL     1      24.367  -0.470  54.041  1.00  0.00     0.004 A 
HETATM   13  C7  UNL     1      25.670  -0.570  54.470  1.00  0.00     0.019 A 
HETATM   14  C8  UNL     1      26.575   0.216  53.774  1.00  0.00     0.013 A 
HETATM   15 BR1  UNL     1      28.404   0.127  54.318  1.00  0.00    -0.051 Br
HETATM   16  C9  UNL     1      26.160   1.023  52.734  1.00  0.00     0.048 A 
ENDBRANCH   8  10
ENDBRANCH   3   8
BRANCH   7  17
HETATM   17  C13 UNL     1      26.404   5.791  49.087  1.00  0.00     0.034 C 
BRANCH  17  18
HETATM   18  C14 UNL     1      26.187   7.156  48.623  1.00  0.00     0.019 C 
HETATM   19  C15 UNL     1      27.144   8.063  48.726  1.00  0.00     0.083 C 
BRANCH  19  20
HETATM   20  N3  UNL     1      28.419   7.792  49.281  1.00  0.00    -0.399 N 
HETATM   21  H13 UNL     1      28.618   7.418  50.238  1.00  0.00     0.158 HD
BRANCH  20  22
HETATM   22  C16 UNL     1      29.511   8.089  48.367  1.00  0.00     0.118 C 
BRANCH  22  23
HETATM   23  C17 UNL     1      29.673   6.971  47.369  1.00  0.00     0.015 C 
HETATM   24  C18 UNL     1      29.934   5.647  48.013  1.00  0.00     0.006 C 
ENDBRANCH  22  23
ENDBRANCH  20  22
ENDBRANCH  19  20
ENDBRANCH  17  18
ENDBRANCH   7  17
TORSDOF 7
ENDMDL
MODEL 9
REMARK VINA RESULT:      -6.8      5.352      7.300
REMARK  7 active torsions:
REMARK  status: ('A' for Active; 'I' for Inactive)
REMARK    1  A    between atoms: C3_3  and  N1_4 
REMARK    2  A    between atoms: N1_4  and  C4_5 
REMARK    3  A    between atoms: C12_15  and  C13_16 
REMARK    4  A    between atoms: C13_16  and  C14_17 
REMARK    5  A    between atoms: C15_18  and  N3_19 
REMARK    6  A    between atoms: N3_19  and  C16_20 
REMARK    7  A    between atoms: C16_20  and  C17_21 
ROOT
HETATM    1  C1  UNL     1      25.986   3.713  49.631  1.00  0.00     0.028 C 
HETATM    2  C2  UNL     1      25.052   4.242  50.373  1.00  0.00     0.010 A 
HETATM    3  C3  UNL     1      24.269   3.397  51.129  1.00  0.00     0.045 A 
HETATM    4  C10 UNL     1      23.301   4.020  51.897  1.00  0.00     0.049 A 
HETATM    5  C11 UNL     1      23.132   5.389  51.905  1.00  0.00     0.119 A 
HETATM    6  N2  UNL     1      23.950   6.123  51.131  1.00  0.00    -0.260 NA
HETATM    7  C12 UNL     1      24.922   5.612  50.349  1.00  0.00     0.068 A 
ENDROOT
BRANCH   3   8
HETATM    8  N1  UNL     1      24.381   2.001  51.176  1.00  0.00    -0.355 N 
HETATM    9  H3  UNL     1      24.364   1.653  50.173  1.00  0.00     0.166 HD
BRANCH   8  10
HETATM   10  C4  UNL     1      24.503   1.051  52.221  1.00  0.00     0.033 A 
HETATM   11  C5  UNL     1      25.770   0.695  52.698  1.00  0.00     0.029 A 
HETATM   12  C6  UNL     1      25.782  -0.232  53.714  1.00  0.00     0.004 A 
HETATM   13  C7  UNL     1      24.697  -0.837  54.304  1.00  0.00     0.019 A 
HETATM   14  C8  UNL     1      23.466  -0.451  53.796  1.00  0.00     0.013 A 
HETATM   15 BR1  UNL     1      21.915  -1.254  54.570  1.00  0.00    -0.051 Br
HETATM   16  C9  UNL     1      23.379   0.474  52.776  1.00  0.00     0.048 A 
ENDBRANCH   8  10
ENDBRANCH   3   8
BRANCH   7  17
HETATM   17  C13 UNL     1      25.677   6.417  49.619  1.00  0.00     0.034 C 
BRANCH  17  18
HETATM   18  C14 UNL     1      25.635   7.855  49.853  1.00  0.00     0.019 C 
HETATM   19  C15 UNL     1      26.743   8.576  49.827  1.00  0.00     0.083 C 
BRANCH  19  20
HETATM   20  N3  UNL     1      28.025   8.025  49.579  1.00  0.00    -0.399 N 
HETATM   21  H13 UNL     1      28.589   7.434  50.233  1.00  0.00     0.158 HD
BRANCH  20  22
HETATM   22  C16 UNL     1      28.543   8.361  48.262  1.00  0.00     0.118 C 
BRANCH  22  23
HETATM   23  C17 UNL     1      28.556   7.138  47.380  1.00  0.00     0.015 C 
HETATM   24  C18 UNL     1      29.024   5.910  48.093  1.00  0.00     0.006 C 
ENDBRANCH  22  23
ENDBRANCH  20  22
ENDBRANCH  19  20
ENDBRANCH  17  18
ENDBRANCH   7  17
TORSDOF 7
ENDMDL
