MODEL 1
REMARK VINA RESULT:      -7.4      0.000      0.000
REMARK  9 active torsions:
REMARK  status: ('A' for Active; 'I' for Inactive)
REMARK    1  A    between atoms: O1_2  and  C2_3 
REMARK    2  A    between atoms: C5_6  and  C6_7 
REMARK    3  A    between atoms: C9_12  and  C10_13 
REMARK    4  A    between atoms: C10_13  and  C14_18 
REMARK    5  A    between atoms: C11_14  and  C12_15 
REMARK    6  A    between atoms: C12_15  and  C13_16 
REMARK    7  A    between atoms: C13_16  and  O2_17 
REMARK    8  A    between atoms: C14_18  and  N3_19 
REMARK    9  A    between atoms: C17_22  and  O3_23 
ROOT
HETATM    1  C6  UNL     1      23.324  -0.484  53.454  1.00  0.00     0.051 A 
HETATM    2  N1  UNL     1      23.409  -0.886  54.659  1.00  0.00    -0.245 NA
HETATM    3  C7  UNL     1      24.639  -1.195  55.309  1.00  0.00     0.233 A 
HETATM    4  N2  UNL     1      25.754  -1.072  54.673  1.00  0.00    -0.246 NA
HETATM    5  C8  UNL     1      25.760  -0.629  53.324  1.00  0.00     0.042 A 
HETATM    6  C9  UNL     1      26.928  -0.512  52.695  1.00  0.00     0.036 C 
HETATM    7  C15 UNL     1      24.519  -0.294  52.595  1.00  0.00     0.119 A 
ENDROOT
BRANCH   6   8
HETATM    8  C10 UNL     1      28.215  -0.811  53.300  1.00  0.00    -0.032 C 
HETATM    9  C11 UNL     1      28.816   0.041  54.114  1.00  0.00    -0.016 C 
BRANCH   9  10
HETATM   10  C12 UNL     1      28.421   1.387  54.600  1.00  0.00     0.054 C 
BRANCH  10  11
HETATM   11  C13 UNL     1      29.027   2.456  53.681  1.00  0.00     0.168 C 
BRANCH  11  12
HETATM   12  O2  UNL     1      28.110   2.746  52.668  1.00  0.00    -0.401 OA
HETATM   13  H13 UNL     1      27.434   2.043  52.655  1.00  0.00     0.209 HD
ENDBRANCH  11  12
ENDBRANCH  10  11
ENDBRANCH   9  10
BRANCH   8  14
HETATM   14  C14 UNL     1      28.932  -2.078  53.048  1.00  0.00     0.304 C 
BRANCH  14  15
HETATM   15  N3  UNL     1      28.005  -3.216  53.054  1.00  0.00     0.082 N 
HETATM   16  H16 UNL     1      28.247  -3.852  52.269  1.00  0.00     0.313 HD
HETATM   17  H17 UNL     1      28.156  -3.744  53.940  1.00  0.00     0.313 HD
ENDBRANCH  14  15
ENDBRANCH   8  14
ENDBRANCH   6   8
BRANCH   1  18
HETATM   18  C5  UNL     1      22.013  -0.193  52.875  1.00  0.00    -0.008 A 
HETATM   19  C4  UNL     1      21.839   0.533  51.715  1.00  0.00     0.016 A 
HETATM   20  C3  UNL     1      20.610   0.814  51.159  1.00  0.00     0.040 A 
HETATM   21  C2  UNL     1      19.477   0.333  51.815  1.00  0.00     0.101 A 
HETATM   22  C17 UNL     1      19.586  -0.405  52.989  1.00  0.00     0.102 A 
HETATM   23  C16 UNL     1      20.851  -0.645  53.482  1.00  0.00     0.053 A 
BRANCH  21  24
HETATM   24  O1  UNL     1      18.222   0.576  51.316  1.00  0.00    -0.353 OA
HETATM   25  C1  UNL     1      17.670  -0.067  50.204  1.00  0.00     0.210 C 
ENDBRANCH  21  24
BRANCH  22  26
HETATM   26  O3  UNL     1      18.429  -0.861  53.602  1.00  0.00    -0.353 OA
HETATM   27  C18 UNL     1      18.173  -2.262  53.632  1.00  0.00     0.210 C 
ENDBRANCH  22  26
ENDBRANCH   1  18
TORSDOF 9
ENDMDL
MODEL 2
REMARK VINA RESULT:      -7.4      0.855      1.963
REMARK  9 active torsions:
REMARK  status: ('A' for Active; 'I' for Inactive)
REMARK    1  A    between atoms: O1_2  and  C2_3 
REMARK    2  A    between atoms: C5_6  and  C6_7 
REMARK    3  A    between atoms: C9_12  and  C10_13 
REMARK    4  A    between atoms: C10_13  and  C14_18 
REMARK    5  A    between atoms: C11_14  and  C12_15 
REMARK    6  A    between atoms: C12_15  and  C13_16 
REMARK    7  A    between atoms: C13_16  and  O2_17 
REMARK    8  A    between atoms: C14_18  and  N3_19 
REMARK    9  A    between atoms: C17_22  and  O3_23 
ROOT
HETATM    1  C6  UNL     1      23.526  -0.488  53.585  1.00  0.00     0.051 A 
HETATM    2  N1  UNL     1      23.635  -0.852  54.800  1.00  0.00    -0.245 NA
HETATM    3  C7  UNL     1      24.880  -1.128  55.438  1.00  0.00     0.233 A 
HETATM    4  N2  UNL     1      25.982  -1.015  54.780  1.00  0.00    -0.246 NA
HETATM    5  C8  UNL     1      25.960  -0.614  53.418  1.00  0.00     0.042 A 
HETATM    6  C9  UNL     1      27.117  -0.506  52.765  1.00  0.00     0.036 C 
HETATM    7  C15 UNL     1      24.704  -0.313  52.700  1.00  0.00     0.119 A 
ENDROOT
BRANCH   6   8
HETATM    8  C10 UNL     1      28.417  -0.774  53.358  1.00  0.00    -0.032 C 
HETATM    9  C11 UNL     1      29.018   0.104  54.142  1.00  0.00    -0.016 C 
BRANCH   9  10
HETATM   10  C12 UNL     1      28.613   1.456  54.603  1.00  0.00     0.054 C 
BRANCH  10  11
HETATM   11  C13 UNL     1      29.156   2.509  53.628  1.00  0.00     0.168 C 
BRANCH  11  12
HETATM   12  O2  UNL     1      28.159   2.815  52.700  1.00  0.00    -0.401 OA
HETATM   13  H13 UNL     1      28.585   3.046  51.855  1.00  0.00     0.209 HD
ENDBRANCH  11  12
ENDBRANCH  10  11
ENDBRANCH   9  10
BRANCH   8  14
HETATM   14  C14 UNL     1      29.146  -2.036  53.123  1.00  0.00     0.304 C 
BRANCH  14  15
HETATM   15  N3  UNL     1      28.226  -3.179  53.094  1.00  0.00     0.082 N 
HETATM   16  H16 UNL     1      27.352  -2.897  52.609  1.00  0.00     0.313 HD
HETATM   17  H17 UNL     1      28.670  -3.931  52.524  1.00  0.00     0.313 HD
ENDBRANCH  14  15
ENDBRANCH   8  14
ENDBRANCH   6   8
BRANCH   1  18
HETATM   18  C5  UNL     1      22.202  -0.228  53.020  1.00  0.00    -0.008 A 
HETATM   19  C4  UNL     1      21.031  -0.673  53.595  1.00  0.00     0.016 A 
HETATM   20  C3  UNL     1      19.777  -0.435  53.074  1.00  0.00     0.040 A 
HETATM   21  C2  UNL     1      19.697   0.301  51.892  1.00  0.00     0.101 A 
HETATM   22  C17 UNL     1      20.842   0.777  51.262  1.00  0.00     0.102 A 
HETATM   23  C16 UNL     1      22.060   0.497  51.846  1.00  0.00     0.053 A 
BRANCH  21  24
HETATM   24  O1  UNL     1      18.481   0.575  51.318  1.00  0.00    -0.353 OA
HETATM   25  C1  UNL     1      17.283  -0.064  51.649  1.00  0.00     0.210 C 
ENDBRANCH  21  24
BRANCH  22  26
HETATM   26  O3  UNL     1      20.708   1.503  50.089  1.00  0.00    -0.353 OA
HETATM   27  C18 UNL     1      21.364   1.037  48.914  1.00  0.00     0.210 C 
ENDBRANCH  22  26
ENDBRANCH   1  18
TORSDOF 9
ENDMDL
MODEL 3
REMARK VINA RESULT:      -7.1      1.928      3.041
REMARK  9 active torsions:
REMARK  status: ('A' for Active; 'I' for Inactive)
REMARK    1  A    between atoms: O1_2  and  C2_3 
REMARK    2  A    between atoms: C5_6  and  C6_7 
REMARK    3  A    between atoms: C9_12  and  C10_13 
REMARK    4  A    between atoms: C10_13  and  C14_18 
REMARK    5  A    between atoms: C11_14  and  C12_15 
REMARK    6  A    between atoms: C12_15  and  C13_16 
REMARK    7  A    between atoms: C13_16  and  O2_17 
REMARK    8  A    between atoms: C14_18  and  N3_19 
REMARK    9  A    between atoms: C17_22  and  O3_23 
ROOT
HETATM    1  C6  UNL     1      23.155  -0.397  53.799  1.00  0.00     0.051 A 
HETATM    2  N1  UNL     1      23.557  -1.026  54.829  1.00  0.00    -0.245 NA
HETATM    3  C7  UNL     1      24.908  -1.026  55.285  1.00  0.00     0.233 A 
HETATM    4  N2  UNL     1      25.806  -0.360  54.642  1.00  0.00    -0.246 NA
HETATM    5  C8  UNL     1      25.452   0.374  53.479  1.00  0.00     0.042 A 
HETATM    6  C9  UNL     1      26.402   1.051  52.837  1.00  0.00     0.036 C 
HETATM    7  C15 UNL     1      24.070   0.413  52.957  1.00  0.00     0.119 A 
ENDROOT
BRANCH   6   8
HETATM    8  C10 UNL     1      27.796   1.092  53.249  1.00  0.00    -0.032 C 
HETATM    9  C11 UNL     1      28.572   0.023  53.186  1.00  0.00    -0.016 C 
BRANCH   9  10
HETATM   10  C12 UNL     1      28.303  -1.366  52.737  1.00  0.00     0.054 C 
BRANCH  10  11
HETATM   11  C13 UNL     1      29.305  -2.317  53.404  1.00  0.00     0.168 C 
BRANCH  11  12
HETATM   12  O2  UNL     1      28.750  -3.598  53.437  1.00  0.00    -0.401 OA
HETATM   13  H13 UNL     1      28.112  -3.676  52.704  1.00  0.00     0.209 HD
ENDBRANCH  11  12
ENDBRANCH  10  11
ENDBRANCH   9  10
BRANCH   8  14
HETATM   14  C14 UNL     1      28.432   2.323  53.761  1.00  0.00     0.304 C 
BRANCH  14  15
HETATM   15  N3  UNL     1      29.571   2.003  54.629  1.00  0.00     0.082 N 
HETATM   16  H16 UNL     1      29.870   2.864  55.126  1.00  0.00     0.313 HD
HETATM   17  H17 UNL     1      29.241   1.326  55.350  1.00  0.00     0.313 HD
ENDBRANCH  14  15
ENDBRANCH   8  14
ENDBRANCH   6   8
BRANCH   1  18
HETATM   18  C5  UNL     1      21.746  -0.459  53.412  1.00  0.00    -0.008 A 
HETATM   19  C4  UNL     1      20.802  -1.190  54.102  1.00  0.00     0.016 A 
HETATM   20  C3  UNL     1      19.471  -1.258  53.748  1.00  0.00     0.040 A 
HETATM   21  C2  UNL     1      19.062  -0.542  52.624  1.00  0.00     0.101 A 
HETATM   22  C17 UNL     1      19.967   0.213  51.885  1.00  0.00     0.102 A 
HETATM   23  C16 UNL     1      21.281   0.230  52.303  1.00  0.00     0.053 A 
BRANCH  21  24
HETATM   24  O1  UNL     1      17.753  -0.565  52.215  1.00  0.00    -0.353 OA
HETATM   25  C1  UNL     1      16.804  -1.501  52.639  1.00  0.00     0.210 C 
ENDBRANCH  21  24
BRANCH  22  26
HETATM   26  O3  UNL     1      19.510   0.907  50.774  1.00  0.00    -0.353 OA
HETATM   27  C18 UNL     1      20.443   1.274  49.763  1.00  0.00     0.210 C 
ENDBRANCH  22  26
ENDBRANCH   1  18
TORSDOF 9
ENDMDL
MODEL 4
REMARK VINA RESULT:      -7.1      2.055      2.471
REMARK  9 active torsions:
REMARK  status: ('A' for Active; 'I' for Inactive)
REMARK    1  A    between atoms: O1_2  and  C2_3 
REMARK    2  A    between atoms: C5_6  and  C6_7 
REMARK    3  A    between atoms: C9_12  and  C10_13 
REMARK    4  A    between atoms: C10_13  and  C14_18 
REMARK    5  A    between atoms: C11_14  and  C12_15 
REMARK    6  A    between atoms: C12_15  and  C13_16 
REMARK    7  A    between atoms: C13_16  and  O2_17 
REMARK    8  A    between atoms: C14_18  and  N3_19 
REMARK    9  A    between atoms: C17_22  and  O3_23 
ROOT
HETATM    1  C6  UNL     1      24.390   1.562  52.069  1.00  0.00     0.051 A 
HETATM    2  N1  UNL     1      25.168   2.226  51.311  1.00  0.00    -0.245 NA
HETATM    3  C7  UNL     1      26.571   1.993  51.213  1.00  0.00     0.233 A 
HETATM    4  N2  UNL     1      27.123   1.065  51.917  1.00  0.00    -0.246 NA
HETATM    5  C8  UNL     1      26.335   0.272  52.792  1.00  0.00     0.042 A 
HETATM    6  C9  UNL     1      26.934  -0.680  53.506  1.00  0.00     0.036 C 
HETATM    7  C15 UNL     1      24.877   0.463  52.939  1.00  0.00     0.119 A 
ENDROOT
BRANCH   6   8
HETATM    8  C10 UNL     1      28.358  -0.966  53.452  1.00  0.00    -0.032 C 
HETATM    9  C11 UNL     1      29.243  -0.223  54.095  1.00  0.00    -0.016 C 
BRANCH   9  10
HETATM   10  C12 UNL     1      29.085   0.975  54.957  1.00  0.00     0.054 C 
BRANCH  10  11
HETATM   11  C13 UNL     1      29.200   2.239  54.095  1.00  0.00     0.168 C 
BRANCH  11  12
HETATM   12  O2  UNL     1      27.990   2.933  54.158  1.00  0.00    -0.401 OA
HETATM   13  H13 UNL     1      28.097   3.781  53.689  1.00  0.00     0.209 HD
ENDBRANCH  11  12
ENDBRANCH  10  11
ENDBRANCH   9  10
BRANCH   8  14
HETATM   14  C14 UNL     1      28.907  -2.100  52.680  1.00  0.00     0.304 C 
BRANCH  14  15
HETATM   15  N3  UNL     1      28.252  -3.358  53.055  1.00  0.00     0.082 N 
HETATM   16  H16 UNL     1      28.979  -4.080  53.223  1.00  0.00     0.313 HD
HETATM   17  H17 UNL     1      27.756  -3.200  53.959  1.00  0.00     0.313 HD
ENDBRANCH  14  15
ENDBRANCH   8  14
ENDBRANCH   6   8
BRANCH   1  18
HETATM   18  C5  UNL     1      22.962   1.877  52.100  1.00  0.00    -0.008 A 
HETATM   19  C4  UNL     1      22.439   3.073  51.657  1.00  0.00     0.016 A 
HETATM   20  C3  UNL     1      21.096   3.383  51.680  1.00  0.00     0.040 A 
HETATM   21  C2  UNL     1      20.219   2.424  52.185  1.00  0.00     0.101 A 
HETATM   22  C17 UNL     1      20.685   1.198  52.649  1.00  0.00     0.102 A 
HETATM   23  C16 UNL     1      22.042   0.963  52.592  1.00  0.00     0.053 A 
BRANCH  21  24
HETATM   24  O1  UNL     1      18.870   2.665  52.238  1.00  0.00    -0.353 OA
HETATM   25  C1  UNL     1      18.196   3.595  51.440  1.00  0.00     0.210 C 
ENDBRANCH  21  24
BRANCH  22  26
HETATM   26  O3  UNL     1      19.772   0.277  53.142  1.00  0.00    -0.353 OA
HETATM   27  C18 UNL     1      20.257  -0.876  53.821  1.00  0.00     0.210 C 
ENDBRANCH  22  26
ENDBRANCH   1  18
TORSDOF 9
ENDMDL
MODEL 5
REMARK VINA RESULT:      -6.9      3.123      4.084
REMARK  9 active torsions:
REMARK  status: ('A' for Active; 'I' for Inactive)
REMARK    1  A    between atoms: O1_2  and  C2_3 
REMARK    2  A    between atoms: C5_6  and  C6_7 
REMARK    3  A    between atoms: C9_12  and  C10_13 
REMARK    4  A    between atoms: C10_13  and  C14_18 
REMARK    5  A    between atoms: C11_14  and  C12_15 
REMARK    6  A    between atoms: C12_15  and  C13_16 
REMARK    7  A    between atoms: C13_16  and  O2_17 
REMARK    8  A    between atoms: C14_18  and  N3_19 
REMARK    9  A    between atoms: C17_22  and  O3_23 
ROOT
HETATM    1  C6  UNL     1      23.120   1.508  52.510  1.00  0.00     0.051 A 
HETATM    2  N1  UNL     1      22.628   0.691  53.354  1.00  0.00    -0.245 NA
HETATM    3  C7  UNL     1      23.362  -0.379  53.944  1.00  0.00     0.233 A 
HETATM    4  N2  UNL     1      24.599  -0.564  53.632  1.00  0.00    -0.246 NA
HETATM    5  C8  UNL     1      25.234   0.298  52.699  1.00  0.00     0.042 A 
HETATM    6  C9  UNL     1      26.513   0.081  52.397  1.00  0.00     0.036 C 
HETATM    7  C15 UNL     1      24.529   1.424  52.053  1.00  0.00     0.119 A 
ENDROOT
BRANCH   6   8
HETATM    8  C10 UNL     1      27.315  -0.991  52.963  1.00  0.00    -0.032 C 
HETATM    9  C11 UNL     1      28.119  -0.790  53.994  1.00  0.00    -0.016 C 
BRANCH   9  10
HETATM   10  C12 UNL     1      28.416   0.427  54.790  1.00  0.00     0.054 C 
BRANCH  10  11
HETATM   11  C13 UNL     1      29.247   1.398  53.941  1.00  0.00     0.168 C 
BRANCH  11  12
HETATM   12  O2  UNL     1      29.739   2.407  54.771  1.00  0.00    -0.401 OA
HETATM   13  H13 UNL     1      30.710   2.327  54.811  1.00  0.00     0.209 HD
ENDBRANCH  11  12
ENDBRANCH  10  11
ENDBRANCH   9  10
BRANCH   8  14
HETATM   14  C14 UNL     1      27.285  -2.367  52.427  1.00  0.00     0.304 C 
BRANCH  14  15
HETATM   15  N3  UNL     1      28.344  -3.188  53.026  1.00  0.00     0.082 N 
HETATM   16  H16 UNL     1      28.963  -3.544  52.272  1.00  0.00     0.313 HD
HETATM   17  H17 UNL     1      28.921  -2.568  53.635  1.00  0.00     0.313 HD
ENDBRANCH  14  15
ENDBRANCH   8  14
ENDBRANCH   6   8
BRANCH   1  18
HETATM   18  C5  UNL     1      22.285   2.575  51.960  1.00  0.00    -0.008 A 
HETATM   19  C4  UNL     1      20.919   2.639  52.139  1.00  0.00     0.016 A 
HETATM   20  C3  UNL     1      20.121   3.638  51.626  1.00  0.00     0.040 A 
HETATM   21  C2  UNL     1      20.738   4.642  50.881  1.00  0.00     0.101 A 
HETATM   22  C17 UNL     1      22.112   4.634  50.664  1.00  0.00     0.102 A 
HETATM   23  C16 UNL     1      22.842   3.600  51.211  1.00  0.00     0.053 A 
BRANCH  21  24
HETATM   24  O1  UNL     1      20.003   5.668  50.342  1.00  0.00    -0.353 OA
HETATM   25  C1  UNL     1      19.215   5.562  49.192  1.00  0.00     0.210 C 
ENDBRANCH  21  24
BRANCH  22  26
HETATM   26  O3  UNL     1      22.678   5.656  49.916  1.00  0.00    -0.353 OA
HETATM   27  C18 UNL     1      23.400   6.681  50.590  1.00  0.00     0.210 C 
ENDBRANCH  22  26
ENDBRANCH   1  18
TORSDOF 9
ENDMDL
MODEL 6
REMARK VINA RESULT:      -6.9      2.363      3.698
REMARK  9 active torsions:
REMARK  status: ('A' for Active; 'I' for Inactive)
REMARK    1  A    between atoms: O1_2  and  C2_3 
REMARK    2  A    between atoms: C5_6  and  C6_7 
REMARK    3  A    between atoms: C9_12  and  C10_13 
REMARK    4  A    between atoms: C10_13  and  C14_18 
REMARK    5  A    between atoms: C11_14  and  C12_15 
REMARK    6  A    between atoms: C12_15  and  C13_16 
REMARK    7  A    between atoms: C13_16  and  O2_17 
REMARK    8  A    between atoms: C14_18  and  N3_19 
REMARK    9  A    between atoms: C17_22  and  O3_23 
ROOT
HETATM    1  C6  UNL     1      21.752   0.362  52.301  1.00  0.00     0.051 A 
HETATM    2  N1  UNL     1      22.179   1.171  51.415  1.00  0.00    -0.245 NA
HETATM    3  C7  UNL     1      23.534   1.604  51.321  1.00  0.00     0.233 A 
HETATM    4  N2  UNL     1      24.410   1.174  52.164  1.00  0.00    -0.246 NA
HETATM    5  C8  UNL     1      24.027   0.268  53.188  1.00  0.00     0.042 A 
HETATM    6  C9  UNL     1      24.955  -0.158  54.044  1.00  0.00     0.036 C 
HETATM    7  C15 UNL     1      22.640  -0.218  53.339  1.00  0.00     0.119 A 
ENDROOT
BRANCH   6   8
HETATM    8  C10 UNL     1      26.351   0.246  54.002  1.00  0.00    -0.032 C 
HETATM    9  C11 UNL     1      27.271  -0.490  53.402  1.00  0.00    -0.016 C 
BRANCH   9  10
HETATM   10  C12 UNL     1      27.182  -1.784  52.680  1.00  0.00     0.054 C 
BRANCH  10  11
HETATM   11  C13 UNL     1      28.560  -2.459  52.676  1.00  0.00     0.168 C 
BRANCH  11  12
HETATM   12  O2  UNL     1      28.499  -3.603  53.474  1.00  0.00    -0.401 OA
HETATM   13  H13 UNL     1      27.614  -3.648  53.879  1.00  0.00     0.209 HD
ENDBRANCH  11  12
ENDBRANCH  10  11
ENDBRANCH   9  10
BRANCH   8  14
HETATM   14  C14 UNL     1      26.830   1.497  54.623  1.00  0.00     0.304 C 
BRANCH  14  15
HETATM   15  N3  UNL     1      26.606   2.644  53.737  1.00  0.00     0.082 N 
HETATM   16  H16 UNL     1      27.286   3.393  53.973  1.00  0.00     0.313 HD
HETATM   17  H17 UNL     1      26.808   2.336  52.761  1.00  0.00     0.313 HD
ENDBRANCH  14  15
ENDBRANCH   8  14
ENDBRANCH   6   8
BRANCH   1  18
HETATM   18  C5  UNL     1      20.342  -0.022  52.315  1.00  0.00    -0.008 A 
HETATM   19  C4  UNL     1      19.780  -0.812  53.296  1.00  0.00     0.016 A 
HETATM   20  C3  UNL     1      18.452  -1.181  53.321  1.00  0.00     0.040 A 
HETATM   21  C2  UNL     1      17.634  -0.727  52.289  1.00  0.00     0.101 A 
HETATM   22  C17 UNL     1      18.140   0.072  51.269  1.00  0.00     0.102 A 
HETATM   23  C16 UNL     1      19.479   0.399  51.314  1.00  0.00     0.053 A 
BRANCH  21  24
HETATM   24  O1  UNL     1      16.302  -1.057  52.252  1.00  0.00    -0.353 OA
HETATM   25  C1  UNL     1      15.270  -0.254  52.745  1.00  0.00     0.210 C 
ENDBRANCH  21  24
BRANCH  22  26
HETATM   26  O3  UNL     1      17.285   0.498  50.264  1.00  0.00    -0.353 OA
HETATM   27  C18 UNL     1      17.612   1.677  49.537  1.00  0.00     0.210 C 
ENDBRANCH  22  26
ENDBRANCH   1  18
TORSDOF 9
ENDMDL
MODEL 7
REMARK VINA RESULT:      -6.9      5.830      8.123
REMARK  9 active torsions:
REMARK  status: ('A' for Active; 'I' for Inactive)
REMARK    1  A    between atoms: O1_2  and  C2_3 
REMARK    2  A    between atoms: C5_6  and  C6_7 
REMARK    3  A    between atoms: C9_12  and  C10_13 
REMARK    4  A    between atoms: C10_13  and  C14_18 
REMARK    5  A    between atoms: C11_14  and  C12_15 
REMARK    6  A    between atoms: C12_15  and  C13_16 
REMARK    7  A    between atoms: C13_16  and  O2_17 
REMARK    8  A    between atoms: C14_18  and  N3_19 
REMARK    9  A    between atoms: C17_22  and  O3_23 
ROOT
HETATM    1  C6  UNL     1      25.781   3.111  51.037  1.00  0.00     0.051 A 
HETATM    2  N1  UNL     1      26.801   3.140  50.276  1.00  0.00    -0.245 NA
HETATM    3  C7  UNL     1      27.017   4.132  49.275  1.00  0.00     0.233 A 
HETATM    4  N2  UNL     1      26.153   5.072  49.099  1.00  0.00    -0.246 NA
HETATM    5  C8  UNL     1      24.982   5.122  49.902  1.00  0.00     0.042 A 
HETATM    6  C9  UNL     1      24.108   6.106  49.696  1.00  0.00     0.036 C 
HETATM    7  C15 UNL     1      24.700   4.125  50.955  1.00  0.00     0.119 A 
ENDROOT
BRANCH   6   8
HETATM    8  C10 UNL     1      24.270   7.146  48.693  1.00  0.00    -0.032 C 
HETATM    9  C11 UNL     1      24.883   8.285  48.964  1.00  0.00    -0.016 C 
BRANCH   9  10
HETATM   10  C12 UNL     1      25.513   8.794  50.208  1.00  0.00     0.054 C 
BRANCH  10  11
HETATM   11  C13 UNL     1      27.015   9.003  49.968  1.00  0.00     0.168 C 
BRANCH  11  12
HETATM   12  O2  UNL     1      27.598   9.454  51.154  1.00  0.00    -0.401 OA
HETATM   13  H13 UNL     1      26.887   9.654  51.790  1.00  0.00     0.209 HD
ENDBRANCH  11  12
ENDBRANCH  10  11
ENDBRANCH   9  10
BRANCH   8  14
HETATM   14  C14 UNL     1      23.764   6.998  47.313  1.00  0.00     0.304 C 
BRANCH  14  15
HETATM   15  N3  UNL     1      24.533   7.828  46.379  1.00  0.00     0.082 N 
HETATM   16  H16 UNL     1      24.362   7.495  45.411  1.00  0.00     0.313 HD
HETATM   17  H17 UNL     1      24.165   8.802  46.442  1.00  0.00     0.313 HD
ENDBRANCH  14  15
ENDBRANCH   8  14
ENDBRANCH   6   8
BRANCH   1  18
HETATM   18  C5  UNL     1      25.648   2.051  52.035  1.00  0.00    -0.008 A 
HETATM   19  C4  UNL     1      24.596   1.159  52.060  1.00  0.00     0.016 A 
HETATM   20  C3  UNL     1      24.460   0.156  52.995  1.00  0.00     0.040 A 
HETATM   21  C2  UNL     1      25.448   0.040  53.971  1.00  0.00     0.101 A 
HETATM   22  C17 UNL     1      26.534   0.909  54.000  1.00  0.00     0.102 A 
HETATM   23  C16 UNL     1      26.600   1.888  53.031  1.00  0.00     0.053 A 
BRANCH  21  24
HETATM   24  O1  UNL     1      25.375  -0.936  54.932  1.00  0.00    -0.353 OA
HETATM   25  C1  UNL     1      24.196  -1.344  55.564  1.00  0.00     0.210 C 
ENDBRANCH  21  24
BRANCH  22  26
HETATM   26  O3  UNL     1      27.490   0.753  54.992  1.00  0.00    -0.353 OA
HETATM   27  C18 UNL     1      28.776   0.259  54.634  1.00  0.00     0.210 C 
ENDBRANCH  22  26
ENDBRANCH   1  18
TORSDOF 9
ENDMDL
MODEL 8
REMARK VINA RESULT:      -6.8      4.955      8.910
REMARK  9 active torsions:
REMARK  status: ('A' for Active; 'I' for Inactive)
REMARK    1  A    between atoms: O1_2  and  C2_3 
REMARK    2  A    between atoms: C5_6  and  C6_7 
REMARK    3  A    between atoms: C9_12  and  C10_13 
REMARK    4  A    between atoms: C10_13  and  C14_18 
REMARK    5  A    between atoms: C11_14  and  C12_15 
REMARK    6  A    between atoms: C12_15  and  C13_16 
REMARK    7  A    between atoms: C13_16  and  O2_17 
REMARK    8  A    between atoms: C14_18  and  N3_19 
REMARK    9  A    between atoms: C17_22  and  O3_23 
ROOT
HETATM    1  C6  UNL     1      24.372   4.304  50.661  1.00  0.00     0.051 A 
HETATM    2  N1  UNL     1      23.693   5.018  51.466  1.00  0.00    -0.245 NA
HETATM    3  C7  UNL     1      22.585   4.530  52.221  1.00  0.00     0.233 A 
HETATM    4  N2  UNL     1      22.219   3.299  52.108  1.00  0.00    -0.246 NA
HETATM    5  C8  UNL     1      22.917   2.426  51.233  1.00  0.00     0.042 A 
HETATM    6  C9  UNL     1      22.514   1.159  51.140  1.00  0.00     0.036 C 
HETATM    7  C15 UNL     1      24.072   2.869  50.426  1.00  0.00     0.119 A 
ENDROOT
BRANCH   6   8
HETATM    8  C10 UNL     1      21.395   0.602  51.880  1.00  0.00    -0.032 C 
HETATM    9  C11 UNL     1      21.566  -0.041  53.022  1.00  0.00    -0.016 C 
BRANCH   9  10
HETATM   10  C12 UNL     1      22.788  -0.355  53.804  1.00  0.00     0.054 C 
BRANCH  10  11
HETATM   11  C13 UNL     1      22.432  -1.329  54.935  1.00  0.00     0.168 C 
BRANCH  11  12
HETATM   12  O2  UNL     1      21.044  -1.476  54.976  1.00  0.00    -0.401 OA
HETATM   13  H13 UNL     1      20.838  -2.348  55.362  1.00  0.00     0.209 HD
ENDBRANCH  11  12
ENDBRANCH  10  11
ENDBRANCH   9  10
BRANCH   8  14
HETATM   14  C14 UNL     1      20.000   0.717  51.407  1.00  0.00     0.304 C 
BRANCH  14  15
HETATM   15  N3  UNL     1      19.348   1.902  51.975  1.00  0.00     0.082 N 
HETATM   16  H16 UNL     1      20.031   2.683  52.003  1.00  0.00     0.313 HD
HETATM   17  H17 UNL     1      18.580   2.184  51.328  1.00  0.00     0.313 HD
ENDBRANCH  14  15
ENDBRANCH   8  14
ENDBRANCH   6   8
BRANCH   1  18
HETATM   18  C5  UNL     1      25.493   4.896  49.932  1.00  0.00    -0.008 A 
HETATM   19  C4  UNL     1      26.503   4.153  49.358  1.00  0.00     0.016 A 
HETATM   20  C3  UNL     1      27.564   4.699  48.668  1.00  0.00     0.040 A 
HETATM   21  C2  UNL     1      27.613   6.087  48.548  1.00  0.00     0.101 A 
HETATM   22  C17 UNL     1      26.625   6.892  49.105  1.00  0.00     0.102 A 
HETATM   23  C16 UNL     1      25.595   6.271  49.780  1.00  0.00     0.053 A 
BRANCH  21  24
HETATM   24  O1  UNL     1      28.641   6.697  47.874  1.00  0.00    -0.353 OA
HETATM   25  C1  UNL     1      29.971   6.265  47.892  1.00  0.00     0.210 C 
ENDBRANCH  21  24
BRANCH  22  26
HETATM   26  O3  UNL     1      26.720   8.268  48.957  1.00  0.00    -0.353 OA
HETATM   27  C18 UNL     1      27.126   9.052  50.074  1.00  0.00     0.210 C 
ENDBRANCH  22  26
ENDBRANCH   1  18
TORSDOF 9
ENDMDL
MODEL 9
REMARK VINA RESULT:      -6.7      4.792      8.218
REMARK  9 active torsions:
REMARK  status: ('A' for Active; 'I' for Inactive)
REMARK    1  A    between atoms: O1_2  and  C2_3 
REMARK    2  A    between atoms: C5_6  and  C6_7 
REMARK    3  A    between atoms: C9_12  and  C10_13 
REMARK    4  A    between atoms: C10_13  and  C14_18 
REMARK    5  A    between atoms: C11_14  and  C12_15 
REMARK    6  A    between atoms: C12_15  and  C13_16 
REMARK    7  A    between atoms: C13_16  and  O2_17 
REMARK    8  A    between atoms: C14_18  and  N3_19 
REMARK    9  A    between atoms: C17_22  and  O3_23 
ROOT
HETATM    1  C6  UNL     1      24.977   2.458  51.906  1.00  0.00     0.051 A 
HETATM    2  N1  UNL     1      23.973   2.834  52.592  1.00  0.00    -0.245 NA
HETATM    3  C7  UNL     1      23.017   3.792  52.143  1.00  0.00     0.233 A 
HETATM    4  N2  UNL     1      23.143   4.333  50.979  1.00  0.00    -0.246 NA
HETATM    5  C8  UNL     1      24.233   3.976  50.142  1.00  0.00     0.042 A 
HETATM    6  C9  UNL     1      24.335   4.552  48.945  1.00  0.00     0.036 C 
HETATM    7  C15 UNL     1      25.255   2.990  50.549  1.00  0.00     0.119 A 
ENDROOT
BRANCH   6   8
HETATM    8  C10 UNL     1      23.396   5.535  48.430  1.00  0.00    -0.032 C 
HETATM    9  C11 UNL     1      23.519   6.824  48.699  1.00  0.00    -0.016 C 
BRANCH   9  10
HETATM   10  C12 UNL     1      24.517   7.572  49.503  1.00  0.00     0.054 C 
BRANCH  10  11
HETATM   11  C13 UNL     1      23.920   7.896  50.880  1.00  0.00     0.168 C 
BRANCH  11  12
HETATM   12  O2  UNL     1      24.478   7.030  51.822  1.00  0.00    -0.401 OA
HETATM   13  H13 UNL     1      23.983   6.190  51.799  1.00  0.00     0.209 HD
ENDBRANCH  11  12
ENDBRANCH  10  11
ENDBRANCH   9  10
BRANCH   8  14
HETATM   14  C14 UNL     1      22.250   5.161  47.576  1.00  0.00     0.304 C 
BRANCH  14  15
HETATM   15  N3  UNL     1      21.707   3.855  47.968  1.00  0.00     0.082 N 
HETATM   16  H16 UNL     1      22.277   3.471  48.746  1.00  0.00     0.313 HD
HETATM   17  H17 UNL     1      20.743   4.010  48.335  1.00  0.00     0.313 HD
ENDBRANCH  14  15
ENDBRANCH   8  14
ENDBRANCH   6   8
BRANCH   1  18
HETATM   18  C5  UNL     1      25.903   1.468  52.455  1.00  0.00    -0.008 A 
HETATM   19  C4  UNL     1      25.937   0.151  52.045  1.00  0.00     0.016 A 
HETATM   20  C3  UNL     1      26.803  -0.792  52.554  1.00  0.00     0.040 A 
HETATM   21  C2  UNL     1      27.697  -0.384  53.544  1.00  0.00     0.101 A 
HETATM   22  C17 UNL     1      27.711   0.930  54.000  1.00  0.00     0.102 A 
HETATM   23  C16 UNL     1      26.813   1.815  53.442  1.00  0.00     0.053 A 
BRANCH  21  24
HETATM   24  O1  UNL     1      28.587  -1.270  54.094  1.00  0.00    -0.353 OA
HETATM   25  C1  UNL     1      29.579  -1.949  53.379  1.00  0.00     0.210 C 
ENDBRANCH  21  24
BRANCH  22  26
HETATM   26  O3  UNL     1      28.620   1.286  54.986  1.00  0.00    -0.353 OA
HETATM   27  C18 UNL     1      29.738   2.092  54.631  1.00  0.00     0.210 C 
ENDBRANCH  22  26
ENDBRANCH   1  18
TORSDOF 9
ENDMDL
