MODEL 1
REMARK VINA RESULT:      -7.5      0.000      0.000
REMARK  9 active torsions:
REMARK  status: ('A' for Active; 'I' for Inactive)
REMARK    1  A    between atoms: C2_2  and  C3_3 
REMARK    2  A    between atoms: C3_3  and  N1_4 
REMARK    3  A    between atoms: N1_4  and  C4_5 
REMARK    4  A    between atoms: C4_5  and  C5_6 
REMARK    5  A    between atoms: C5_6  and  C6_7 
REMARK    6  A    between atoms: C6_7  and  O1_8 
REMARK    7  A    between atoms: O1_8  and  C7_9 
REMARK    8  A    between atoms: C9_11  and  N2_12 
REMARK    9  A    between atoms: C12_16  and  N3_17 
ROOT
HETATM    1  C7  UNL     1      26.869   1.878  52.527  1.00  0.00     0.076 C 
HETATM    2  C8  UNL     1      25.962   1.649  53.507  1.00  0.00     0.041 C 
HETATM    3  C9  UNL     1      25.687   0.117  53.722  1.00  0.00     0.073 C 
HETATM    4  C15 UNL     1      26.628  -0.673  52.858  1.00  0.00     0.096 A 
HETATM    5  C16 UNL     1      28.125  -0.446  53.196  1.00  0.00    -0.010 A 
HETATM    6  C17 UNL     1      27.477   0.621  52.959  1.00  0.00     0.095 A 
HETATM    7  N4  UNL     1      27.588   0.985  54.601  1.00  0.00    -0.401 N 
HETATM    8  C18 UNL     1      26.509   0.063  55.101  1.00  0.00     0.151 C 
HETATM    9  H25 UNL     1      27.891   1.436  55.597  1.00  0.00     0.154 HD
ENDROOT
BRANCH   3  10
HETATM   10  N2  UNL     1      24.383  -0.226  53.838  1.00  0.00    -0.370 N 
HETATM   11  C10 UNL     1      23.443   0.179  52.853  1.00  0.00     0.113 A 
HETATM   12  C11 UNL     1      22.151  -0.149  52.958  1.00  0.00     0.075 A 
HETATM   13 CL1  UNL     1      20.947   0.312  51.791  1.00  0.00    -0.080 Cl
HETATM   14  C12 UNL     1      21.681  -0.935  54.085  1.00  0.00     0.046 A 
HETATM   15  C13 UNL     1      22.579  -1.300  54.985  1.00  0.00     0.023 A 
HETATM   16  C14 UNL     1      24.033  -1.012  55.003  1.00  0.00     0.153 A 
BRANCH  14  17
HETATM   17  N3  UNL     1      20.350  -1.359  54.329  1.00  0.00    -0.398 N 
HETATM   18  H17 UNL     1      20.013  -1.448  55.326  1.00  0.00     0.156 HD
HETATM   19  H18 UNL     1      19.531  -1.634  53.711  1.00  0.00     0.156 HD
ENDBRANCH  14  17
ENDBRANCH   3  10
BRANCH   1  20
HETATM   20  O1  UNL     1      27.251   2.777  51.492  1.00  0.00    -0.353 OA
BRANCH  20  21
HETATM   21  C6  UNL     1      26.350   2.732  50.377  1.00  0.00     0.177 C 
BRANCH  21  22
HETATM   22  C5  UNL     1      26.722   3.786  49.373  1.00  0.00     0.056 C 
BRANCH  22  23
HETATM   23  C4  UNL     1      25.794   4.960  49.504  1.00  0.00     0.271 C 
BRANCH  23  24
HETATM   24  N1  UNL     1      25.367   5.073  50.880  1.00  0.00     0.083 N 
HETATM   25  H8  UNL     1      26.146   5.574  51.409  1.00  0.00     0.315 HD
BRANCH  24  26
HETATM   26  C3  UNL     1      24.208   5.975  50.932  1.00  0.00     0.269 C 
BRANCH  26  27
HETATM   27  C2  UNL     1      23.008   5.231  51.518  1.00  0.00     0.025 C 
HETATM   28  C1  UNL     1      23.531   4.306  52.594  1.00  0.00     0.007 C 
ENDBRANCH  26  27
ENDBRANCH  24  26
ENDBRANCH  23  24
ENDBRANCH  22  23
ENDBRANCH  21  22
ENDBRANCH  20  21
ENDBRANCH   1  20
TORSDOF 9
ENDMDL
MODEL 2
REMARK VINA RESULT:      -7.4      1.018      2.052
REMARK  9 active torsions:
REMARK  status: ('A' for Active; 'I' for Inactive)
REMARK    1  A    between atoms: C2_2  and  C3_3 
REMARK    2  A    between atoms: C3_3  and  N1_4 
REMARK    3  A    between atoms: N1_4  and  C4_5 
REMARK    4  A    between atoms: C4_5  and  C5_6 
REMARK    5  A    between atoms: C5_6  and  C6_7 
REMARK    6  A    between atoms: C6_7  and  O1_8 
REMARK    7  A    between atoms: O1_8  and  C7_9 
REMARK    8  A    between atoms: C9_11  and  N2_12 
REMARK    9  A    between atoms: C12_16  and  N3_17 
ROOT
HETATM    1  C7  UNL     1      26.882   1.919  52.536  1.00  0.00     0.076 C 
HETATM    2  C8  UNL     1      25.984   1.672  53.520  1.00  0.00     0.041 C 
HETATM    3  C9  UNL     1      25.735   0.136  53.731  1.00  0.00     0.073 C 
HETATM    4  C15 UNL     1      26.684  -0.637  52.860  1.00  0.00     0.096 A 
HETATM    5  C16 UNL     1      28.179  -0.387  53.191  1.00  0.00    -0.010 A 
HETATM    6  C17 UNL     1      27.512   0.671  52.960  1.00  0.00     0.095 A 
HETATM    7  N4  UNL     1      27.626   1.031  54.603  1.00  0.00    -0.401 N 
HETATM    8  C18 UNL     1      26.565   0.091  55.105  1.00  0.00     0.151 C 
HETATM    9  H25 UNL     1      27.928   1.484  55.598  1.00  0.00     0.154 HD
ENDROOT
BRANCH   3  10
HETATM   10  N2  UNL     1      24.438  -0.229  53.853  1.00  0.00    -0.370 N 
HETATM   11  C10 UNL     1      23.489   0.147  52.864  1.00  0.00     0.113 A 
HETATM   12  C11 UNL     1      22.203  -0.203  52.974  1.00  0.00     0.075 A 
HETATM   13 CL1  UNL     1      20.991   0.221  51.802  1.00  0.00    -0.080 Cl
HETATM   14  C12 UNL     1      21.748  -0.982  54.111  1.00  0.00     0.046 A 
HETATM   15  C13 UNL     1      22.653  -1.319  55.016  1.00  0.00     0.023 A 
HETATM   16  C14 UNL     1      24.102  -1.005  55.029  1.00  0.00     0.153 A 
BRANCH  14  17
HETATM   17  N3  UNL     1      20.425  -1.426  54.363  1.00  0.00    -0.398 N 
HETATM   18  H17 UNL     1      20.216  -1.940  55.261  1.00  0.00     0.156 HD
HETATM   19  H18 UNL     1      19.507  -1.369  53.831  1.00  0.00     0.156 HD
ENDBRANCH  14  17
ENDBRANCH   3  10
BRANCH   1  20
HETATM   20  O1  UNL     1      27.244   2.827  51.501  1.00  0.00    -0.353 OA
BRANCH  20  21
HETATM   21  C6  UNL     1      26.334   2.776  50.393  1.00  0.00     0.177 C 
BRANCH  21  22
HETATM   22  C5  UNL     1      25.089   3.552  50.715  1.00  0.00     0.056 C 
BRANCH  22  23
HETATM   23  C4  UNL     1      25.194   4.936  50.143  1.00  0.00     0.271 C 
BRANCH  23  24
HETATM   24  N1  UNL     1      26.527   5.134  49.624  1.00  0.00     0.083 N 
HETATM   25  H8  UNL     1      26.749   4.296  49.004  1.00  0.00     0.315 HD
BRANCH  24  26
HETATM   26  C3  UNL     1      26.508   6.297  48.726  1.00  0.00     0.269 C 
BRANCH  26  27
HETATM   27  C2  UNL     1      27.907   6.529  48.159  1.00  0.00     0.025 C 
HETATM   28  C1  UNL     1      28.692   5.250  48.353  1.00  0.00     0.007 C 
ENDBRANCH  26  27
ENDBRANCH  24  26
ENDBRANCH  23  24
ENDBRANCH  22  23
ENDBRANCH  21  22
ENDBRANCH  20  21
ENDBRANCH   1  20
TORSDOF 9
ENDMDL
MODEL 3
REMARK VINA RESULT:      -6.7      2.632      6.841
REMARK  9 active torsions:
REMARK  status: ('A' for Active; 'I' for Inactive)
REMARK    1  A    between atoms: C2_2  and  C3_3 
REMARK    2  A    between atoms: C3_3  and  N1_4 
REMARK    3  A    between atoms: N1_4  and  C4_5 
REMARK    4  A    between atoms: C4_5  and  C5_6 
REMARK    5  A    between atoms: C5_6  and  C6_7 
REMARK    6  A    between atoms: C6_7  and  O1_8 
REMARK    7  A    between atoms: O1_8  and  C7_9 
REMARK    8  A    between atoms: C9_11  and  N2_12 
REMARK    9  A    between atoms: C12_16  and  N3_17 
ROOT
HETATM    1  C7  UNL     1      22.909   0.408  52.652  1.00  0.00     0.076 C 
HETATM    2  C8  UNL     1      23.024   1.757  52.701  1.00  0.00     0.041 C 
HETATM    3  C9  UNL     1      22.735   2.433  51.313  1.00  0.00     0.073 C 
HETATM    4  C15 UNL     1      22.270   1.382  50.346  1.00  0.00     0.096 A 
HETATM    5  C16 UNL     1      20.955   0.679  50.772  1.00  0.00    -0.010 A 
HETATM    6  C17 UNL     1      21.869   0.652  51.654  1.00  0.00     0.095 A 
HETATM    7  N4  UNL     1      20.960   1.753  52.549  1.00  0.00    -0.401 N 
HETATM    8  C18 UNL     1      21.304   2.997  51.775  1.00  0.00     0.151 C 
HETATM    9  H25 UNL     1      20.280   2.226  53.324  1.00  0.00     0.154 HD
ENDROOT
BRANCH   3  10
HETATM   10  N2  UNL     1      23.616   3.390  50.941  1.00  0.00    -0.370 N 
HETATM   11  C10 UNL     1      23.337   4.760  51.190  1.00  0.00     0.113 A 
HETATM   12  C11 UNL     1      24.196   5.717  50.825  1.00  0.00     0.075 A 
HETATM   13 CL1  UNL     1      23.919   7.412  51.099  1.00  0.00    -0.080 Cl
HETATM   14  C12 UNL     1      25.442   5.372  50.163  1.00  0.00     0.046 A 
HETATM   15  C13 UNL     1      25.676   4.088  49.945  1.00  0.00     0.023 A 
HETATM   16  C14 UNL     1      24.824   2.925  50.291  1.00  0.00     0.153 A 
BRANCH  14  17
HETATM   17  N3  UNL     1      26.446   6.270  49.720  1.00  0.00    -0.398 N 
HETATM   18  H17 UNL     1      26.849   6.968  50.401  1.00  0.00     0.156 HD
HETATM   19  H18 UNL     1      26.941   6.435  48.795  1.00  0.00     0.156 HD
ENDBRANCH  14  17
ENDBRANCH   3  10
BRANCH   1  20
HETATM   20  O1  UNL     1      23.409  -0.815  53.180  1.00  0.00    -0.353 OA
BRANCH  20  21
HETATM   21  C6  UNL     1      24.421  -0.601  54.174  1.00  0.00     0.177 C 
BRANCH  21  22
HETATM   22  C5  UNL     1      25.778  -0.588  53.530  1.00  0.00     0.056 C 
BRANCH  22  23
HETATM   23  C4  UNL     1      26.651   0.428  54.210  1.00  0.00     0.271 C 
BRANCH  23  24
HETATM   24  N1  UNL     1      27.837  -0.227  54.710  1.00  0.00     0.083 N 
HETATM   25  H8  UNL     1      27.690  -1.276  54.590  1.00  0.00     0.315 HD
BRANCH  24  26
HETATM   26  C3  UNL     1      28.963   0.119  53.831  1.00  0.00     0.269 C 
BRANCH  26  27
HETATM   27  C2  UNL     1      29.940  -1.054  53.767  1.00  0.00     0.025 C 
HETATM   28  C1  UNL     1      29.183  -2.245  53.223  1.00  0.00     0.007 C 
ENDBRANCH  26  27
ENDBRANCH  24  26
ENDBRANCH  23  24
ENDBRANCH  22  23
ENDBRANCH  21  22
ENDBRANCH  20  21
ENDBRANCH   1  20
TORSDOF 9
ENDMDL
MODEL 4
REMARK VINA RESULT:      -6.7      2.892      5.711
REMARK  9 active torsions:
REMARK  status: ('A' for Active; 'I' for Inactive)
REMARK    1  A    between atoms: C2_2  and  C3_3 
REMARK    2  A    between atoms: C3_3  and  N1_4 
REMARK    3  A    between atoms: N1_4  and  C4_5 
REMARK    4  A    between atoms: C4_5  and  C5_6 
REMARK    5  A    between atoms: C5_6  and  C6_7 
REMARK    6  A    between atoms: C6_7  and  O1_8 
REMARK    7  A    between atoms: O1_8  and  C7_9 
REMARK    8  A    between atoms: C9_11  and  N2_12 
REMARK    9  A    between atoms: C12_16  and  N3_17 
ROOT
HETATM    1  C7  UNL     1      24.577  -0.727  54.360  1.00  0.00     0.076 C 
HETATM    2  C8  UNL     1      24.807  -0.502  53.044  1.00  0.00     0.041 C 
HETATM    3  C9  UNL     1      25.736   0.741  52.804  1.00  0.00     0.073 C 
HETATM    4  C15 UNL     1      26.224   1.250  54.131  1.00  0.00     0.096 A 
HETATM    5  C16 UNL     1      27.070   0.219  54.922  1.00  0.00    -0.010 A 
HETATM    6  C17 UNL     1      25.928  -0.209  54.564  1.00  0.00     0.095 A 
HETATM    7  N4  UNL     1      26.713  -1.200  53.450  1.00  0.00    -0.401 N 
HETATM    8  C18 UNL     1      27.004  -0.160  52.402  1.00  0.00     0.151 C 
HETATM    9  H25 UNL     1      27.170  -2.095  52.923  1.00  0.00     0.154 HD
ENDROOT
BRANCH   3  10
HETATM   10  N2  UNL     1      25.328   1.590  51.833  1.00  0.00    -0.370 N 
HETATM   11  C10 UNL     1      26.274   2.358  51.104  1.00  0.00     0.113 A 
HETATM   12  C11 UNL     1      25.884   3.204  50.144  1.00  0.00     0.075 A 
HETATM   13 CL1  UNL     1      26.987   4.173  49.213  1.00  0.00    -0.080 Cl
HETATM   14  C12 UNL     1      24.475   3.353  49.824  1.00  0.00     0.046 A 
HETATM   15  C13 UNL     1      23.616   2.624  50.518  1.00  0.00     0.023 A 
HETATM   16  C14 UNL     1      23.899   1.653  51.602  1.00  0.00     0.153 A 
BRANCH  14  17
HETATM   17  N3  UNL     1      23.913   4.204  48.839  1.00  0.00    -0.398 N 
HETATM   18  H17 UNL     1      24.464   5.041  48.507  1.00  0.00     0.156 HD
HETATM   19  H18 UNL     1      22.998   4.215  48.301  1.00  0.00     0.156 HD
ENDBRANCH  14  17
ENDBRANCH   3  10
BRANCH   1  20
HETATM   20  O1  UNL     1      23.621  -1.201  55.303  1.00  0.00    -0.353 OA
BRANCH  20  21
HETATM   21  C6  UNL     1      22.340  -1.436  54.702  1.00  0.00     0.177 C 
BRANCH  21  22
HETATM   22  C5  UNL     1      21.502  -0.192  54.776  1.00  0.00     0.056 C 
BRANCH  22  23
HETATM   23  C4  UNL     1      20.384  -0.275  53.777  1.00  0.00     0.271 C 
BRANCH  23  24
HETATM   24  N1  UNL     1      20.927  -0.124  52.447  1.00  0.00     0.083 N 
HETATM   25  H8  UNL     1      20.988  -1.100  52.021  1.00  0.00     0.315 HD
BRANCH  24  26
HETATM   26  C3  UNL     1      19.948   0.605  51.627  1.00  0.00     0.269 C 
BRANCH  26  27
HETATM   27  C2  UNL     1      18.563  -0.012  51.815  1.00  0.00     0.025 C 
HETATM   28  C1  UNL     1      17.837   0.094  50.492  1.00  0.00     0.007 C 
ENDBRANCH  26  27
ENDBRANCH  24  26
ENDBRANCH  23  24
ENDBRANCH  22  23
ENDBRANCH  21  22
ENDBRANCH  20  21
ENDBRANCH   1  20
TORSDOF 9
ENDMDL
MODEL 5
REMARK VINA RESULT:      -6.5      3.135      5.176
REMARK  9 active torsions:
REMARK  status: ('A' for Active; 'I' for Inactive)
REMARK    1  A    between atoms: C2_2  and  C3_3 
REMARK    2  A    between atoms: C3_3  and  N1_4 
REMARK    3  A    between atoms: N1_4  and  C4_5 
REMARK    4  A    between atoms: C4_5  and  C5_6 
REMARK    5  A    between atoms: C5_6  and  C6_7 
REMARK    6  A    between atoms: C6_7  and  O1_8 
REMARK    7  A    between atoms: O1_8  and  C7_9 
REMARK    8  A    between atoms: C9_11  and  N2_12 
REMARK    9  A    between atoms: C12_16  and  N3_17 
ROOT
HETATM    1  C7  UNL     1      24.750   4.289  50.801  1.00  0.00     0.076 C 
HETATM    2  C8  UNL     1      25.129   2.989  50.757  1.00  0.00     0.041 C 
HETATM    3  C9  UNL     1      24.853   2.239  52.109  1.00  0.00     0.073 C 
HETATM    4  C15 UNL     1      24.106   3.158  53.033  1.00  0.00     0.096 A 
HETATM    5  C16 UNL     1      22.723   3.602  52.489  1.00  0.00    -0.010 A 
HETATM    6  C17 UNL     1      23.691   3.826  51.696  1.00  0.00     0.095 A 
HETATM    7  N4  UNL     1      23.099   2.590  50.716  1.00  0.00    -0.401 N 
HETATM    8  C18 UNL     1      23.607   1.419  51.513  1.00  0.00     0.151 C 
HETATM    9  H25 UNL     1      22.598   2.012  49.878  1.00  0.00     0.154 HD
ENDROOT
BRANCH   3  10
HETATM   10  N2  UNL     1      25.866   1.463  52.558  1.00  0.00    -0.370 N 
HETATM   11  C10 UNL     1      26.998   2.048  53.186  1.00  0.00     0.113 A 
HETATM   12  C11 UNL     1      28.007   1.294  53.630  1.00  0.00     0.075 A 
HETATM   13 CL1  UNL     1      29.421   1.944  54.407  1.00  0.00    -0.080 Cl
HETATM   14  C12 UNL     1      27.967  -0.150  53.482  1.00  0.00     0.046 A 
HETATM   15  C13 UNL     1      26.900  -0.669  52.895  1.00  0.00     0.023 A 
HETATM   16  C14 UNL     1      25.712   0.036  52.356  1.00  0.00     0.153 A 
BRANCH  14  17
HETATM   17  N3  UNL     1      28.955  -1.076  53.902  1.00  0.00    -0.398 N 
HETATM   18  H17 UNL     1      29.063  -1.987  53.378  1.00  0.00     0.156 HD
HETATM   19  H18 UNL     1      29.681  -1.090  54.677  1.00  0.00     0.156 HD
ENDBRANCH  14  17
ENDBRANCH   3  10
BRANCH   1  20
HETATM   20  O1  UNL     1      25.047   5.598  50.327  1.00  0.00    -0.353 OA
BRANCH  20  21
HETATM   21  C6  UNL     1      24.514   5.832  49.016  1.00  0.00     0.177 C 
BRANCH  21  22
HETATM   22  C5  UNL     1      25.096   7.092  48.442  1.00  0.00     0.056 C 
BRANCH  22  23
HETATM   23  C4  UNL     1      25.811   7.855  49.519  1.00  0.00     0.271 C 
BRANCH  23  24
HETATM   24  N1  UNL     1      27.198   7.451  49.545  1.00  0.00     0.083 N 
HETATM   25  H8  UNL     1      27.230   6.469  49.958  1.00  0.00     0.315 HD
BRANCH  24  26
HETATM   26  C3  UNL     1      27.665   7.313  48.158  1.00  0.00     0.269 C 
BRANCH  26  27
HETATM   27  C2  UNL     1      28.732   6.221  48.085  1.00  0.00     0.025 C 
HETATM   28  C1  UNL     1      28.082   4.925  48.517  1.00  0.00     0.007 C 
ENDBRANCH  26  27
ENDBRANCH  24  26
ENDBRANCH  23  24
ENDBRANCH  22  23
ENDBRANCH  21  22
ENDBRANCH  20  21
ENDBRANCH   1  20
TORSDOF 9
ENDMDL
MODEL 6
REMARK VINA RESULT:      -6.5      2.917      5.821
REMARK  9 active torsions:
REMARK  status: ('A' for Active; 'I' for Inactive)
REMARK    1  A    between atoms: C2_2  and  C3_3 
REMARK    2  A    between atoms: C3_3  and  N1_4 
REMARK    3  A    between atoms: N1_4  and  C4_5 
REMARK    4  A    between atoms: C4_5  and  C5_6 
REMARK    5  A    between atoms: C5_6  and  C6_7 
REMARK    6  A    between atoms: C6_7  and  O1_8 
REMARK    7  A    between atoms: O1_8  and  C7_9 
REMARK    8  A    between atoms: C9_11  and  N2_12 
REMARK    9  A    between atoms: C12_16  and  N3_17 
ROOT
HETATM    1  C7  UNL     1      23.335   1.801  51.888  1.00  0.00     0.076 C 
HETATM    2  C8  UNL     1      24.157   1.269  52.825  1.00  0.00     0.041 C 
HETATM    3  C9  UNL     1      25.671   1.382  52.423  1.00  0.00     0.073 C 
HETATM    4  C15 UNL     1      25.783   2.185  51.158  1.00  0.00     0.096 A 
HETATM    5  C16 UNL     1      25.258   3.638  51.293  1.00  0.00    -0.010 A 
HETATM    6  C17 UNL     1      24.421   2.747  51.642  1.00  0.00     0.095 A 
HETATM    7  N4  UNL     1      24.653   3.236  53.238  1.00  0.00    -0.401 N 
HETATM    8  C18 UNL     1      25.968   2.549  53.486  1.00  0.00     0.151 C 
HETATM    9  H25 UNL     1      24.518   3.707  54.261  1.00  0.00     0.154 HD
ENDROOT
BRANCH   3  10
HETATM   10  N2  UNL     1      26.404   0.260  52.611  1.00  0.00    -0.370 N 
HETATM   11  C10 UNL     1      27.757   0.347  53.036  1.00  0.00     0.113 A 
HETATM   12  C11 UNL     1      28.494  -0.753  53.221  1.00  0.00     0.075 A 
HETATM   13 CL1  UNL     1      30.153  -0.720  53.741  1.00  0.00    -0.080 Cl
HETATM   14  C12 UNL     1      27.922  -2.068  52.993  1.00  0.00     0.046 A 
HETATM   15  C13 UNL     1      26.660  -2.119  52.599  1.00  0.00     0.023 A 
HETATM   16  C14 UNL     1      25.726  -0.994  52.353  1.00  0.00     0.153 A 
BRANCH  14  17
HETATM   17  N3  UNL     1      28.575  -3.318  53.147  1.00  0.00    -0.398 N 
HETATM   18  H17 UNL     1      28.560  -3.793  54.089  1.00  0.00     0.156 HD
HETATM   19  H18 UNL     1      29.124  -3.955  52.499  1.00  0.00     0.156 HD
ENDBRANCH  14  17
ENDBRANCH   3  10
BRANCH   1  20
HETATM   20  O1  UNL     1      22.055   1.689  51.275  1.00  0.00    -0.353 OA
BRANCH  20  21
HETATM   21  C6  UNL     1      21.066   2.488  51.939  1.00  0.00     0.177 C 
BRANCH  21  22
HETATM   22  C5  UNL     1      19.878   1.642  52.298  1.00  0.00     0.056 C 
BRANCH  22  23
HETATM   23  C4  UNL     1      20.168   0.869  53.553  1.00  0.00     0.271 C 
BRANCH  23  24
HETATM   24  N1  UNL     1      20.610  -0.459  53.199  1.00  0.00     0.083 N 
HETATM   25  H8  UNL     1      21.484  -0.349  52.599  1.00  0.00     0.315 HD
BRANCH  24  26
HETATM   26  C3  UNL     1      21.053  -1.142  54.423  1.00  0.00     0.269 C 
BRANCH  26  27
HETATM   27  C2  UNL     1      22.493  -1.622  54.248  1.00  0.00     0.025 C 
HETATM   28  C1  UNL     1      23.216  -1.368  55.552  1.00  0.00     0.007 C 
ENDBRANCH  26  27
ENDBRANCH  24  26
ENDBRANCH  23  24
ENDBRANCH  22  23
ENDBRANCH  21  22
ENDBRANCH  20  21
ENDBRANCH   1  20
TORSDOF 9
ENDMDL
MODEL 7
REMARK VINA RESULT:      -6.4      2.811      6.900
REMARK  9 active torsions:
REMARK  status: ('A' for Active; 'I' for Inactive)
REMARK    1  A    between atoms: C2_2  and  C3_3 
REMARK    2  A    between atoms: C3_3  and  N1_4 
REMARK    3  A    between atoms: N1_4  and  C4_5 
REMARK    4  A    between atoms: C4_5  and  C5_6 
REMARK    5  A    between atoms: C5_6  and  C6_7 
REMARK    6  A    between atoms: C6_7  and  O1_8 
REMARK    7  A    between atoms: O1_8  and  C7_9 
REMARK    8  A    between atoms: C9_11  and  N2_12 
REMARK    9  A    between atoms: C12_16  and  N3_17 
ROOT
HETATM    1  C7  UNL     1      23.096   1.694  52.742  1.00  0.00     0.076 C 
HETATM    2  C8  UNL     1      23.069   3.023  52.478  1.00  0.00     0.041 C 
HETATM    3  C9  UNL     1      23.206   3.330  50.943  1.00  0.00     0.073 C 
HETATM    4  C15 UNL     1      23.189   2.034  50.183  1.00  0.00     0.096 A 
HETATM    5  C16 UNL     1      21.874   1.229  50.351  1.00  0.00    -0.010 A 
HETATM    6  C17 UNL     1      22.437   1.542  51.447  1.00  0.00     0.095 A 
HETATM    7  N4  UNL     1      21.186   2.641  51.708  1.00  0.00    -0.401 N 
HETATM    8  C18 UNL     1      21.659   3.731  50.786  1.00  0.00     0.151 C 
HETATM    9  H25 UNL     1      20.246   3.147  52.091  1.00  0.00     0.154 HD
ENDROOT
BRANCH   3  10
HETATM   10  N2  UNL     1      24.073   4.319  50.627  1.00  0.00    -0.370 N 
HETATM   11  C10 UNL     1      25.240   4.038  49.869  1.00  0.00     0.113 A 
HETATM   12  C11 UNL     1      26.107   5.005  49.552  1.00  0.00     0.075 A 
HETATM   13 CL1  UNL     1      27.554   4.731  48.628  1.00  0.00    -0.080 Cl
HETATM   14  C12 UNL     1      25.869   6.373  49.977  1.00  0.00     0.046 A 
HETATM   15  C13 UNL     1      24.773   6.607  50.680  1.00  0.00     0.023 A 
HETATM   16  C14 UNL     1      23.729   5.643  51.104  1.00  0.00     0.153 A 
BRANCH  14  17
HETATM   17  N3  UNL     1      26.692   7.499  49.719  1.00  0.00    -0.398 N 
HETATM   18  H17 UNL     1      26.389   8.448  50.065  1.00  0.00     0.156 HD
HETATM   19  H18 UNL     1      27.619   7.644  49.221  1.00  0.00     0.156 HD
ENDBRANCH  14  17
ENDBRANCH   3  10
BRANCH   1  20
HETATM   20  O1  UNL     1      23.495   0.712  53.692  1.00  0.00    -0.353 OA
BRANCH  20  21
HETATM   21  C6  UNL     1      24.254  -0.346  53.089  1.00  0.00     0.177 C 
BRANCH  21  22
HETATM   22  C5  UNL     1      25.659  -0.336  53.619  1.00  0.00     0.056 C 
BRANCH  22  23
HETATM   23  C4  UNL     1      26.589  -0.925  52.596  1.00  0.00     0.271 C 
BRANCH  23  24
HETATM   24  N1  UNL     1      27.954  -0.677  53.000  1.00  0.00     0.083 N 
HETATM   25  H8  UNL     1      28.378  -0.016  52.279  1.00  0.00     0.315 HD
BRANCH  24  26
HETATM   26  C3  UNL     1      27.934   0.072  54.264  1.00  0.00     0.269 C 
BRANCH  26  27
HETATM   27  C2  UNL     1      29.086   1.076  54.281  1.00  0.00     0.025 C 
HETATM   28  C1  UNL     1      28.590   2.346  53.625  1.00  0.00     0.007 C 
ENDBRANCH  26  27
ENDBRANCH  24  26
ENDBRANCH  23  24
ENDBRANCH  22  23
ENDBRANCH  21  22
ENDBRANCH  20  21
ENDBRANCH   1  20
TORSDOF 9
ENDMDL
MODEL 8
REMARK VINA RESULT:      -6.3      2.062      3.302
REMARK  9 active torsions:
REMARK  status: ('A' for Active; 'I' for Inactive)
REMARK    1  A    between atoms: C2_2  and  C3_3 
REMARK    2  A    between atoms: C3_3  and  N1_4 
REMARK    3  A    between atoms: N1_4  and  C4_5 
REMARK    4  A    between atoms: C4_5  and  C5_6 
REMARK    5  A    between atoms: C5_6  and  C6_7 
REMARK    6  A    between atoms: C6_7  and  O1_8 
REMARK    7  A    between atoms: O1_8  and  C7_9 
REMARK    8  A    between atoms: C9_11  and  N2_12 
REMARK    9  A    between atoms: C12_16  and  N3_17 
ROOT
HETATM    1  C7  UNL     1      23.907   4.168  52.146  1.00  0.00     0.076 C 
HETATM    2  C8  UNL     1      23.633   3.227  53.081  1.00  0.00     0.041 C 
HETATM    3  C9  UNL     1      23.712   1.769  52.503  1.00  0.00     0.073 C 
HETATM    4  C15 UNL     1      24.214   1.831  51.088  1.00  0.00     0.096 A 
HETATM    5  C16 UNL     1      25.638   2.431  50.957  1.00  0.00    -0.010 A 
HETATM    6  C17 UNL     1      24.816   3.173  51.581  1.00  0.00     0.095 A 
HETATM    7  N4  UNL     1      25.660   2.818  52.996  1.00  0.00    -0.401 N 
HETATM    8  C18 UNL     1      25.099   1.445  53.245  1.00  0.00     0.151 C 
HETATM    9  H25 UNL     1      26.343   2.882  53.900  1.00  0.00     0.154 HD
ENDROOT
BRANCH   3  10
HETATM   10  N2  UNL     1      22.691   0.952  52.851  1.00  0.00    -0.370 N 
HETATM   11  C10 UNL     1      21.470   0.977  52.125  1.00  0.00     0.113 A 
HETATM   12  C11 UNL     1      20.452   0.179  52.460  1.00  0.00     0.075 A 
HETATM   13 CL1  UNL     1      18.932   0.158  51.616  1.00  0.00    -0.080 Cl
HETATM   14  C12 UNL     1      20.575  -0.739  53.579  1.00  0.00     0.046 A 
HETATM   15  C13 UNL     1      21.723  -0.742  54.236  1.00  0.00     0.023 A 
HETATM   16  C14 UNL     1      22.931   0.080  53.982  1.00  0.00     0.153 A 
BRANCH  14  17
HETATM   17  N3  UNL     1      19.588  -1.642  54.050  1.00  0.00    -0.398 N 
HETATM   18  H17 UNL     1      19.485  -1.795  55.089  1.00  0.00     0.156 HD
HETATM   19  H18 UNL     1      18.861  -2.259  53.583  1.00  0.00     0.156 HD
ENDBRANCH  14  17
ENDBRANCH   3  10
BRANCH   1  20
HETATM   20  O1  UNL     1      23.610   5.492  51.715  1.00  0.00    -0.353 OA
BRANCH  20  21
HETATM   21  C6  UNL     1      23.056   5.518  50.392  1.00  0.00     0.177 C 
BRANCH  21  22
HETATM   22  C5  UNL     1      23.876   6.416  49.510  1.00  0.00     0.056 C 
BRANCH  22  23
HETATM   23  C4  UNL     1      24.903   7.136  50.335  1.00  0.00     0.271 C 
BRANCH  23  24
HETATM   24  N1  UNL     1      26.186   6.493  50.160  1.00  0.00     0.083 N 
HETATM   25  H8  UNL     1      25.997   5.525  49.755  1.00  0.00     0.315 HD
BRANCH  24  26
HETATM   26  C3  UNL     1      26.929   7.220  49.121  1.00  0.00     0.269 C 
BRANCH  26  27
HETATM   27  C2  UNL     1      27.587   6.221  48.170  1.00  0.00     0.025 C 
HETATM   28  C1  UNL     1      27.412   4.843  48.770  1.00  0.00     0.007 C 
ENDBRANCH  26  27
ENDBRANCH  24  26
ENDBRANCH  23  24
ENDBRANCH  22  23
ENDBRANCH  21  22
ENDBRANCH  20  21
ENDBRANCH   1  20
TORSDOF 9
ENDMDL
MODEL 9
REMARK VINA RESULT:      -6.2      3.407      7.931
REMARK  9 active torsions:
REMARK  status: ('A' for Active; 'I' for Inactive)
REMARK    1  A    between atoms: C2_2  and  C3_3 
REMARK    2  A    between atoms: C3_3  and  N1_4 
REMARK    3  A    between atoms: N1_4  and  C4_5 
REMARK    4  A    between atoms: C4_5  and  C5_6 
REMARK    5  A    between atoms: C5_6  and  C6_7 
REMARK    6  A    between atoms: C6_7  and  O1_8 
REMARK    7  A    between atoms: O1_8  and  C7_9 
REMARK    8  A    between atoms: C9_11  and  N2_12 
REMARK    9  A    between atoms: C12_16  and  N3_17 
ROOT
HETATM    1  C7  UNL     1      23.880   3.654  51.919  1.00  0.00     0.076 C 
HETATM    2  C8  UNL     1      23.912   4.911  51.415  1.00  0.00     0.041 C 
HETATM    3  C9  UNL     1      24.517   4.958  49.966  1.00  0.00     0.073 C 
HETATM    4  C15 UNL     1      24.761   3.554  49.493  1.00  0.00     0.096 A 
HETATM    5  C16 UNL     1      23.475   2.693  49.402  1.00  0.00    -0.010 A 
HETATM    6  C17 UNL     1      23.661   3.232  50.537  1.00  0.00     0.095 A 
HETATM    7  N4  UNL     1      22.371   4.262  50.195  1.00  0.00    -0.401 N 
HETATM    8  C18 UNL     1      23.089   5.209  49.273  1.00  0.00     0.151 C 
HETATM    9  H25 UNL     1      21.350   4.754  50.173  1.00  0.00     0.154 HD
ENDROOT
BRANCH   3  10
HETATM   10  N2  UNL     1      25.421   5.941  49.748  1.00  0.00    -0.370 N 
HETATM   11  C10 UNL     1      26.519   5.727  48.873  1.00  0.00     0.113 A 
HETATM   12  C11 UNL     1      27.422   6.687  48.651  1.00  0.00     0.075 A 
HETATM   13 CL1  UNL     1      28.788   6.494  47.594  1.00  0.00    -0.080 Cl
HETATM   14  C12 UNL     1      27.296   7.979  49.303  1.00  0.00     0.046 A 
HETATM   15  C13 UNL     1      26.263   8.151  50.111  1.00  0.00     0.023 A 
HETATM   16  C14 UNL     1      25.190   7.186  50.452  1.00  0.00     0.153 A 
BRANCH  14  17
HETATM   17  N3  UNL     1      28.169   9.088  49.167  1.00  0.00    -0.398 N 
HETATM   18  H17 UNL     1      27.790  10.062  49.317  1.00  0.00     0.156 HD
HETATM   19  H18 UNL     1      29.198   9.201  48.931  1.00  0.00     0.156 HD
ENDBRANCH  14  17
ENDBRANCH   3  10
BRANCH   1  20
HETATM   20  O1  UNL     1      23.979   2.883  53.112  1.00  0.00    -0.353 OA
BRANCH  20  21
HETATM   21  C6  UNL     1      25.308   2.386  53.325  1.00  0.00     0.177 C 
BRANCH  21  22
HETATM   22  C5  UNL     1      25.328   0.891  53.179  1.00  0.00     0.056 C 
BRANCH  22  23
HETATM   23  C4  UNL     1      26.085   0.281  54.323  1.00  0.00     0.271 C 
BRANCH  23  24
HETATM   24  N1  UNL     1      27.264   1.074  54.586  1.00  0.00     0.083 N 
HETATM   25  H8  UNL     1      27.079   1.621  55.482  1.00  0.00     0.315 HD
BRANCH  24  26
HETATM   26  C3  UNL     1      28.374   0.163  54.898  1.00  0.00     0.269 C 
BRANCH  26  27
HETATM   27  C2  UNL     1      29.382   0.174  53.750  1.00  0.00     0.025 C 
HETATM   28  C1  UNL     1      29.716  -1.267  53.428  1.00  0.00     0.007 C 
ENDBRANCH  26  27
ENDBRANCH  24  26
ENDBRANCH  23  24
ENDBRANCH  22  23
ENDBRANCH  21  22
ENDBRANCH  20  21
ENDBRANCH   1  20
TORSDOF 9
ENDMDL
