MODEL 1
REMARK VINA RESULT:      -8.3      0.000      0.000
REMARK  4 active torsions:
REMARK  status: ('A' for Active; 'I' for Inactive)
REMARK    1  A    between atoms: C5_5  and  N1_6 
REMARK       I    between atoms: N1_6  and  C6_7 
REMARK    2  A    between atoms: C6_7  and  P1_9 
REMARK    3  A    between atoms: C8_11  and  N2_12 
REMARK    4  A    between atoms: N2_12  and  C9_13 
ROOT
HETATM    1  C1  UNL     1      24.381   5.739  50.188  1.00  0.00     0.050 C 
HETATM    2  C2  UNL     1      25.722   5.760  49.550  1.00  0.00    -0.035 A 
HETATM    3  C3  UNL     1      26.311   6.959  49.218  1.00  0.00     0.011 A 
HETATM    4  C4  UNL     1      27.554   7.029  48.625  1.00  0.00     0.030 A 
HETATM    5  C5  UNL     1      28.207   5.842  48.367  1.00  0.00     0.037 A 
HETATM    6  C7  UNL     1      27.581   4.664  48.716  1.00  0.00     0.060 A 
HETATM    7  C8  UNL     1      26.351   4.536  49.306  1.00  0.00     0.057 A 
ENDROOT
BRANCH   7   8
HETATM    8  N2  UNL     1      25.753   3.309  49.642  1.00  0.00    -0.188 N 
HETATM    9  H10 UNL     1      25.107   2.920  48.890  1.00  0.00     0.184 HD
BRANCH   8  10
HETATM   10  C9  UNL     1      25.888   2.543  50.810  1.00  0.00     0.727 A 
HETATM   11  N3  UNL     1      24.966   1.730  51.340  1.00  0.00    -0.074 NA
HETATM   12  C10 UNL     1      25.070   1.000  52.439  1.00  0.00     0.151 A 
HETATM   13  C11 UNL     1      26.260   1.082  53.118  1.00  0.00     0.025 A 
HETATM   14  C12 UNL     1      27.255   1.900  52.630  1.00  0.00     0.070 A 
HETATM   15  C16 UNL     1      26.249   0.232  54.308  1.00  0.00     0.131 C 
HETATM   16  N4  UNL     1      27.035   2.593  51.506  1.00  0.00    -0.066 NA
HETATM   17  C13 UNL     1      28.609   2.176  53.145  1.00  0.00     0.089 C 
HETATM   18  C14 UNL     1      29.089   1.209  54.148  1.00  0.00    -0.002 C 
HETATM   19  C15 UNL     1      28.635   0.268  54.961  1.00  0.00     0.112 C 
HETATM   20  N5  UNL     1      27.242  -0.086  55.049  1.00  0.00    -0.272 NA
ENDBRANCH   8  10
ENDBRANCH   7   8
BRANCH   5  21
HETATM   21  N1  UNL     1      29.489   5.908  47.756  1.00  0.00    -0.324 N 
HETATM   22  C6  UNL     1      30.792   5.728  48.310  1.00  0.00     0.240 C 
HETATM   23  O1  UNL     1      31.001   5.462  49.516  1.00  0.00    -0.268 OA
HETATM   24  H6  UNL     1      29.264   6.127  46.774  1.00  0.00     0.169 HD
BRANCH  22  25
HETATM   25  P1  UNL     1      32.142   5.916  47.108  1.00  0.00    -0.043 P 
HETATM   26  H7  UNL     1      32.679   7.252  47.064  1.00  0.00     0.064 HD
HETATM   27  H8  UNL     1      33.146   4.895  47.270  1.00  0.00     0.064 HD
ENDBRANCH  22  25
ENDBRANCH   5  21
TORSDOF 4
ENDMDL
MODEL 2
REMARK VINA RESULT:      -7.9      3.285      7.007
REMARK  4 active torsions:
REMARK  status: ('A' for Active; 'I' for Inactive)
REMARK    1  A    between atoms: C5_5  and  N1_6 
REMARK       I    between atoms: N1_6  and  C6_7 
REMARK    2  A    between atoms: C6_7  and  P1_9 
REMARK    3  A    between atoms: C8_11  and  N2_12 
REMARK    4  A    between atoms: N2_12  and  C9_13 
ROOT
HETATM    1  C1  UNL     1      21.323   1.295  52.844  1.00  0.00     0.050 C 
HETATM    2  C2  UNL     1      22.776   0.989  52.874  1.00  0.00    -0.035 A 
HETATM    3  C3  UNL     1      23.215  -0.238  53.319  1.00  0.00     0.011 A 
HETATM    4  C4  UNL     1      24.553  -0.567  53.364  1.00  0.00     0.030 A 
HETATM    5  C5  UNL     1      25.461   0.382  52.944  1.00  0.00     0.037 A 
HETATM    6  C7  UNL     1      24.978   1.597  52.507  1.00  0.00     0.060 A 
HETATM    7  C8  UNL     1      23.663   1.978  52.440  1.00  0.00     0.057 A 
ENDROOT
BRANCH   7   8
HETATM    8  N2  UNL     1      23.220   3.232  51.986  1.00  0.00    -0.188 N 
HETATM    9  H10 UNL     1      22.181   3.407  52.141  1.00  0.00     0.184 HD
BRANCH   8  10
HETATM   10  C9  UNL     1      23.944   4.264  51.370  1.00  0.00     0.727 A 
HETATM   11  N3  UNL     1      23.754   5.578  51.533  1.00  0.00    -0.074 NA
HETATM   12  C10 UNL     1      24.423   6.567  50.962  1.00  0.00     0.151 A 
HETATM   13  C11 UNL     1      25.431   6.209  50.102  1.00  0.00     0.025 A 
HETATM   14  C12 UNL     1      25.683   4.873  49.886  1.00  0.00     0.070 A 
HETATM   15  C16 UNL     1      26.090   7.387  49.541  1.00  0.00     0.131 C 
HETATM   16  N4  UNL     1      24.939   3.958  50.520  1.00  0.00    -0.066 NA
HETATM   17  C13 UNL     1      26.686   4.211  49.031  1.00  0.00     0.089 C 
HETATM   18  C14 UNL     1      27.779   5.091  48.580  1.00  0.00    -0.002 C 
HETATM   19  C15 UNL     1      28.080   6.376  48.474  1.00  0.00     0.112 C 
HETATM   20  N5  UNL     1      27.181   7.427  48.874  1.00  0.00    -0.272 NA
ENDBRANCH   8  10
ENDBRANCH   7   8
BRANCH   5  21
HETATM   21  N1  UNL     1      26.842   0.047  52.989  1.00  0.00    -0.324 N 
HETATM   22  C6  UNL     1      27.696  -0.226  54.100  1.00  0.00     0.240 C 
HETATM   23  O1  UNL     1      27.309  -0.207  55.292  1.00  0.00    -0.268 OA
HETATM   24  H6  UNL     1      27.110   0.044  51.994  1.00  0.00     0.169 HD
BRANCH  22  25
HETATM   25  P1  UNL     1      29.411  -0.610  53.641  1.00  0.00    -0.043 P 
HETATM   26  H7  UNL     1      29.518  -1.314  52.389  1.00  0.00     0.064 HD
HETATM   27  H8  UNL     1      30.258   0.553  53.725  1.00  0.00     0.064 HD
ENDBRANCH  22  25
ENDBRANCH   5  21
TORSDOF 4
ENDMDL
MODEL 3
REMARK VINA RESULT:      -7.9      3.375      7.308
REMARK  4 active torsions:
REMARK  status: ('A' for Active; 'I' for Inactive)
REMARK    1  A    between atoms: C5_5  and  N1_6 
REMARK       I    between atoms: N1_6  and  C6_7 
REMARK    2  A    between atoms: C6_7  and  P1_9 
REMARK    3  A    between atoms: C8_11  and  N2_12 
REMARK    4  A    between atoms: N2_12  and  C9_13 
ROOT
HETATM    1  C1  UNL     1      21.223   0.166  54.203  1.00  0.00     0.050 C 
HETATM    2  C2  UNL     1      22.682  -0.071  54.056  1.00  0.00    -0.035 A 
HETATM    3  C3  UNL     1      23.320  -0.980  54.871  1.00  0.00     0.011 A 
HETATM    4  C4  UNL     1      24.671  -1.234  54.771  1.00  0.00     0.030 A 
HETATM    5  C5  UNL     1      25.385  -0.541  53.816  1.00  0.00     0.037 A 
HETATM    6  C7  UNL     1      24.707   0.360  53.023  1.00  0.00     0.060 A 
HETATM    7  C8  UNL     1      23.369   0.652  53.077  1.00  0.00     0.057 A 
ENDROOT
BRANCH   7   8
HETATM    8  N2  UNL     1      22.722   1.582  52.244  1.00  0.00    -0.188 N 
HETATM    9  H10 UNL     1      21.789   1.242  51.858  1.00  0.00     0.184 HD
BRANCH   8  10
HETATM   10  C9  UNL     1      23.130   2.868  51.860  1.00  0.00     0.727 A 
HETATM   11  N3  UNL     1      22.692   4.027  52.367  1.00  0.00    -0.074 NA
HETATM   12  C10 UNL     1      23.061   5.249  52.020  1.00  0.00     0.151 A 
HETATM   13  C11 UNL     1      24.002   5.347  51.026  1.00  0.00     0.025 A 
HETATM   14  C12 UNL     1      24.497   4.194  50.458  1.00  0.00     0.070 A 
HETATM   15  C16 UNL     1      24.323   6.744  50.737  1.00  0.00     0.131 C 
HETATM   16  N4  UNL     1      24.048   3.009  50.890  1.00  0.00    -0.066 NA
HETATM   17  C13 UNL     1      25.497   4.003  49.391  1.00  0.00     0.089 C 
HETATM   18  C14 UNL     1      26.315   5.194  49.101  1.00  0.00    -0.002 C 
HETATM   19  C15 UNL     1      26.325   6.502  49.304  1.00  0.00     0.112 C 
HETATM   20  N5  UNL     1      25.286   7.191  50.024  1.00  0.00    -0.272 NA
ENDBRANCH   8  10
ENDBRANCH   7   8
BRANCH   5  21
HETATM   21  N1  UNL     1      26.779  -0.799  53.709  1.00  0.00    -0.324 N 
HETATM   22  C6  UNL     1      27.901  -0.045  54.167  1.00  0.00     0.240 C 
HETATM   23  O1  UNL     1      27.800   1.043  54.780  1.00  0.00    -0.268 OA
HETATM   24  H6  UNL     1      26.807  -1.696  53.203  1.00  0.00     0.169 HD
BRANCH  22  25
HETATM   25  P1  UNL     1      29.508  -0.800  53.785  1.00  0.00    -0.043 P 
HETATM   26  H7  UNL     1      29.975  -0.497  52.456  1.00  0.00     0.064 HD
HETATM   27  H8  UNL     1      30.481  -0.532  54.814  1.00  0.00     0.064 HD
ENDBRANCH  22  25
ENDBRANCH   5  21
TORSDOF 4
ENDMDL
MODEL 4
REMARK VINA RESULT:      -7.7      5.068      6.150
REMARK  4 active torsions:
REMARK  status: ('A' for Active; 'I' for Inactive)
REMARK    1  A    between atoms: C5_5  and  N1_6 
REMARK       I    between atoms: N1_6  and  C6_7 
REMARK    2  A    between atoms: C6_7  and  P1_9 
REMARK    3  A    between atoms: C8_11  and  N2_12 
REMARK    4  A    between atoms: N2_12  and  C9_13 
ROOT
HETATM    1  C1  UNL     1      22.034  -0.073  53.711  1.00  0.00     0.050 C 
HETATM    2  C2  UNL     1      22.060   0.552  52.364  1.00  0.00    -0.035 A 
HETATM    3  C3  UNL     1      21.114   0.207  51.424  1.00  0.00     0.011 A 
HETATM    4  C4  UNL     1      21.098   0.760  50.161  1.00  0.00     0.030 A 
HETATM    5  C5  UNL     1      22.072   1.687  49.855  1.00  0.00     0.037 A 
HETATM    6  C7  UNL     1      22.999   2.003  50.826  1.00  0.00     0.060 A 
HETATM    7  C8  UNL     1      23.063   1.486  52.094  1.00  0.00     0.057 A 
ENDROOT
BRANCH   7   8
HETATM    8  N2  UNL     1      24.031   1.841  53.050  1.00  0.00    -0.188 N 
HETATM    9  H10 UNL     1      23.683   2.531  53.783  1.00  0.00     0.184 HD
BRANCH   8  10
HETATM   10  C9  UNL     1      25.364   1.419  53.167  1.00  0.00     0.727 A 
HETATM   11  N3  UNL     1      26.403   2.165  53.560  1.00  0.00    -0.074 NA
HETATM   12  C10 UNL     1      27.667   1.789  53.677  1.00  0.00     0.151 A 
HETATM   13  C11 UNL     1      27.950   0.484  53.361  1.00  0.00     0.025 A 
HETATM   14  C12 UNL     1      26.927  -0.342  52.949  1.00  0.00     0.070 A 
HETATM   15  C16 UNL     1      29.373   0.196  53.532  1.00  0.00     0.131 C 
HETATM   16  N4  UNL     1      25.685   0.150  52.868  1.00  0.00    -0.066 NA
HETATM   17  C13 UNL     1      26.941  -1.763  52.554  1.00  0.00     0.089 C 
HETATM   18  C14 UNL     1      28.158  -2.494  52.949  1.00  0.00    -0.002 C 
HETATM   19  C15 UNL     1      29.400  -2.271  53.351  1.00  0.00     0.112 C 
HETATM   20  N5  UNL     1      29.943  -0.950  53.523  1.00  0.00    -0.272 NA
ENDBRANCH   8  10
ENDBRANCH   7   8
BRANCH   5  21
HETATM   21  N1  UNL     1      22.059   2.260  48.554  1.00  0.00    -0.324 N 
HETATM   22  C6  UNL     1      21.624   3.545  48.110  1.00  0.00     0.240 C 
HETATM   23  O1  UNL     1      21.155   4.420  48.875  1.00  0.00    -0.268 OA
HETATM   24  H6  UNL     1      22.451   1.509  47.968  1.00  0.00     0.169 HD
BRANCH  22  25
HETATM   25  P1  UNL     1      21.810   3.815  46.323  1.00  0.00    -0.043 P 
HETATM   26  H7  UNL     1      20.655   4.429  45.720  1.00  0.00     0.064 HD
HETATM   27  H8  UNL     1      23.048   4.482  46.011  1.00  0.00     0.064 HD
ENDBRANCH  22  25
ENDBRANCH   5  21
TORSDOF 4
ENDMDL
MODEL 5
REMARK VINA RESULT:      -7.6      5.450      7.228
REMARK  4 active torsions:
REMARK  status: ('A' for Active; 'I' for Inactive)
REMARK    1  A    between atoms: C5_5  and  N1_6 
REMARK       I    between atoms: N1_6  and  C6_7 
REMARK    2  A    between atoms: C6_7  and  P1_9 
REMARK    3  A    between atoms: C8_11  and  N2_12 
REMARK    4  A    between atoms: N2_12  and  C9_13 
ROOT
HETATM    1  C1  UNL     1      21.154  -1.614  54.645  1.00  0.00     0.050 C 
HETATM    2  C2  UNL     1      20.962  -0.725  53.471  1.00  0.00    -0.035 A 
HETATM    3  C3  UNL     1      19.702  -0.275  53.144  1.00  0.00     0.011 A 
HETATM    4  C4  UNL     1      19.475   0.552  52.064  1.00  0.00     0.030 A 
HETATM    5  C5  UNL     1      20.563   0.924  51.302  1.00  0.00     0.037 A 
HETATM    6  C7  UNL     1      21.805   0.449  51.665  1.00  0.00     0.060 A 
HETATM    7  C8  UNL     1      22.089  -0.372  52.725  1.00  0.00     0.057 A 
ENDROOT
BRANCH   7   8
HETATM    8  N2  UNL     1      23.377  -0.830  53.055  1.00  0.00    -0.188 N 
HETATM    9  H10 UNL     1      23.436  -1.883  53.208  1.00  0.00     0.184 HD
BRANCH   8  10
HETATM   10  C9  UNL     1      24.569  -0.106  53.207  1.00  0.00     0.727 A 
HETATM   11  N3  UNL     1      24.678   1.207  53.442  1.00  0.00    -0.074 NA
HETATM   12  C10 UNL     1      25.790   1.910  53.588  1.00  0.00     0.151 A 
HETATM   13  C11 UNL     1      26.971   1.218  53.488  1.00  0.00     0.025 A 
HETATM   14  C12 UNL     1      26.934  -0.138  53.246  1.00  0.00     0.070 A 
HETATM   15  C16 UNL     1      28.120   2.104  53.668  1.00  0.00     0.131 C 
HETATM   16  N4  UNL     1      25.747  -0.744  53.116  1.00  0.00    -0.066 NA
HETATM   17  C13 UNL     1      28.027  -1.116  53.094  1.00  0.00     0.089 C 
HETATM   18  C14 UNL     1      29.338  -0.645  53.575  1.00  0.00    -0.002 C 
HETATM   19  C15 UNL     1      29.966   0.473  53.901  1.00  0.00     0.112 C 
HETATM   20  N5  UNL     1      29.343   1.770  53.835  1.00  0.00    -0.272 NA
ENDBRANCH   8  10
ENDBRANCH   7   8
BRANCH   5  21
HETATM   21  N1  UNL     1      20.334   1.776  50.188  1.00  0.00    -0.324 N 
HETATM   22  C6  UNL     1      20.766   1.668  48.832  1.00  0.00     0.240 C 
HETATM   23  O1  UNL     1      21.467   0.722  48.402  1.00  0.00    -0.268 OA
HETATM   24  H6  UNL     1      19.759   2.531  50.590  1.00  0.00     0.169 HD
BRANCH  22  25
HETATM   25  P1  UNL     1      20.210   3.029  47.764  1.00  0.00    -0.043 P 
HETATM   26  H7  UNL     1      18.797   3.287  47.867  1.00  0.00     0.064 HD
HETATM   27  H8  UNL     1      21.027   4.204  47.931  1.00  0.00     0.064 HD
ENDBRANCH  22  25
ENDBRANCH   5  21
TORSDOF 4
ENDMDL
MODEL 6
REMARK VINA RESULT:      -7.6      3.978      7.823
REMARK  4 active torsions:
REMARK  status: ('A' for Active; 'I' for Inactive)
REMARK    1  A    between atoms: C5_5  and  N1_6 
REMARK       I    between atoms: N1_6  and  C6_7 
REMARK    2  A    between atoms: C6_7  and  P1_9 
REMARK    3  A    between atoms: C8_11  and  N2_12 
REMARK    4  A    between atoms: N2_12  and  C9_13 
ROOT
HETATM    1  C1  UNL     1      20.862  -0.769  54.416  1.00  0.00     0.050 C 
HETATM    2  C2  UNL     1      22.344  -0.721  54.338  1.00  0.00    -0.035 A 
HETATM    3  C3  UNL     1      23.107  -1.285  55.335  1.00  0.00     0.011 A 
HETATM    4  C4  UNL     1      24.486  -1.265  55.306  1.00  0.00     0.030 A 
HETATM    5  C5  UNL     1      25.094  -0.654  54.230  1.00  0.00     0.037 A 
HETATM    6  C7  UNL     1      24.292  -0.102  53.254  1.00  0.00     0.060 A 
HETATM    7  C8  UNL     1      22.922  -0.092  53.231  1.00  0.00     0.057 A 
ENDROOT
BRANCH   7   8
HETATM    8  N2  UNL     1      22.146   0.486  52.211  1.00  0.00    -0.188 N 
HETATM    9  H10 UNL     1      21.510  -0.204  51.707  1.00  0.00     0.184 HD
BRANCH   8  10
HETATM   10  C9  UNL     1      22.098   1.819  51.775  1.00  0.00     0.727 A 
HETATM   11  N3  UNL     1      21.293   2.780  52.243  1.00  0.00    -0.074 NA
HETATM   12  C10 UNL     1      21.230   4.042  51.847  1.00  0.00     0.151 A 
HETATM   13  C11 UNL     1      22.087   4.412  50.841  1.00  0.00     0.025 A 
HETATM   14  C12 UNL     1      22.944   3.473  50.311  1.00  0.00     0.070 A 
HETATM   15  C16 UNL     1      21.919   5.823  50.497  1.00  0.00     0.131 C 
HETATM   16  N4  UNL     1      22.919   2.223  50.792  1.00  0.00    -0.066 NA
HETATM   17  C13 UNL     1      23.954   3.589  49.243  1.00  0.00     0.089 C 
HETATM   18  C14 UNL     1      24.323   4.974  48.901  1.00  0.00    -0.002 C 
HETATM   19  C15 UNL     1      23.891   6.215  49.055  1.00  0.00     0.112 C 
HETATM   20  N5  UNL     1      22.678   6.542  49.758  1.00  0.00    -0.272 NA
ENDBRANCH   8  10
ENDBRANCH   7   8
BRANCH   5  21
HETATM   21  N1  UNL     1      26.516  -0.631  54.195  1.00  0.00    -0.324 N 
HETATM   22  C6  UNL     1      27.430   0.459  54.308  1.00  0.00     0.240 C 
HETATM   23  O1  UNL     1      27.072   1.649  54.469  1.00  0.00    -0.268 OA
HETATM   24  H6  UNL     1      26.758  -1.624  54.062  1.00  0.00     0.169 HD
BRANCH  22  25
HETATM   25  P1  UNL     1      29.178  -0.024  54.199  1.00  0.00    -0.043 P 
HETATM   26  H7  UNL     1      29.512  -0.664  52.953  1.00  0.00     0.064 HD
HETATM   27  H8  UNL     1      30.055   1.068  54.541  1.00  0.00     0.064 HD
ENDBRANCH  22  25
ENDBRANCH   5  21
TORSDOF 4
ENDMDL
MODEL 7
REMARK VINA RESULT:      -7.6      2.860      6.814
REMARK  4 active torsions:
REMARK  status: ('A' for Active; 'I' for Inactive)
REMARK    1  A    between atoms: C5_5  and  N1_6 
REMARK       I    between atoms: N1_6  and  C6_7 
REMARK    2  A    between atoms: C6_7  and  P1_9 
REMARK    3  A    between atoms: C8_11  and  N2_12 
REMARK    4  A    between atoms: N2_12  and  C9_13 
ROOT
HETATM    1  C1  UNL     1      23.434   4.772  50.792  1.00  0.00     0.050 C 
HETATM    2  C2  UNL     1      24.452   3.822  51.309  1.00  0.00    -0.035 A 
HETATM    3  C3  UNL     1      24.261   3.198  52.522  1.00  0.00     0.011 A 
HETATM    4  C4  UNL     1      25.177   2.308  53.043  1.00  0.00     0.030 A 
HETATM    5  C5  UNL     1      26.313   2.053  52.304  1.00  0.00     0.037 A 
HETATM    6  C7  UNL     1      26.464   2.700  51.096  1.00  0.00     0.060 A 
HETATM    7  C8  UNL     1      25.589   3.591  50.530  1.00  0.00     0.057 A 
ENDROOT
BRANCH   7   8
HETATM    8  N2  UNL     1      25.788   4.226  49.293  1.00  0.00    -0.188 N 
HETATM    9  H10 UNL     1      25.164   3.859  48.511  1.00  0.00     0.184 HD
BRANCH   8  10
HETATM   10  C9  UNL     1      26.679   5.256  48.953  1.00  0.00     0.727 A 
HETATM   11  N3  UNL     1      26.417   6.568  48.954  1.00  0.00    -0.074 NA
HETATM   12  C10 UNL     1      27.240   7.555  48.637  1.00  0.00     0.151 A 
HETATM   13  C11 UNL     1      28.511   7.197  48.263  1.00  0.00     0.025 A 
HETATM   14  C12 UNL     1      28.851   5.862  48.238  1.00  0.00     0.070 A 
HETATM   15  C16 UNL     1      29.318   8.373  47.940  1.00  0.00     0.131 C 
HETATM   16  N4  UNL     1      27.933   4.950  48.580  1.00  0.00    -0.066 NA
HETATM   17  C13 UNL     1      30.121   5.202  47.883  1.00  0.00     0.089 C 
HETATM   18  C14 UNL     1      31.287   6.101  47.849  1.00  0.00    -0.002 C 
HETATM   19  C15 UNL     1      31.584   7.390  47.797  1.00  0.00     0.112 C 
HETATM   20  N5  UNL     1      30.582   8.424  47.753  1.00  0.00    -0.272 NA
ENDBRANCH   8  10
ENDBRANCH   7   8
BRANCH   5  21
HETATM   21  N1  UNL     1      27.261   1.136  52.837  1.00  0.00    -0.324 N 
HETATM   22  C6  UNL     1      28.370   1.350  53.710  1.00  0.00     0.240 C 
HETATM   23  O1  UNL     1      28.685   2.473  54.166  1.00  0.00    -0.268 OA
HETATM   24  H6  UNL     1      26.960   0.237  52.435  1.00  0.00     0.169 HD
BRANCH  22  25
HETATM   25  P1  UNL     1      29.298  -0.159  54.112  1.00  0.00    -0.043 P 
HETATM   26  H7  UNL     1      28.837  -0.804  55.314  1.00  0.00     0.064 HD
HETATM   27  H8  UNL     1      29.391  -1.045  52.979  1.00  0.00     0.064 HD
ENDBRANCH  22  25
ENDBRANCH   5  21
TORSDOF 4
ENDMDL
MODEL 8
REMARK VINA RESULT:      -7.5      1.455      1.907
REMARK  4 active torsions:
REMARK  status: ('A' for Active; 'I' for Inactive)
REMARK    1  A    between atoms: C5_5  and  N1_6 
REMARK       I    between atoms: N1_6  and  C6_7 
REMARK    2  A    between atoms: C6_7  and  P1_9 
REMARK    3  A    between atoms: C8_11  and  N2_12 
REMARK    4  A    between atoms: N2_12  and  C9_13 
ROOT
HETATM    1  C1  UNL     1      22.475   5.444  51.592  1.00  0.00     0.050 C 
HETATM    2  C2  UNL     1      23.747   5.783  50.905  1.00  0.00    -0.035 A 
HETATM    3  C3  UNL     1      24.076   7.100  50.669  1.00  0.00     0.011 A 
HETATM    4  C4  UNL     1      25.245   7.463  50.036  1.00  0.00     0.030 A 
HETATM    5  C5  UNL     1      26.096   6.454  49.635  1.00  0.00     0.037 A 
HETATM    6  C7  UNL     1      25.728   5.151  49.892  1.00  0.00     0.060 A 
HETATM    7  C8  UNL     1      24.582   4.732  50.516  1.00  0.00     0.057 A 
ENDROOT
BRANCH   7   8
HETATM    8  N2  UNL     1      24.250   3.387  50.754  1.00  0.00    -0.188 N 
HETATM    9  H10 UNL     1      23.510   3.000  50.094  1.00  0.00     0.184 HD
BRANCH   8  10
HETATM   10  C9  UNL     1      24.751   2.504  51.723  1.00  0.00     0.727 A 
HETATM   11  N3  UNL     1      24.081   1.506  52.312  1.00  0.00    -0.074 NA
HETATM   12  C10 UNL     1      24.531   0.663  53.227  1.00  0.00     0.151 A 
HETATM   13  C11 UNL     1      25.836   0.826  53.622  1.00  0.00     0.025 A 
HETATM   14  C12 UNL     1      26.585   1.834  53.057  1.00  0.00     0.070 A 
HETATM   15  C16 UNL     1      26.211  -0.163  54.631  1.00  0.00     0.131 C 
HETATM   16  N4  UNL     1      26.022   2.629  52.138  1.00  0.00    -0.066 NA
HETATM   17  C13 UNL     1      27.987   2.233  53.287  1.00  0.00     0.089 C 
HETATM   18  C14 UNL     1      28.800   1.224  53.987  1.00  0.00    -0.002 C 
HETATM   19  C15 UNL     1      28.665   0.131  54.721  1.00  0.00     0.112 C 
HETATM   20  N5  UNL     1      27.384  -0.428  55.066  1.00  0.00    -0.272 NA
ENDBRANCH   8  10
ENDBRANCH   7   8
BRANCH   5  21
HETATM   21  N1  UNL     1      27.304   6.824  48.982  1.00  0.00    -0.324 N 
HETATM   22  C6  UNL     1      28.340   6.018  48.420  1.00  0.00     0.240 C 
HETATM   23  O1  UNL     1      28.323   4.765  48.427  1.00  0.00    -0.268 OA
HETATM   24  H6  UNL     1      27.270   7.853  49.002  1.00  0.00     0.169 HD
BRANCH  22  25
HETATM   25  P1  UNL     1      29.702   6.968  47.684  1.00  0.00    -0.043 P 
HETATM   26  H7  UNL     1      30.159   6.425  46.431  1.00  0.00     0.064 HD
HETATM   27  H8  UNL     1      29.400   8.376  47.628  1.00  0.00     0.064 HD
ENDBRANCH  22  25
ENDBRANCH   5  21
TORSDOF 4
ENDMDL
MODEL 9
REMARK VINA RESULT:      -7.4      3.870      4.861
REMARK  4 active torsions:
REMARK  status: ('A' for Active; 'I' for Inactive)
REMARK    1  A    between atoms: C5_5  and  N1_6 
REMARK       I    between atoms: N1_6  and  C6_7 
REMARK    2  A    between atoms: C6_7  and  P1_9 
REMARK    3  A    between atoms: C8_11  and  N2_12 
REMARK    4  A    between atoms: N2_12  and  C9_13 
ROOT
HETATM    1  C1  UNL     1      27.016   5.896  48.673  1.00  0.00     0.050 C 
HETATM    2  C2  UNL     1      25.561   5.629  48.806  1.00  0.00    -0.035 A 
HETATM    3  C3  UNL     1      24.645   6.592  48.446  1.00  0.00     0.011 A 
HETATM    4  C4  UNL     1      23.286   6.389  48.551  1.00  0.00     0.030 A 
HETATM    5  C5  UNL     1      22.855   5.172  49.036  1.00  0.00     0.037 A 
HETATM    6  C7  UNL     1      23.806   4.237  49.385  1.00  0.00     0.060 A 
HETATM    7  C8  UNL     1      25.166   4.383  49.302  1.00  0.00     0.057 A 
ENDROOT
BRANCH   7   8
HETATM    8  N2  UNL     1      26.098   3.397  49.672  1.00  0.00    -0.188 N 
HETATM    9  H10 UNL     1      26.881   3.254  48.965  1.00  0.00     0.184 HD
BRANCH   8  10
HETATM   10  C9  UNL     1      26.134   2.593  50.821  1.00  0.00     0.727 A 
HETATM   11  N3  UNL     1      25.165   1.776  51.252  1.00  0.00    -0.074 NA
HETATM   12  C10 UNL     1      25.177   1.010  52.331  1.00  0.00     0.151 A 
HETATM   13  C11 UNL     1      26.313   1.053  53.101  1.00  0.00     0.025 A 
HETATM   14  C12 UNL     1      27.351   1.872  52.717  1.00  0.00     0.070 A 
HETATM   15  C16 UNL     1      26.201   0.165  54.257  1.00  0.00     0.131 C 
HETATM   16  N4  UNL     1      27.226   2.605  51.603  1.00  0.00    -0.066 NA
HETATM   17  C13 UNL     1      28.666   2.112  53.341  1.00  0.00     0.089 C 
HETATM   18  C14 UNL     1      29.056   1.108  54.346  1.00  0.00    -0.002 C 
HETATM   19  C15 UNL     1      28.531   0.148  55.090  1.00  0.00     0.112 C 
HETATM   20  N5  UNL     1      27.132  -0.190  55.060  1.00  0.00    -0.272 NA
ENDBRANCH   8  10
ENDBRANCH   7   8
BRANCH   5  21
HETATM   21  N1  UNL     1      21.454   4.958  49.147  1.00  0.00    -0.324 N 
HETATM   22  C6  UNL     1      20.613   4.892  50.298  1.00  0.00     0.240 C 
HETATM   23  O1  UNL     1      21.032   5.028  51.470  1.00  0.00    -0.268 OA
HETATM   24  H6  UNL     1      21.160   4.854  48.165  1.00  0.00     0.169 HD
BRANCH  22  25
HETATM   25  P1  UNL     1      18.861   4.594  49.920  1.00  0.00    -0.043 P 
HETATM   26  H7  UNL     1      18.554   3.201  49.720  1.00  0.00     0.064 HD
HETATM   27  H8  UNL     1      17.993   5.246  50.868  1.00  0.00     0.064 HD
ENDBRANCH  22  25
ENDBRANCH   5  21
TORSDOF 4
ENDMDL
