MODEL 1
REMARK VINA RESULT:      -7.0      0.000      0.000
REMARK  1 active torsions:
REMARK  status: ('A' for Active; 'I' for Inactive)
REMARK    1  A    between atoms: C2_2  and  C3_3 
ROOT
HETATM    1  C3  UNL     1      26.596   0.797  52.511  1.00  0.00     0.061 C 
HETATM    2  C4  UNL     1      25.581   1.648  52.045  1.00  0.00     0.013 C 
HETATM    3  C5  UNL     1      24.250   2.173  51.586  1.00  0.00     0.098 C 
HETATM    4 BR1  UNL     1      24.071   4.029  52.061  1.00  0.00    -0.086 Br
HETATM    5  C6  UNL     1      23.068   1.392  52.157  1.00  0.00     0.039 A 
HETATM    6  C7  UNL     1      23.638   1.514  53.355  1.00  0.00     0.028 A 
HETATM    7  C8  UNL     1      22.926   0.286  53.490  1.00  0.00     0.078 A 
HETATM    8  C9  UNL     1      22.101  -0.679  52.997  1.00  0.00     0.116 A 
HETATM    9 CL1  UNL     1      21.978  -1.906  54.223  1.00  0.00    -0.066 Cl
HETATM   10  N1  UNL     1      21.728  -0.388  51.701  1.00  0.00    -0.248 NA
HETATM   11  C10 UNL     1      22.279   0.765  51.238  1.00  0.00     0.021 A 
HETATM   12  C11 UNL     1      22.037   1.259  49.862  1.00  0.00     0.066 C 
HETATM   13  C12 UNL     1      23.976  -0.308  54.504  1.00  0.00     0.271 A 
HETATM   14  O1  UNL     1      24.866  -0.468  53.618  1.00  0.00     0.000 OA
HETATM   15  N2  UNL     1      25.403  -0.815  54.460  1.00  0.00     0.198 N 
HETATM   16  S1  UNL     1      26.497  -0.934  53.024  1.00  0.00     0.267 SA
HETATM   17  O2  UNL     1      27.819  -1.357  53.494  1.00  0.00    -0.110 OA
HETATM   18  O3  UNL     1      26.006  -1.834  52.015  1.00  0.00    -0.110 OA
HETATM   19  H10 UNL     1      25.218  -0.956  55.531  1.00  0.00     0.338 HD
ENDROOT
BRANCH   1  20
HETATM   20  C2  UNL     1      27.873   1.522  52.646  1.00  0.00     0.013 C 
HETATM   21  C1  UNL     1      27.932   2.258  53.713  1.00  0.00     0.013 C 
ENDBRANCH   1  20
TORSDOF 1
ENDMDL
MODEL 2
REMARK VINA RESULT:      -6.9      2.508      4.902
REMARK  1 active torsions:
REMARK  status: ('A' for Active; 'I' for Inactive)
REMARK    1  A    between atoms: C2_2  and  C3_3 
ROOT
HETATM    1  C3  UNL     1      24.372   0.480  53.754  1.00  0.00     0.061 C 
HETATM    2  C4  UNL     1      25.271   1.347  53.115  1.00  0.00     0.013 C 
HETATM    3  C5  UNL     1      26.537   1.995  52.629  1.00  0.00     0.098 C 
HETATM    4 BR1  UNL     1      26.252   2.789  50.899  1.00  0.00    -0.086 Br
HETATM    5  C6  UNL     1      27.714   1.025  52.550  1.00  0.00     0.039 A 
HETATM    6  C7  UNL     1      26.909   0.188  51.897  1.00  0.00     0.028 A 
HETATM    7  C8  UNL     1      27.808  -0.710  52.543  1.00  0.00     0.078 A 
HETATM    8  C9  UNL     1      28.886  -0.959  53.338  1.00  0.00     0.116 A 
HETATM    9 CL1  UNL     1      29.005  -2.686  53.492  1.00  0.00    -0.066 Cl
HETATM   10  N1  UNL     1      29.440   0.220  53.792  1.00  0.00    -0.248 NA
HETATM   11  C10 UNL     1      28.775   1.321  53.354  1.00  0.00     0.021 A 
HETATM   12  C11 UNL     1      29.179   2.694  53.740  1.00  0.00     0.066 C 
HETATM   13  C12 UNL     1      26.717  -1.840  52.672  1.00  0.00     0.271 A 
HETATM   14  O1  UNL     1      26.066  -1.227  53.567  1.00  0.00     0.000 OA
HETATM   15  N2  UNL     1      25.454  -2.083  53.471  1.00  0.00     0.198 N 
HETATM   16  S1  UNL     1      24.706  -1.011  54.723  1.00  0.00     0.267 SA
HETATM   17  O2  UNL     1      23.426  -1.603  55.122  1.00  0.00    -0.110 OA
HETATM   18  O3  UNL     1      25.551  -0.809  55.868  1.00  0.00    -0.110 OA
HETATM   19  H10 UNL     1      25.450  -3.009  52.885  1.00  0.00     0.338 HD
ENDROOT
BRANCH   1  20
HETATM   20  C2  UNL     1      22.976   0.868  53.480  1.00  0.00     0.013 C 
HETATM   21  C1  UNL     1      22.598   0.593  52.269  1.00  0.00     0.013 C 
ENDBRANCH   1  20
TORSDOF 1
ENDMDL
MODEL 3
REMARK VINA RESULT:      -6.8      4.024      5.254
REMARK  1 active torsions:
REMARK  status: ('A' for Active; 'I' for Inactive)
REMARK    1  A    between atoms: C2_2  and  C3_3 
ROOT
HETATM    1  C3  UNL     1      22.466   0.423  52.277  1.00  0.00     0.061 C 
HETATM    2  C4  UNL     1      23.772   0.926  52.387  1.00  0.00     0.013 C 
HETATM    3  C5  UNL     1      25.001   1.773  52.209  1.00  0.00     0.098 C 
HETATM    4 BR1  UNL     1      26.042   1.777  53.827  1.00  0.00    -0.086 Br
HETATM    5  C6  UNL     1      24.685   3.213  51.811  1.00  0.00     0.039 A 
HETATM    6  C7  UNL     1      23.801   3.236  52.808  1.00  0.00     0.028 A 
HETATM    7  C8  UNL     1      23.229   4.159  51.885  1.00  0.00     0.078 A 
HETATM    8  C9  UNL     1      23.252   4.843  50.707  1.00  0.00     0.116 A 
HETATM    9 CL1  UNL     1      21.769   5.747  50.626  1.00  0.00    -0.066 Cl
HETATM   10  N1  UNL     1      24.379   4.524  49.978  1.00  0.00    -0.248 NA
HETATM   11  C10 UNL     1      25.168   3.607  50.598  1.00  0.00     0.021 A 
HETATM   12  C11 UNL     1      26.417   3.097  49.985  1.00  0.00     0.066 C 
HETATM   13  C12 UNL     1      21.756   3.821  52.332  1.00  0.00     0.271 A 
HETATM   14  O1  UNL     1      21.763   2.678  51.789  1.00  0.00     0.000 OA
HETATM   15  N2  UNL     1      20.791   2.661  52.204  1.00  0.00     0.198 N 
HETATM   16  S1  UNL     1      21.055   1.083  51.358  1.00  0.00     0.267 SA
HETATM   17  O2  UNL     1      19.892   0.229  51.616  1.00  0.00    -0.110 OA
HETATM   18  O3  UNL     1      21.272   1.231  49.945  1.00  0.00    -0.110 OA
HETATM   19  H10 UNL     1      20.153   3.334  52.787  1.00  0.00     0.338 HD
ENDROOT
BRANCH   1  20
HETATM   20  C2  UNL     1      22.286  -0.770  53.125  1.00  0.00     0.013 C 
HETATM   21  C1  UNL     1      22.056  -0.481  54.369  1.00  0.00     0.013 C 
ENDBRANCH   1  20
TORSDOF 1
ENDMDL
MODEL 4
REMARK VINA RESULT:      -6.8      3.221      4.338
REMARK  1 active torsions:
REMARK  status: ('A' for Active; 'I' for Inactive)
REMARK    1  A    between atoms: C2_2  and  C3_3 
ROOT
HETATM    1  C3  UNL     1      24.568   0.534  53.583  1.00  0.00     0.061 C 
HETATM    2  C4  UNL     1      23.421   1.101  53.006  1.00  0.00     0.013 C 
HETATM    3  C5  UNL     1      22.494   2.038  52.284  1.00  0.00     0.098 C 
HETATM    4 BR1  UNL     1      21.106   1.042  51.397  1.00  0.00    -0.086 Br
HETATM    5  C6  UNL     1      23.210   2.921  51.263  1.00  0.00     0.039 A 
HETATM    6  C7  UNL     1      23.796   1.817  50.802  1.00  0.00     0.028 A 
HETATM    7  C8  UNL     1      24.772   2.815  50.509  1.00  0.00     0.078 A 
HETATM    8  C9  UNL     1      25.197   4.109  50.510  1.00  0.00     0.116 A 
HETATM    9 CL1  UNL     1      26.814   4.103  49.872  1.00  0.00    -0.066 Cl
HETATM   10  N1  UNL     1      24.248   4.935  51.076  1.00  0.00    -0.248 NA
HETATM   11  C10 UNL     1      23.147   4.262  51.501  1.00  0.00     0.021 A 
HETATM   12  C11 UNL     1      22.011   4.946  52.164  1.00  0.00     0.066 C 
HETATM   13  C12 UNL     1      25.972   1.808  50.674  1.00  0.00     0.271 A 
HETATM   14  O1  UNL     1      25.851   1.737  51.932  1.00  0.00     0.000 OA
HETATM   15  N2  UNL     1      26.658   1.067  51.804  1.00  0.00     0.198 N 
HETATM   16  S1  UNL     1      26.275   1.133  53.571  1.00  0.00     0.267 SA
HETATM   17  O2  UNL     1      27.118   0.148  54.256  1.00  0.00    -0.110 OA
HETATM   18  O3  UNL     1      26.459   2.441  54.139  1.00  0.00    -0.110 OA
HETATM   19  H10 UNL     1      27.262   0.684  50.974  1.00  0.00     0.338 HD
ENDROOT
BRANCH   1  20
HETATM   20  C2  UNL     1      24.262  -0.771  54.197  1.00  0.00     0.013 C 
HETATM   21  C1  UNL     1      22.996  -0.939  54.433  1.00  0.00     0.013 C 
ENDBRANCH   1  20
TORSDOF 1
ENDMDL
MODEL 5
REMARK VINA RESULT:      -6.7      3.495      5.202
REMARK  1 active torsions:
REMARK  status: ('A' for Active; 'I' for Inactive)
REMARK    1  A    between atoms: C2_2  and  C3_3 
ROOT
HETATM    1  C3  UNL     1      23.049   1.498  52.470  1.00  0.00     0.061 C 
HETATM    2  C4  UNL     1      23.496   0.299  53.046  1.00  0.00     0.013 C 
HETATM    3  C5  UNL     1      24.379  -0.824  53.515  1.00  0.00     0.098 C 
HETATM    4 BR1  UNL     1      23.657  -1.606  55.118  1.00  0.00    -0.086 Br
HETATM    5  C6  UNL     1      25.819  -0.385  53.774  1.00  0.00     0.039 A 
HETATM    6  C7  UNL     1      25.324   0.631  54.480  1.00  0.00     0.028 A 
HETATM    7  C8  UNL     1      26.549   1.176  53.996  1.00  0.00     0.078 A 
HETATM    8  C9  UNL     1      27.713   1.069  53.295  1.00  0.00     0.116 A 
HETATM    9 CL1  UNL     1      28.479   2.628  53.359  1.00  0.00    -0.066 Cl
HETATM   10  N1  UNL     1      27.830  -0.185  52.731  1.00  0.00    -0.248 NA
HETATM   11  C10 UNL     1      26.764  -0.986  52.996  1.00  0.00     0.021 A 
HETATM   12  C11 UNL     1      26.664  -2.367  52.468  1.00  0.00     0.066 C 
HETATM   13  C12 UNL     1      25.974   2.642  53.949  1.00  0.00     0.271 A 
HETATM   14  O1  UNL     1      25.230   2.408  52.952  1.00  0.00     0.000 OA
HETATM   15  N2  UNL     1      24.973   3.420  53.119  1.00  0.00     0.198 N 
HETATM   16  S1  UNL     1      24.003   2.833  51.709  1.00  0.00     0.267 SA
HETATM   17  O2  UNL     1      23.079   3.901  51.318  1.00  0.00    -0.110 OA
HETATM   18  O3  UNL     1      24.816   2.432  50.594  1.00  0.00    -0.110 OA
HETATM   19  H10 UNL     1      25.259   4.218  53.813  1.00  0.00     0.338 HD
ENDROOT
BRANCH   1  20
HETATM   20  C2  UNL     1      21.589   1.645  52.621  1.00  0.00     0.013 C 
HETATM   21  C1  UNL     1      21.033   0.635  53.217  1.00  0.00     0.013 C 
ENDBRANCH   1  20
TORSDOF 1
ENDMDL
MODEL 6
REMARK VINA RESULT:      -6.5      3.942      5.118
REMARK  1 active torsions:
REMARK  status: ('A' for Active; 'I' for Inactive)
REMARK    1  A    between atoms: C2_2  and  C3_3 
ROOT
HETATM    1  C3  UNL     1      23.759   1.428  52.431  1.00  0.00     0.061 C 
HETATM    2  C4  UNL     1      22.767   1.655  51.464  1.00  0.00     0.013 C 
HETATM    3  C5  UNL     1      21.875   2.323  50.455  1.00  0.00     0.098 C 
HETATM    4 BR1  UNL     1      21.375   1.071  49.082  1.00  0.00    -0.086 Br
HETATM    5  C6  UNL     1      22.517   3.549  49.808  1.00  0.00     0.039 A 
HETATM    6  C7  UNL     1      23.598   2.800  49.591  1.00  0.00     0.028 A 
HETATM    7  C8  UNL     1      24.161   4.104  49.717  1.00  0.00     0.078 A 
HETATM    8  C9  UNL     1      24.038   5.448  49.904  1.00  0.00     0.116 A 
HETATM    9 CL1  UNL     1      25.651   6.095  49.943  1.00  0.00    -0.066 Cl
HETATM   10  N1  UNL     1      22.715   5.799  50.073  1.00  0.00    -0.248 NA
HETATM   11  C10 UNL     1      21.874   4.732  50.025  1.00  0.00     0.021 A 
HETATM   12  C11 UNL     1      20.410   4.872  50.209  1.00  0.00     0.066 C 
HETATM   13  C12 UNL     1      25.510   3.553  50.316  1.00  0.00     0.271 A 
HETATM   14  O1  UNL     1      24.988   3.244  51.427  1.00  0.00     0.000 OA
HETATM   15  N2  UNL     1      25.977   2.919  51.611  1.00  0.00     0.198 N 
HETATM   16  S1  UNL     1      25.000   2.565  53.092  1.00  0.00     0.267 SA
HETATM   17  O2  UNL     1      25.851   1.830  54.032  1.00  0.00    -0.110 OA
HETATM   18  O3  UNL     1      24.465   3.748  53.709  1.00  0.00    -0.110 OA
HETATM   19  H10 UNL     1      26.932   2.904  51.073  1.00  0.00     0.338 HD
ENDROOT
BRANCH   1  20
HETATM   20  C2  UNL     1      23.771   0.016  52.855  1.00  0.00     0.013 C 
HETATM   21  C1  UNL     1      22.583  -0.503  52.935  1.00  0.00     0.013 C 
ENDBRANCH   1  20
TORSDOF 1
ENDMDL
MODEL 7
REMARK VINA RESULT:      -6.4     10.290     11.631
REMARK  1 active torsions:
REMARK  status: ('A' for Active; 'I' for Inactive)
REMARK    1  A    between atoms: C2_2  and  C3_3 
ROOT
HETATM    1  C3  UNL     1      27.931   7.182  48.290  1.00  0.00     0.061 C 
HETATM    2  C4  UNL     1      29.136   6.848  47.653  1.00  0.00     0.013 C 
HETATM    3  C5  UNL     1      30.467   6.948  46.961  1.00  0.00     0.098 C 
HETATM    4 BR1  UNL     1      31.561   5.430  47.409  1.00  0.00    -0.086 Br
HETATM    5  C6  UNL     1      31.224   8.231  47.302  1.00  0.00     0.039 A 
HETATM    6  C7  UNL     1      30.974   7.972  48.585  1.00  0.00     0.028 A 
HETATM    7  C8  UNL     1      31.046   9.396  48.579  1.00  0.00     0.078 A 
HETATM    8  C9  UNL     1      31.238  10.582  47.936  1.00  0.00     0.116 A 
HETATM    9 CL1  UNL     1      30.969  11.835  49.111  1.00  0.00    -0.066 Cl
HETATM   10  N1  UNL     1      31.493  10.376  46.596  1.00  0.00    -0.248 NA
HETATM   11  C10 UNL     1      31.475   9.062  46.250  1.00  0.00     0.021 A 
HETATM   12  C11 UNL     1      31.697   8.609  44.856  1.00  0.00     0.066 C 
HETATM   13  C12 UNL     1      30.015   9.535  49.763  1.00  0.00     0.271 A 
HETATM   14  O1  UNL     1      29.025   9.191  49.054  1.00  0.00     0.000 OA
HETATM   15  N2  UNL     1      28.530   9.330  49.977  1.00  0.00     0.198 N 
HETATM   16  S1  UNL     1      27.294   8.807  48.764  1.00  0.00     0.267 SA
HETATM   17  O2  UNL     1      26.020   8.621  49.465  1.00  0.00    -0.110 OA
HETATM   18  O3  UNL     1      27.143   9.735  47.676  1.00  0.00    -0.110 OA
HETATM   19  H10 UNL     1      28.796   9.636  50.995  1.00  0.00     0.338 HD
ENDROOT
BRANCH   1  20
HETATM   20  C2  UNL     1      27.176   5.971  48.661  1.00  0.00     0.013 C 
HETATM   21  C1  UNL     1      27.884   4.885  48.586  1.00  0.00     0.013 C 
ENDBRANCH   1  20
TORSDOF 1
ENDMDL
MODEL 8
REMARK VINA RESULT:      -6.3      2.556      3.048
REMARK  1 active torsions:
REMARK  status: ('A' for Active; 'I' for Inactive)
REMARK    1  A    between atoms: C2_2  and  C3_3 
ROOT
HETATM    1  C3  UNL     1      24.040   0.658  53.065  1.00  0.00     0.061 C 
HETATM    2  C4  UNL     1      23.885   1.516  51.966  1.00  0.00     0.013 C 
HETATM    3  C5  UNL     1      23.331   2.192  50.743  1.00  0.00     0.098 C 
HETATM    4 BR1  UNL     1      23.866   4.040  50.710  1.00  0.00    -0.086 Br
HETATM    5  C6  UNL     1      21.809   2.108  50.649  1.00  0.00     0.039 A 
HETATM    6  C7  UNL     1      21.763   2.519  51.916  1.00  0.00     0.028 A 
HETATM    7  C8  UNL     1      20.579   1.731  51.818  1.00  0.00     0.078 A 
HETATM    8  C9  UNL     1      19.716   0.951  51.108  1.00  0.00     0.116 A 
HETATM    9 CL1  UNL     1      18.491   0.421  52.223  1.00  0.00    -0.066 Cl
HETATM   10  N1  UNL     1      20.151   0.798  49.808  1.00  0.00    -0.248 NA
HETATM   11  C10 UNL     1      21.323   1.440  49.564  1.00  0.00     0.021 A 
HETATM   12  C11 UNL     1      21.990   1.389  48.241  1.00  0.00     0.066 C 
HETATM   13  C12 UNL     1      20.639   1.303  53.333  1.00  0.00     0.271 A 
HETATM   14  O1  UNL     1      21.633   0.537  53.165  1.00  0.00     0.000 OA
HETATM   15  N2  UNL     1      21.499   0.411  54.205  1.00  0.00     0.198 N 
HETATM   16  S1  UNL     1      22.913  -0.602  53.707  1.00  0.00     0.267 SA
HETATM   17  O2  UNL     1      23.504  -1.183  54.917  1.00  0.00    -0.110 OA
HETATM   18  O3  UNL     1      22.564  -1.633  52.768  1.00  0.00    -0.110 OA
HETATM   19  H10 UNL     1      20.813   0.775  54.978  1.00  0.00     0.338 HD
ENDROOT
BRANCH   1  20
HETATM   20  C2  UNL     1      25.292   0.947  53.789  1.00  0.00     0.013 C 
HETATM   21  C1  UNL     1      25.701   2.169  53.634  1.00  0.00     0.013 C 
ENDBRANCH   1  20
TORSDOF 1
ENDMDL
MODEL 9
REMARK VINA RESULT:      -6.3     11.206     12.630
REMARK  1 active torsions:
REMARK  status: ('A' for Active; 'I' for Inactive)
REMARK    1  A    between atoms: C2_2  and  C3_3 
ROOT
HETATM    1  C3  UNL     1      32.805   9.339  46.106  1.00  0.00     0.061 C 
HETATM    2  C4  UNL     1      31.801   9.037  47.039  1.00  0.00     0.013 C 
HETATM    3  C5  UNL     1      30.910   8.295  47.996  1.00  0.00     0.098 C 
HETATM    4 BR1  UNL     1      30.342   9.466  49.413  1.00  0.00    -0.086 Br
HETATM    5  C6  UNL     1      31.577   7.061  48.601  1.00  0.00     0.039 A 
HETATM    6  C7  UNL     1      32.629   7.832  48.875  1.00  0.00     0.028 A 
HETATM    7  C8  UNL     1      33.236   6.553  48.703  1.00  0.00     0.078 A 
HETATM    8  C9  UNL     1      33.160   5.217  48.451  1.00  0.00     0.116 A 
HETATM    9 CL1  UNL     1      34.793   4.621  48.418  1.00  0.00    -0.066 Cl
HETATM   10  N1  UNL     1      31.852   4.833  48.238  1.00  0.00    -0.248 NA
HETATM   11  C10 UNL     1      30.977   5.870  48.315  1.00  0.00     0.021 A 
HETATM   12  C11 UNL     1      29.522   5.694  48.094  1.00  0.00     0.066 C 
HETATM   13  C12 UNL     1      34.579   7.173  48.158  1.00  0.00     0.271 A 
HETATM   14  O1  UNL     1      34.071   7.516  47.052  1.00  0.00     0.000 OA
HETATM   15  N2  UNL     1      35.052   7.880  46.905  1.00  0.00     0.198 N 
HETATM   16  S1  UNL     1      34.095   8.272  45.421  1.00  0.00     0.267 SA
HETATM   17  O2  UNL     1      34.941   9.076  44.534  1.00  0.00    -0.110 OA
HETATM   18  O3  UNL     1      33.610   7.103  44.738  1.00  0.00    -0.110 OA
HETATM   19  H10 UNL     1      35.994   7.900  47.464  1.00  0.00     0.338 HD
ENDROOT
BRANCH   1  20
HETATM   20  C2  UNL     1      32.780  10.769  45.746  1.00  0.00     0.013 C 
HETATM   21  C1  UNL     1      32.882  11.555  46.774  1.00  0.00     0.013 C 
ENDBRANCH   1  20
TORSDOF 1
ENDMDL
