MODEL 1
REMARK VINA RESULT:      -8.2      0.000      0.000
REMARK  5 active torsions:
REMARK  status: ('A' for Active; 'I' for Inactive)
REMARK    1  A    between atoms: C2_2  and  O1_3 
REMARK    2  A    between atoms: O1_3  and  C3_4 
REMARK    3  A    between atoms: C7_8  and  C8_9 
REMARK    4  A    between atoms: C8_9  and  C9_10 
REMARK    5  A    between atoms: C11_12  and  C12_13 
ROOT
HETATM    1  C3  UNL     1      19.558  -0.362  53.334  1.00  0.00     0.146 C 
HETATM    2  C4  UNL     1      20.970  -0.815  53.382  1.00  0.00     0.001 C 
HETATM    3  C5  UNL     1      22.172  -0.439  53.773  1.00  0.00    -0.027 C 
HETATM    4  C6  UNL     1      23.634  -0.494  54.015  1.00  0.00     0.043 C 
HETATM    5  C7  UNL     1      24.351   0.589  53.303  1.00  0.00     0.039 C 
HETATM    6  C15 UNL     1      23.320   1.207  52.657  1.00  0.00     0.033 C 
HETATM    7  C16 UNL     1      23.309   2.377  51.762  1.00  0.00     0.004 C 
HETATM    8  C17 UNL     1      22.068   2.604  51.359  1.00  0.00     0.131 C 
HETATM    9  O3  UNL     1      21.170   1.727  51.856  1.00  0.00    -0.363 OA
HETATM   10  C18 UNL     1      19.792   1.747  51.947  1.00  0.00     0.177 C 
HETATM   11  C19 UNL     1      19.156   0.400  52.128  1.00  0.00     0.062 C 
ENDROOT
BRANCH   5  12
HETATM   12  C8  UNL     1      25.856   0.604  53.518  1.00  0.00     0.171 C 
HETATM   13  N2  UNL     1      26.234  -0.217  54.645  1.00  0.00    -0.349 N 
HETATM   14  C13 UNL     1      27.555   0.117  55.122  1.00  0.00     0.201 C 
HETATM   15  H17 UNL     1      25.725  -0.991  55.172  1.00  0.00     0.163 HD
HETATM   16  N3  UNL     1      28.121   1.258  54.817  1.00  0.00    -0.259 NA
HETATM   17  C14 UNL     1      27.438   2.226  53.990  1.00  0.00     0.321 C 
HETATM   18  O2  UNL     1      26.111   1.964  53.803  1.00  0.00    -0.335 OA
BRANCH  12  19
HETATM   19  C9  UNL     1      26.538   0.162  52.319  1.00  0.00    -0.027 C 
HETATM   20  C10 UNL     1      26.739   0.871  51.010  1.00  0.00     0.048 C 
HETATM   21  C11 UNL     1      27.111  -1.047  52.177  1.00  0.00     0.026 C 
BRANCH  21  22
HETATM   22  C12 UNL     1      27.479  -2.358  52.637  1.00  0.00     0.107 C 
HETATM   23  N1  UNL     1      28.228  -3.365  52.916  1.00  0.00    -0.312 NA
HETATM   24  H16 UNL     1      27.846  -4.234  53.319  1.00  0.00     0.186 HD
ENDBRANCH  21  22
ENDBRANCH  12  19
ENDBRANCH   5  12
BRANCH   1  25
HETATM   25  O1  UNL     1      18.820  -1.575  53.301  1.00  0.00    -0.382 OA
BRANCH  25  26
HETATM   26  C2  UNL     1      17.466  -1.324  53.498  1.00  0.00     0.164 C 
HETATM   27  C1  UNL     1      16.581  -2.213  52.673  1.00  0.00     0.033 C 
ENDBRANCH  25  26
ENDBRANCH   1  25
TORSDOF 5
ENDMDL
MODEL 2
REMARK VINA RESULT:      -7.9      3.902      6.143
REMARK  5 active torsions:
REMARK  status: ('A' for Active; 'I' for Inactive)
REMARK    1  A    between atoms: C2_2  and  O1_3 
REMARK    2  A    between atoms: O1_3  and  C3_4 
REMARK    3  A    between atoms: C7_8  and  C8_9 
REMARK    4  A    between atoms: C8_9  and  C9_10 
REMARK    5  A    between atoms: C11_12  and  C12_13 
ROOT
HETATM    1  C3  UNL     1      23.704  -0.534  53.512  1.00  0.00     0.146 C 
HETATM    2  C4  UNL     1      23.281   0.882  53.382  1.00  0.00     0.001 C 
HETATM    3  C5  UNL     1      23.122   1.844  52.494  1.00  0.00    -0.027 C 
HETATM    4  C6  UNL     1      22.793   3.178  51.936  1.00  0.00     0.043 C 
HETATM    5  C7  UNL     1      23.969   3.816  51.300  1.00  0.00     0.039 C 
HETATM    6  C15 UNL     1      24.933   2.876  51.529  1.00  0.00     0.033 C 
HETATM    7  C16 UNL     1      26.359   2.854  51.162  1.00  0.00     0.004 C 
HETATM    8  C17 UNL     1      26.905   1.734  51.614  1.00  0.00     0.131 C 
HETATM    9  O3  UNL     1      26.038   0.938  52.273  1.00  0.00    -0.363 OA
HETATM   10  C18 UNL     1      26.080  -0.393  52.640  1.00  0.00     0.177 C 
HETATM   11  C19 UNL     1      25.147  -0.766  53.755  1.00  0.00     0.062 C 
ENDROOT
BRANCH   5  12
HETATM   12  C8  UNL     1      23.701   5.183  50.692  1.00  0.00     0.171 C 
HETATM   13  N2  UNL     1      24.457   6.214  51.365  1.00  0.00    -0.349 N 
HETATM   14  C13 UNL     1      23.907   7.524  51.107  1.00  0.00     0.201 C 
HETATM   15  H17 UNL     1      25.311   6.179  52.001  1.00  0.00     0.163 HD
HETATM   16  N3  UNL     1      22.683   7.674  50.665  1.00  0.00    -0.259 NA
HETATM   17  C14 UNL     1      21.837   6.528  50.420  1.00  0.00     0.321 C 
HETATM   18  O2  UNL     1      22.320   5.359  50.934  1.00  0.00    -0.335 OA
BRANCH  12  19
HETATM   19  C9  UNL     1      24.009   5.173  49.277  1.00  0.00    -0.027 C 
HETATM   20  C10 UNL     1      23.118   4.890  48.101  1.00  0.00     0.048 C 
HETATM   21  C11 UNL     1      25.232   5.402  48.768  1.00  0.00     0.026 C 
BRANCH  21  22
HETATM   22  C12 UNL     1      26.634   5.702  48.873  1.00  0.00     0.107 C 
HETATM   23  N1  UNL     1      27.901   5.502  48.945  1.00  0.00    -0.312 NA
HETATM   24  H16 UNL     1      28.573   6.279  49.027  1.00  0.00     0.186 HD
ENDBRANCH  21  22
ENDBRANCH  12  19
ENDBRANCH   5  12
BRANCH   1  25
HETATM   25  O1  UNL     1      23.029  -0.977  54.680  1.00  0.00    -0.382 OA
BRANCH  25  26
HETATM   26  C2  UNL     1      21.701  -0.562  54.658  1.00  0.00     0.164 C 
HETATM   27  C1  UNL     1      20.757  -1.646  54.224  1.00  0.00     0.033 C 
ENDBRANCH  25  26
ENDBRANCH   1  25
TORSDOF 5
ENDMDL
MODEL 3
REMARK VINA RESULT:      -7.9      3.462      7.083
REMARK  5 active torsions:
REMARK  status: ('A' for Active; 'I' for Inactive)
REMARK    1  A    between atoms: C2_2  and  O1_3 
REMARK    2  A    between atoms: O1_3  and  C3_4 
REMARK    3  A    between atoms: C7_8  and  C8_9 
REMARK    4  A    between atoms: C8_9  and  C9_10 
REMARK    5  A    between atoms: C11_12  and  C12_13 
ROOT
HETATM    1  C3  UNL     1      26.042  -0.143  55.006  1.00  0.00     0.146 C 
HETATM    2  C4  UNL     1      25.774   0.279  53.609  1.00  0.00     0.001 C 
HETATM    3  C5  UNL     1      24.995   1.063  52.889  1.00  0.00    -0.027 C 
HETATM    4  C6  UNL     1      24.420   1.732  51.698  1.00  0.00     0.043 C 
HETATM    5  C7  UNL     1      22.983   1.412  51.526  1.00  0.00     0.039 C 
HETATM    6  C15 UNL     1      22.777   0.562  52.573  1.00  0.00     0.033 C 
HETATM    7  C16 UNL     1      21.561  -0.144  53.013  1.00  0.00     0.004 C 
HETATM    8  C17 UNL     1      21.846  -0.877  54.079  1.00  0.00     0.131 C 
HETATM    9  O3  UNL     1      23.137  -0.789  54.465  1.00  0.00    -0.363 OA
HETATM   10  C18 UNL     1      23.789  -1.123  55.635  1.00  0.00     0.177 C 
HETATM   11  C19 UNL     1      25.272  -1.312  55.494  1.00  0.00     0.062 C 
ENDROOT
BRANCH   5  12
HETATM   12  C8  UNL     1      22.322   2.077  50.330  1.00  0.00     0.171 C 
HETATM   13  N2  UNL     1      21.668   1.106  49.483  1.00  0.00    -0.349 N 
HETATM   14  C13 UNL     1      21.421   1.637  48.164  1.00  0.00     0.201 C 
HETATM   15  H17 UNL     1      21.356   0.101  49.653  1.00  0.00     0.163 HD
HETATM   16  N3  UNL     1      22.065   2.688  47.721  1.00  0.00    -0.259 NA
HETATM   17  C14 UNL     1      23.051   3.354  48.542  1.00  0.00     0.321 C 
HETATM   18  O2  UNL     1      23.421   2.649  49.651  1.00  0.00    -0.335 OA
BRANCH  12  19
HETATM   19  C9  UNL     1      21.375   3.080  50.773  1.00  0.00    -0.027 C 
HETATM   20  C10 UNL     1      19.889   3.158  50.565  1.00  0.00     0.048 C 
HETATM   21  C11 UNL     1      21.711   4.186  51.460  1.00  0.00     0.026 C 
BRANCH  21  22
HETATM   22  C12 UNL     1      22.647   5.066  52.104  1.00  0.00     0.107 C 
HETATM   23  N1  UNL     1      23.683   5.436  52.770  1.00  0.00    -0.312 NA
HETATM   24  H16 UNL     1      23.878   6.429  52.967  1.00  0.00     0.186 HD
ENDBRANCH  21  22
ENDBRANCH  12  19
ENDBRANCH   5  12
BRANCH   1  25
HETATM   25  O1  UNL     1      27.402  -0.548  54.976  1.00  0.00    -0.382 OA
BRANCH  25  26
HETATM   26  C2  UNL     1      28.210   0.500  54.546  1.00  0.00     0.164 C 
HETATM   27  C1  UNL     1      29.441   0.031  53.826  1.00  0.00     0.033 C 
ENDBRANCH  25  26
ENDBRANCH   1  25
TORSDOF 5
ENDMDL
MODEL 4
REMARK VINA RESULT:      -7.9      3.693      6.794
REMARK  5 active torsions:
REMARK  status: ('A' for Active; 'I' for Inactive)
REMARK    1  A    between atoms: C2_2  and  O1_3 
REMARK    2  A    between atoms: O1_3  and  C3_4 
REMARK    3  A    between atoms: C7_8  and  C8_9 
REMARK    4  A    between atoms: C8_9  and  C9_10 
REMARK    5  A    between atoms: C11_12  and  C12_13 
ROOT
HETATM    1  C3  UNL     1      26.202   0.071  54.925  1.00  0.00     0.146 C 
HETATM    2  C4  UNL     1      26.237   1.100  53.857  1.00  0.00     0.001 C 
HETATM    3  C5  UNL     1      25.620   2.187  53.437  1.00  0.00    -0.027 C 
HETATM    4  C6  UNL     1      25.305   3.368  52.598  1.00  0.00     0.043 C 
HETATM    5  C7  UNL     1      23.946   3.282  52.014  1.00  0.00     0.039 C 
HETATM    6  C15 UNL     1      23.532   2.071  52.488  1.00  0.00     0.033 C 
HETATM    7  C16 UNL     1      22.262   1.348  52.300  1.00  0.00     0.004 C 
HETATM    8  C17 UNL     1      22.323   0.192  52.943  1.00  0.00     0.131 C 
HETATM    9  O3  UNL     1      23.497  -0.013  53.576  1.00  0.00    -0.363 OA
HETATM   10  C18 UNL     1      23.885  -0.894  54.567  1.00  0.00     0.177 C 
HETATM   11  C19 UNL     1      25.366  -1.123  54.657  1.00  0.00     0.062 C 
ENDROOT
BRANCH   5  12
HETATM   12  C8  UNL     1      23.548   4.469  51.151  1.00  0.00     0.171 C 
HETATM   13  N2  UNL     1      24.182   5.685  51.607  1.00  0.00    -0.349 N 
HETATM   14  C13 UNL     1      23.504   6.855  51.099  1.00  0.00     0.201 C 
HETATM   15  H17 UNL     1      25.024   5.864  52.234  1.00  0.00     0.163 HD
HETATM   16  N3  UNL     1      22.279   6.788  50.641  1.00  0.00    -0.259 NA
HETATM   17  C14 UNL     1      21.560   5.534  50.628  1.00  0.00     0.321 C 
HETATM   18  O2  UNL     1      22.152   4.544  51.359  1.00  0.00    -0.335 OA
BRANCH  12  19
HETATM   19  C9  UNL     1      23.879   4.216  49.764  1.00  0.00    -0.027 C 
HETATM   20  C10 UNL     1      23.027   3.662  48.658  1.00  0.00     0.048 C 
HETATM   21  C11 UNL     1      25.094   4.425  49.226  1.00  0.00     0.026 C 
BRANCH  21  22
HETATM   22  C12 UNL     1      26.472   4.829  49.280  1.00  0.00     0.107 C 
HETATM   23  N1  UNL     1      27.753   4.731  49.242  1.00  0.00    -0.312 NA
HETATM   24  H16 UNL     1      28.367   5.547  49.385  1.00  0.00     0.186 HD
ENDBRANCH  21  22
ENDBRANCH  12  19
ENDBRANCH   5  12
BRANCH   1  25
HETATM   25  O1  UNL     1      27.544  -0.390  54.987  1.00  0.00    -0.382 OA
BRANCH  25  26
HETATM   26  C2  UNL     1      28.078  -0.498  53.707  1.00  0.00     0.164 C 
HETATM   27  C1  UNL     1      29.531  -0.879  53.711  1.00  0.00     0.033 C 
ENDBRANCH  25  26
ENDBRANCH   1  25
TORSDOF 5
ENDMDL
MODEL 5
REMARK VINA RESULT:      -7.7      3.613      7.385
REMARK  5 active torsions:
REMARK  status: ('A' for Active; 'I' for Inactive)
REMARK    1  A    between atoms: C2_2  and  O1_3 
REMARK    2  A    between atoms: O1_3  and  C3_4 
REMARK    3  A    between atoms: C7_8  and  C8_9 
REMARK    4  A    between atoms: C8_9  and  C9_10 
REMARK    5  A    between atoms: C11_12  and  C12_13 
ROOT
HETATM    1  C3  UNL     1      26.362   1.069  54.575  1.00  0.00     0.146 C 
HETATM    2  C4  UNL     1      25.607   1.648  53.437  1.00  0.00     0.001 C 
HETATM    3  C5  UNL     1      24.440   2.176  53.122  1.00  0.00    -0.027 C 
HETATM    4  C6  UNL     1      23.373   2.795  52.299  1.00  0.00     0.043 C 
HETATM    5  C7  UNL     1      22.156   1.951  52.249  1.00  0.00     0.039 C 
HETATM    6  C15 UNL     1      22.550   0.878  52.994  1.00  0.00     0.033 C 
HETATM    7  C16 UNL     1      21.828  -0.352  53.364  1.00  0.00     0.004 C 
HETATM    8  C17 UNL     1      22.625  -1.120  54.092  1.00  0.00     0.131 C 
HETATM    9  O3  UNL     1      23.850  -0.591  54.291  1.00  0.00    -0.363 OA
HETATM   10  C18 UNL     1      24.860  -0.879  55.189  1.00  0.00     0.177 C 
HETATM   11  C19 UNL     1      26.220  -0.391  54.780  1.00  0.00     0.062 C 
ENDROOT
BRANCH   5  12
HETATM   12  C8  UNL     1      21.013   2.532  51.433  1.00  0.00     0.171 C 
HETATM   13  N2  UNL     1      21.447   3.671  50.656  1.00  0.00    -0.349 N 
HETATM   14  C13 UNL     1      20.328   4.478  50.232  1.00  0.00     0.201 C 
HETATM   15  H17 UNL     1      22.412   4.011  50.360  1.00  0.00     0.163 HD
HETATM   16  N3  UNL     1      19.160   4.386  50.819  1.00  0.00    -0.259 NA
HETATM   17  C14 UNL     1      18.953   3.471  51.917  1.00  0.00     0.321 C 
HETATM   18  O2  UNL     1      20.104   2.947  52.432  1.00  0.00    -0.335 OA
BRANCH  12  19
HETATM   19  C9  UNL     1      20.446   1.518  50.569  1.00  0.00    -0.027 C 
HETATM   20  C10 UNL     1      19.266   0.615  50.792  1.00  0.00     0.048 C 
HETATM   21  C11 UNL     1      20.943   1.187  49.364  1.00  0.00     0.026 C 
BRANCH  21  22
HETATM   22  C12 UNL     1      21.882   1.307  48.282  1.00  0.00     0.107 C 
HETATM   23  N1  UNL     1      22.568   1.857  47.345  1.00  0.00    -0.312 NA
HETATM   24  H16 UNL     1      23.237   1.321  46.771  1.00  0.00     0.186 HD
ENDBRANCH  21  22
ENDBRANCH  12  19
ENDBRANCH   5  12
BRANCH   1  25
HETATM   25  O1  UNL     1      27.719   1.290  54.221  1.00  0.00    -0.382 OA
BRANCH  25  26
HETATM   26  C2  UNL     1      28.494   0.186  54.561  1.00  0.00     0.164 C 
HETATM   27  C1  UNL     1      29.706   0.030  53.688  1.00  0.00     0.033 C 
ENDBRANCH  25  26
ENDBRANCH   1  25
TORSDOF 5
ENDMDL
MODEL 6
REMARK VINA RESULT:      -7.7      3.870      7.064
REMARK  5 active torsions:
REMARK  status: ('A' for Active; 'I' for Inactive)
REMARK    1  A    between atoms: C2_2  and  O1_3 
REMARK    2  A    between atoms: O1_3  and  C3_4 
REMARK    3  A    between atoms: C7_8  and  C8_9 
REMARK    4  A    between atoms: C8_9  and  C9_10 
REMARK    5  A    between atoms: C11_12  and  C12_13 
ROOT
HETATM    1  C3  UNL     1      26.266   0.652  54.883  1.00  0.00     0.146 C 
HETATM    2  C4  UNL     1      26.053   1.659  53.815  1.00  0.00     0.001 C 
HETATM    3  C5  UNL     1      25.178   2.544  53.377  1.00  0.00    -0.027 C 
HETATM    4  C6  UNL     1      24.581   3.602  52.527  1.00  0.00     0.043 C 
HETATM    5  C7  UNL     1      23.312   3.159  51.906  1.00  0.00     0.039 C 
HETATM    6  C15 UNL     1      23.225   1.879  52.369  1.00  0.00     0.033 C 
HETATM    7  C16 UNL     1      22.201   0.843  52.146  1.00  0.00     0.004 C 
HETATM    8  C17 UNL     1      22.552  -0.260  52.792  1.00  0.00     0.131 C 
HETATM    9  O3  UNL     1      23.721  -0.146  53.458  1.00  0.00    -0.363 OA
HETATM   10  C18 UNL     1      24.304  -0.897  54.460  1.00  0.00     0.177 C 
HETATM   11  C19 UNL     1      25.789  -0.721  54.592  1.00  0.00     0.062 C 
ENDROOT
BRANCH   5  12
HETATM   12  C8  UNL     1      22.634   4.202  51.031  1.00  0.00     0.171 C 
HETATM   13  N2  UNL     1      22.882   5.539  51.520  1.00  0.00    -0.349 N 
HETATM   14  C13 UNL     1      21.926   6.481  50.987  1.00  0.00     0.201 C 
HETATM   15  H17 UNL     1      23.614   5.936  52.185  1.00  0.00     0.163 HD
HETATM   16  N3  UNL     1      20.789   6.081  50.474  1.00  0.00    -0.259 NA
HETATM   17  C14 UNL     1      20.451   4.677  50.424  1.00  0.00     0.321 C 
HETATM   18  O2  UNL     1      21.265   3.880  51.176  1.00  0.00    -0.335 OA
BRANCH  12  19
HETATM   19  C9  UNL     1      23.080   4.074  49.659  1.00  0.00    -0.027 C 
HETATM   20  C10 UNL     1      23.921   5.003  48.831  1.00  0.00     0.048 C 
HETATM   21  C11 UNL     1      22.762   3.045  48.853  1.00  0.00     0.026 C 
BRANCH  21  22
HETATM   22  C12 UNL     1      22.116   1.796  48.556  1.00  0.00     0.107 C 
HETATM   23  N1  UNL     1      21.167   0.945  48.393  1.00  0.00    -0.312 NA
HETATM   24  H16 UNL     1      21.349  -0.029  48.109  1.00  0.00     0.186 HD
ENDBRANCH  21  22
ENDBRANCH  12  19
ENDBRANCH   5  12
BRANCH   1  25
HETATM   25  O1  UNL     1      27.680   0.567  54.983  1.00  0.00    -0.382 OA
BRANCH  25  26
HETATM   26  C2  UNL     1      28.248   0.440  53.719  1.00  0.00     0.164 C 
HETATM   27  C1  UNL     1      29.419  -0.500  53.696  1.00  0.00     0.033 C 
ENDBRANCH  25  26
ENDBRANCH   1  25
TORSDOF 5
ENDMDL
MODEL 7
REMARK VINA RESULT:      -7.6      3.168      5.751
REMARK  5 active torsions:
REMARK  status: ('A' for Active; 'I' for Inactive)
REMARK    1  A    between atoms: C2_2  and  O1_3 
REMARK    2  A    between atoms: O1_3  and  C3_4 
REMARK    3  A    between atoms: C7_8  and  C8_9 
REMARK    4  A    between atoms: C8_9  and  C9_10 
REMARK    5  A    between atoms: C11_12  and  C12_13 
ROOT
HETATM    1  C3  UNL     1      24.548   4.875  49.154  1.00  0.00     0.146 C 
HETATM    2  C4  UNL     1      25.548   4.321  50.101  1.00  0.00     0.001 C 
HETATM    3  C5  UNL     1      25.983   3.184  50.610  1.00  0.00    -0.027 C 
HETATM    4  C6  UNL     1      26.792   2.249  51.427  1.00  0.00     0.043 C 
HETATM    5  C7  UNL     1      25.955   1.484  52.380  1.00  0.00     0.039 C 
HETATM    6  C15 UNL     1      24.721   2.005  52.122  1.00  0.00     0.033 C 
HETATM    7  C16 UNL     1      23.405   1.697  52.711  1.00  0.00     0.004 C 
HETATM    8  C17 UNL     1      22.488   2.474  52.152  1.00  0.00     0.131 C 
HETATM    9  O3  UNL     1      22.987   3.317  51.224  1.00  0.00    -0.363 OA
HETATM   10  C18 UNL     1      22.397   4.061  50.221  1.00  0.00     0.177 C 
HETATM   11  C19 UNL     1      23.224   5.212  49.726  1.00  0.00     0.062 C 
ENDROOT
BRANCH   5  12
HETATM   12  C8  UNL     1      26.718   0.492  53.243  1.00  0.00     0.171 C 
HETATM   13  N2  UNL     1      26.719   0.895  54.631  1.00  0.00    -0.349 N 
HETATM   14  C13 UNL     1      27.766   0.233  55.372  1.00  0.00     0.201 C 
HETATM   15  H17 UNL     1      26.110   1.575  55.181  1.00  0.00     0.163 HD
HETATM   16  N3  UNL     1      28.785  -0.321  54.764  1.00  0.00    -0.259 NA
HETATM   17  C14 UNL     1      28.896  -0.288  53.323  1.00  0.00     0.321 C 
HETATM   18  O2  UNL     1      28.027   0.572  52.717  1.00  0.00    -0.335 OA
BRANCH  12  19
HETATM   19  C9  UNL     1      26.155  -0.835  53.102  1.00  0.00    -0.027 C 
HETATM   20  C10 UNL     1      26.471  -1.912  52.105  1.00  0.00     0.048 C 
HETATM   21  C11 UNL     1      25.174  -1.326  53.880  1.00  0.00     0.026 C 
BRANCH  21  22
HETATM   22  C12 UNL     1      24.219  -1.245  54.951  1.00  0.00     0.107 C 
HETATM   23  N1  UNL     1      23.424  -1.638  55.881  1.00  0.00    -0.312 NA
HETATM   24  H16 UNL     1      22.874  -0.973  56.446  1.00  0.00     0.186 HD
ENDBRANCH  21  22
ENDBRANCH  12  19
ENDBRANCH   5  12
BRANCH   1  25
HETATM   25  O1  UNL     1      25.127   6.103  48.740  1.00  0.00    -0.382 OA
BRANCH  25  26
HETATM   26  C2  UNL     1      25.243   6.972  49.821  1.00  0.00     0.164 C 
HETATM   27  C1  UNL     1      26.404   7.915  49.690  1.00  0.00     0.033 C 
ENDBRANCH  25  26
ENDBRANCH   1  25
TORSDOF 5
ENDMDL
MODEL 8
REMARK VINA RESULT:      -7.5      5.937      8.629
REMARK  5 active torsions:
REMARK  status: ('A' for Active; 'I' for Inactive)
REMARK    1  A    between atoms: C2_2  and  O1_3 
REMARK    2  A    between atoms: O1_3  and  C3_4 
REMARK    3  A    between atoms: C7_8  and  C8_9 
REMARK    4  A    between atoms: C8_9  and  C9_10 
REMARK    5  A    between atoms: C11_12  and  C12_13 
ROOT
HETATM    1  C3  UNL     1      26.274   2.076  51.873  1.00  0.00     0.146 C 
HETATM    2  C4  UNL     1      26.163   2.797  50.581  1.00  0.00     0.001 C 
HETATM    3  C5  UNL     1      26.155   4.010  50.063  1.00  0.00    -0.027 C 
HETATM    4  C6  UNL     1      26.089   5.082  49.041  1.00  0.00     0.043 C 
HETATM    5  C7  UNL     1      24.939   5.989  49.268  1.00  0.00     0.039 C 
HETATM    6  C15 UNL     1      24.364   5.415  50.364  1.00  0.00     0.033 C 
HETATM    7  C16 UNL     1      23.170   5.801  51.137  1.00  0.00     0.004 C 
HETATM    8  C17 UNL     1      22.987   4.928  52.116  1.00  0.00     0.131 C 
HETATM    9  O3  UNL     1      23.911   3.945  52.144  1.00  0.00    -0.363 OA
HETATM   10  C18 UNL     1      24.279   3.031  53.112  1.00  0.00     0.177 C 
HETATM   11  C19 UNL     1      25.003   1.823  52.592  1.00  0.00     0.062 C 
ENDROOT
BRANCH   5  12
HETATM   12  C8  UNL     1      24.817   7.125  48.265  1.00  0.00     0.171 C 
HETATM   13  N2  UNL     1      23.771   6.864  47.302  1.00  0.00    -0.349 N 
HETATM   14  C13 UNL     1      23.923   7.685  46.124  1.00  0.00     0.201 C 
HETATM   15  H17 UNL     1      22.944   6.193  47.305  1.00  0.00     0.163 HD
HETATM   16  N3  UNL     1      25.064   8.262  45.837  1.00  0.00    -0.259 NA
HETATM   17  C14 UNL     1      26.215   8.095  46.695  1.00  0.00     0.321 C 
HETATM   18  O2  UNL     1      26.077   7.106  47.626  1.00  0.00    -0.335 OA
BRANCH  12  19
HETATM   19  C9  UNL     1      24.573   8.377  48.950  1.00  0.00    -0.027 C 
HETATM   20  C10 UNL     1      23.335   9.227  48.987  1.00  0.00     0.048 C 
HETATM   21  C11 UNL     1      25.492   9.028  49.685  1.00  0.00     0.026 C 
BRANCH  21  22
HETATM   22  C12 UNL     1      26.799   9.192  50.259  1.00  0.00     0.107 C 
HETATM   23  N1  UNL     1      27.701   9.519  51.114  1.00  0.00    -0.312 NA
HETATM   24  H16 UNL     1      28.704   9.359  50.938  1.00  0.00     0.186 HD
ENDBRANCH  21  22
ENDBRANCH  12  19
ENDBRANCH   5  12
BRANCH   1  25
HETATM   25  O1  UNL     1      26.779   0.802  51.500  1.00  0.00    -0.382 OA
BRANCH  25  26
HETATM   26  C2  UNL     1      27.187   0.095  52.626  1.00  0.00     0.164 C 
HETATM   27  C1  UNL     1      26.815  -1.359  52.571  1.00  0.00     0.033 C 
ENDBRANCH  25  26
ENDBRANCH   1  25
TORSDOF 5
ENDMDL
MODEL 9
REMARK VINA RESULT:      -7.5      5.767      9.745
REMARK  5 active torsions:
REMARK  status: ('A' for Active; 'I' for Inactive)
REMARK    1  A    between atoms: C2_2  and  O1_3 
REMARK    2  A    between atoms: O1_3  and  C3_4 
REMARK    3  A    between atoms: C7_8  and  C8_9 
REMARK    4  A    between atoms: C8_9  and  C9_10 
REMARK    5  A    between atoms: C11_12  and  C12_13 
ROOT
HETATM    1  C3  UNL     1      29.456   6.582  47.484  1.00  0.00     0.146 C 
HETATM    2  C4  UNL     1      28.831   5.545  48.341  1.00  0.00     0.001 C 
HETATM    3  C5  UNL     1      27.669   4.991  48.626  1.00  0.00    -0.027 C 
HETATM    4  C6  UNL     1      26.679   4.094  49.272  1.00  0.00     0.043 C 
HETATM    5  C7  UNL     1      25.644   4.856  50.008  1.00  0.00     0.039 C 
HETATM    6  C15 UNL     1      26.067   6.138  49.806  1.00  0.00     0.033 C 
HETATM    7  C16 UNL     1      25.500   7.420  50.259  1.00  0.00     0.004 C 
HETATM    8  C17 UNL     1      26.269   8.410  49.830  1.00  0.00     0.131 C 
HETATM    9  O3  UNL     1      27.337   7.994  49.117  1.00  0.00    -0.363 OA
HETATM   10  C18 UNL     1      28.204   8.645  48.262  1.00  0.00     0.177 C 
HETATM   11  C19 UNL     1      29.518   7.950  48.051  1.00  0.00     0.062 C 
ENDROOT
BRANCH   5  12
HETATM   12  C8  UNL     1      24.585   4.000  50.684  1.00  0.00     0.171 C 
HETATM   13  N2  UNL     1      24.320   4.457  52.029  1.00  0.00    -0.349 N 
HETATM   14  C13 UNL     1      23.668   3.436  52.814  1.00  0.00     0.201 C 
HETATM   15  H17 UNL     1      24.521   5.378  52.527  1.00  0.00     0.163 HD
HETATM   16  N3  UNL     1      23.698   2.177  52.455  1.00  0.00    -0.259 NA
HETATM   17  C14 UNL     1      24.390   1.765  51.255  1.00  0.00     0.321 C 
HETATM   18  O2  UNL     1      25.197   2.727  50.718  1.00  0.00    -0.335 OA
BRANCH  12  19
HETATM   19  C9  UNL     1      23.366   3.998  49.902  1.00  0.00    -0.027 C 
HETATM   20  C10 UNL     1      22.922   3.056  48.819  1.00  0.00     0.048 C 
HETATM   21  C11 UNL     1      22.393   4.919  50.014  1.00  0.00     0.026 C 
BRANCH  21  22
HETATM   22  C12 UNL     1      21.800   6.101  50.577  1.00  0.00     0.107 C 
HETATM   23  N1  UNL     1      21.716   7.217  51.209  1.00  0.00    -0.312 NA
HETATM   24  H16 UNL     1      20.821   7.718  51.316  1.00  0.00     0.186 HD
ENDBRANCH  21  22
ENDBRANCH  12  19
ENDBRANCH   5  12
BRANCH   1  25
HETATM   25  O1  UNL     1      30.800   6.144  47.357  1.00  0.00    -0.382 OA
BRANCH  25  26
HETATM   26  C2  UNL     1      31.317   5.801  48.602  1.00  0.00     0.164 C 
HETATM   27  C1  UNL     1      32.812   5.921  48.667  1.00  0.00     0.033 C 
ENDBRANCH  25  26
ENDBRANCH   1  25
TORSDOF 5
ENDMDL
