MODEL 1
REMARK VINA RESULT:      -7.1      0.000      0.000
REMARK  8 active torsions:
REMARK  status: ('A' for Active; 'I' for Inactive)
REMARK    1  A    between atoms: O1_2  and  C2_3 
REMARK    2  A    between atoms: C2_3  and  C3_4 
REMARK    3  A    between atoms: C4_5  and  C5_6 
REMARK    4  A    between atoms: C8_11  and  C9_12 
REMARK    5  A    between atoms: C10_13  and  N3_14 
REMARK    6  A    between atoms: C11_15  and  C12_16 
REMARK    7  A    between atoms: C13_17  and  C14_18 
REMARK    8  A    between atoms: C17_21  and  O2_22 
ROOT
HETATM    1  C9  UNL     1      23.995   3.531  52.842  1.00  0.00     0.034 C 
HETATM    2  C10 UNL     1      23.792   4.199  51.724  1.00  0.00     0.117 C 
ENDROOT
BRANCH   1   3
HETATM    3  C8  UNL     1      23.853   2.089  52.951  1.00  0.00     0.012 A 
HETATM    4  C5  UNL     1      24.911   1.212  53.023  1.00  0.00     0.069 A 
HETATM    5  N1  UNL     1      24.663  -0.096  53.129  1.00  0.00    -0.241 NA
HETATM    6  C6  UNL     1      23.446  -0.657  53.175  1.00  0.00     0.233 A 
HETATM    7  N2  UNL     1      22.399   0.200  53.105  1.00  0.00    -0.253 NA
HETATM    8  C7  UNL     1      22.597   1.534  52.996  1.00  0.00     0.131 A 
BRANCH   4   9
HETATM    9  C4  UNL     1      26.252   1.762  52.978  1.00  0.00     0.030 C 
HETATM   10  C3  UNL     1      27.252   1.334  53.740  1.00  0.00     0.001 C 
BRANCH  10  11
HETATM   11  C2  UNL     1      27.446   0.313  54.779  1.00  0.00     0.194 C 
BRANCH  11  12
HETATM   12  O1  UNL     1      28.174  -0.783  54.362  1.00  0.00    -0.392 OA
HETATM   13  C1  UNL     1      29.429  -0.520  53.885  1.00  0.00     0.201 C 
ENDBRANCH  11  12
ENDBRANCH  10  11
ENDBRANCH   4   9
ENDBRANCH   1   3
BRANCH   2  14
HETATM   14  N3  UNL     1      23.427   4.000  50.376  1.00  0.00    -0.273 NA
HETATM   15  C11 UNL     1      24.265   3.475  49.547  1.00  0.00     0.116 C 
BRANCH  15  16
HETATM   16  C12 UNL     1      25.633   2.997  49.706  1.00  0.00     0.019 C 
HETATM   17  C13 UNL     1      26.724   3.702  49.445  1.00  0.00     0.002 C 
BRANCH  17  18
HETATM   18  C14 UNL     1      26.665   5.066  48.958  1.00  0.00     0.014 C 
HETATM   19  C15 UNL     1      27.824   5.556  48.490  1.00  0.00    -0.000 A 
HETATM   20  C16 UNL     1      28.232   6.856  47.911  1.00  0.00     0.051 A 
HETATM   21  C17 UNL     1      29.179   5.885  48.035  1.00  0.00     0.079 A 
BRANCH  21  22
HETATM   22  O2  UNL     1      30.240   4.977  48.110  1.00  0.00    -0.355 OA
HETATM   23  C18 UNL     1      31.556   5.279  47.703  1.00  0.00     0.210 C 
ENDBRANCH  21  22
ENDBRANCH  17  18
ENDBRANCH  15  16
ENDBRANCH   2  14
TORSDOF 8
ENDMDL
MODEL 2
REMARK VINA RESULT:      -6.9      2.132      3.633
REMARK  8 active torsions:
REMARK  status: ('A' for Active; 'I' for Inactive)
REMARK    1  A    between atoms: O1_2  and  C2_3 
REMARK    2  A    between atoms: C2_3  and  C3_4 
REMARK    3  A    between atoms: C4_5  and  C5_6 
REMARK    4  A    between atoms: C8_11  and  C9_12 
REMARK    5  A    between atoms: C10_13  and  N3_14 
REMARK    6  A    between atoms: C11_15  and  C12_16 
REMARK    7  A    between atoms: C13_17  and  C14_18 
REMARK    8  A    between atoms: C17_21  and  O2_22 
ROOT
HETATM    1  C9  UNL     1      24.490   3.007  52.887  1.00  0.00     0.034 C 
HETATM    2  C10 UNL     1      24.304   3.233  51.602  1.00  0.00     0.117 C 
ENDROOT
BRANCH   1   3
HETATM    3  C8  UNL     1      25.328   1.937  53.400  1.00  0.00     0.012 A 
HETATM    4  C5  UNL     1      24.965   0.610  53.410  1.00  0.00     0.069 A 
HETATM    5  N1  UNL     1      25.819  -0.293  53.901  1.00  0.00    -0.241 NA
HETATM    6  C6  UNL     1      27.035  -0.024  54.399  1.00  0.00     0.233 A 
HETATM    7  N2  UNL     1      27.399   1.281  54.392  1.00  0.00    -0.253 NA
HETATM    8  C7  UNL     1      26.570   2.233  53.907  1.00  0.00     0.131 A 
BRANCH   4   9
HETATM    9  C4  UNL     1      23.660   0.259  52.884  1.00  0.00     0.030 C 
HETATM   10  C3  UNL     1      22.748  -0.424  53.565  1.00  0.00     0.001 C 
BRANCH  10  11
HETATM   11  C2  UNL     1      22.639  -1.029  54.900  1.00  0.00     0.194 C 
BRANCH  11  12
HETATM   12  O1  UNL     1      21.529  -1.832  55.066  1.00  0.00    -0.392 OA
HETATM   13  C1  UNL     1      20.489  -1.599  54.208  1.00  0.00     0.201 C 
ENDBRANCH  11  12
ENDBRANCH  10  11
ENDBRANCH   4   9
ENDBRANCH   1   3
BRANCH   2  14
HETATM   14  N3  UNL     1      24.678   2.740  50.334  1.00  0.00    -0.273 NA
HETATM   15  C11 UNL     1      25.077   3.551  49.413  1.00  0.00     0.116 C 
BRANCH  15  16
HETATM   16  C12 UNL     1      25.241   5.000  49.385  1.00  0.00     0.019 C 
HETATM   17  C13 UNL     1      26.357   5.636  49.064  1.00  0.00     0.002 C 
BRANCH  17  18
HETATM   18  C14 UNL     1      27.570   4.933  48.696  1.00  0.00     0.014 C 
HETATM   19  C15 UNL     1      28.593   5.717  48.321  1.00  0.00    -0.000 A 
HETATM   20  C16 UNL     1      29.980   5.455  47.875  1.00  0.00     0.051 A 
HETATM   21  C17 UNL     1      29.566   6.749  47.949  1.00  0.00     0.079 A 
BRANCH  21  22
HETATM   22  O2  UNL     1      29.265   8.115  47.981  1.00  0.00    -0.355 OA
HETATM   23  C18 UNL     1      28.620   8.748  49.064  1.00  0.00     0.210 C 
ENDBRANCH  21  22
ENDBRANCH  17  18
ENDBRANCH  15  16
ENDBRANCH   2  14
TORSDOF 8
ENDMDL
MODEL 3
REMARK VINA RESULT:      -6.9      4.132      6.738
REMARK  8 active torsions:
REMARK  status: ('A' for Active; 'I' for Inactive)
REMARK    1  A    between atoms: O1_2  and  C2_3 
REMARK    2  A    between atoms: C2_3  and  C3_4 
REMARK    3  A    between atoms: C4_5  and  C5_6 
REMARK    4  A    between atoms: C8_11  and  C9_12 
REMARK    5  A    between atoms: C10_13  and  N3_14 
REMARK    6  A    between atoms: C11_15  and  C12_16 
REMARK    7  A    between atoms: C13_17  and  C14_18 
REMARK    8  A    between atoms: C17_21  and  O2_22 
ROOT
HETATM    1  C9  UNL     1      20.862   1.323  53.381  1.00  0.00     0.034 C 
HETATM    2  C10 UNL     1      20.751   0.199  54.060  1.00  0.00     0.117 C 
ENDROOT
BRANCH   1   3
HETATM    3  C8  UNL     1      21.275   1.382  51.990  1.00  0.00     0.012 A 
HETATM    4  C5  UNL     1      22.488   1.873  51.565  1.00  0.00     0.069 A 
HETATM    5  N1  UNL     1      22.766   1.873  50.258  1.00  0.00    -0.241 NA
HETATM    6  C6  UNL     1      21.953   1.427  49.289  1.00  0.00     0.233 A 
HETATM    7  N2  UNL     1      20.757   0.943  49.700  1.00  0.00    -0.253 NA
HETATM    8  C7  UNL     1      20.427   0.921  51.012  1.00  0.00     0.131 A 
BRANCH   4   9
HETATM    9  C4  UNL     1      23.408   2.370  52.569  1.00  0.00     0.030 C 
HETATM   10  C3  UNL     1      23.729   3.650  52.708  1.00  0.00     0.001 C 
BRANCH  10  11
HETATM   11  C2  UNL     1      23.382   4.919  52.052  1.00  0.00     0.194 C 
BRANCH  11  12
HETATM   12  O1  UNL     1      22.025   5.142  51.939  1.00  0.00    -0.392 OA
HETATM   13  C1  UNL     1      21.653   6.153  51.095  1.00  0.00     0.201 C 
ENDBRANCH  11  12
ENDBRANCH  10  11
ENDBRANCH   4   9
ENDBRANCH   1   3
BRANCH   2  14
HETATM   14  N3  UNL     1      20.913  -1.195  53.911  1.00  0.00    -0.273 NA
HETATM   15  C11 UNL     1      21.893  -1.801  54.491  1.00  0.00     0.116 C 
BRANCH  15  16
HETATM   16  C12 UNL     1      22.975  -1.324  55.345  1.00  0.00     0.019 C 
HETATM   17  C13 UNL     1      24.132  -0.844  54.916  1.00  0.00     0.002 C 
BRANCH  17  18
HETATM   18  C14 UNL     1      24.451  -0.742  53.506  1.00  0.00     0.014 C 
HETATM   19  C15 UNL     1      25.763  -0.737  53.217  1.00  0.00    -0.000 A 
HETATM   20  C16 UNL     1      26.538  -0.652  51.958  1.00  0.00     0.051 A 
HETATM   21  C17 UNL     1      27.226  -0.747  53.129  1.00  0.00     0.079 A 
BRANCH  21  22
HETATM   22  O2  UNL     1      28.048  -0.838  54.257  1.00  0.00    -0.355 OA
HETATM   23  C18 UNL     1      28.546   0.281  54.954  1.00  0.00     0.210 C 
ENDBRANCH  21  22
ENDBRANCH  17  18
ENDBRANCH  15  16
ENDBRANCH   2  14
TORSDOF 8
ENDMDL
MODEL 4
REMARK VINA RESULT:      -6.8      3.406      5.413
REMARK  8 active torsions:
REMARK  status: ('A' for Active; 'I' for Inactive)
REMARK    1  A    between atoms: O1_2  and  C2_3 
REMARK    2  A    between atoms: C2_3  and  C3_4 
REMARK    3  A    between atoms: C4_5  and  C5_6 
REMARK    4  A    between atoms: C8_11  and  C9_12 
REMARK    5  A    between atoms: C10_13  and  N3_14 
REMARK    6  A    between atoms: C11_15  and  C12_16 
REMARK    7  A    between atoms: C13_17  and  C14_18 
REMARK    8  A    between atoms: C17_21  and  O2_22 
ROOT
HETATM    1  C9  UNL     1      25.798   2.353  52.938  1.00  0.00     0.034 C 
HETATM    2  C10 UNL     1      25.864   2.822  51.709  1.00  0.00     0.117 C 
ENDROOT
BRANCH   1   3
HETATM    3  C8  UNL     1      26.810   1.492  53.525  1.00  0.00     0.012 A 
HETATM    4  C5  UNL     1      26.687   0.128  53.650  1.00  0.00     0.069 A 
HETATM    5  N1  UNL     1      27.686  -0.567  54.201  1.00  0.00    -0.241 NA
HETATM    6  C6  UNL     1      28.835  -0.049  54.657  1.00  0.00     0.233 A 
HETATM    7  N2  UNL     1      28.965   1.294  54.537  1.00  0.00    -0.253 NA
HETATM    8  C7  UNL     1      27.981   2.043  53.988  1.00  0.00     0.131 A 
BRANCH   4   9
HETATM    9  C4  UNL     1      25.463  -0.489  53.174  1.00  0.00     0.030 C 
HETATM   10  C3  UNL     1      24.528  -0.989  53.973  1.00  0.00     0.001 C 
BRANCH  10  11
HETATM   11  C2  UNL     1      24.321  -1.131  55.421  1.00  0.00     0.194 C 
BRANCH  11  12
HETATM   12  O1  UNL     1      23.039  -1.500  55.773  1.00  0.00    -0.392 OA
HETATM   13  C1  UNL     1      22.067  -1.243  54.845  1.00  0.00     0.201 C 
ENDBRANCH  11  12
ENDBRANCH  10  11
ENDBRANCH   4   9
ENDBRANCH   1   3
BRANCH   2  14
HETATM   14  N3  UNL     1      26.690   2.792  50.565  1.00  0.00    -0.273 NA
HETATM   15  C11 UNL     1      26.471   3.601  49.584  1.00  0.00     0.116 C 
BRANCH  15  16
HETATM   16  C12 UNL     1      25.466   4.636  49.372  1.00  0.00     0.019 C 
HETATM   17  C13 UNL     1      24.194   4.416  49.073  1.00  0.00     0.002 C 
BRANCH  17  18
HETATM   18  C14 UNL     1      23.656   3.079  48.921  1.00  0.00     0.014 C 
HETATM   19  C15 UNL     1      22.787   2.702  49.873  1.00  0.00    -0.000 A 
HETATM   20  C16 UNL     1      22.007   1.469  50.125  1.00  0.00     0.051 A 
HETATM   21  C17 UNL     1      21.877   2.499  51.005  1.00  0.00     0.079 A 
BRANCH  21  22
HETATM   22  O2  UNL     1      21.655   3.478  51.979  1.00  0.00    -0.355 OA
HETATM   23  C18 UNL     1      22.601   4.465  52.325  1.00  0.00     0.210 C 
ENDBRANCH  21  22
ENDBRANCH  17  18
ENDBRANCH  15  16
ENDBRANCH   2  14
TORSDOF 8
ENDMDL
MODEL 5
REMARK VINA RESULT:      -6.8      3.976      7.734
REMARK  8 active torsions:
REMARK  status: ('A' for Active; 'I' for Inactive)
REMARK    1  A    between atoms: O1_2  and  C2_3 
REMARK    2  A    between atoms: C2_3  and  C3_4 
REMARK    3  A    between atoms: C4_5  and  C5_6 
REMARK    4  A    between atoms: C8_11  and  C9_12 
REMARK    5  A    between atoms: C10_13  and  N3_14 
REMARK    6  A    between atoms: C11_15  and  C12_16 
REMARK    7  A    between atoms: C13_17  and  C14_18 
REMARK    8  A    between atoms: C17_21  and  O2_22 
ROOT
HETATM    1  C9  UNL     1      26.164  -0.682  53.005  1.00  0.00     0.034 C 
HETATM    2  C10 UNL     1      25.295  -1.123  53.892  1.00  0.00     0.117 C 
ENDROOT
BRANCH   1   3
HETATM    3  C8  UNL     1      27.141   0.355  53.286  1.00  0.00     0.012 A 
HETATM    4  C5  UNL     1      27.224   1.545  52.599  1.00  0.00     0.069 A 
HETATM    5  N1  UNL     1      28.159   2.432  52.948  1.00  0.00    -0.241 NA
HETATM    6  C6  UNL     1      29.054   2.273  53.933  1.00  0.00     0.233 A 
HETATM    7  N2  UNL     1      28.980   1.104  54.614  1.00  0.00    -0.253 NA
HETATM    8  C7  UNL     1      28.051   0.173  54.299  1.00  0.00     0.131 A 
BRANCH   4   9
HETATM    9  C4  UNL     1      26.280   1.773  51.521  1.00  0.00     0.030 C 
HETATM   10  C3  UNL     1      25.080   2.315  51.692  1.00  0.00     0.001 C 
BRANCH  10  11
HETATM   11  C2  UNL     1      24.291   2.837  52.816  1.00  0.00     0.194 C 
BRANCH  11  12
HETATM   12  O1  UNL     1      23.534   3.948  52.505  1.00  0.00    -0.392 OA
HETATM   13  C1  UNL     1      23.830   4.560  51.317  1.00  0.00     0.201 C 
ENDBRANCH  11  12
ENDBRANCH  10  11
ENDBRANCH   4   9
ENDBRANCH   1   3
BRANCH   2  14
HETATM   14  N3  UNL     1      24.898  -0.928  55.231  1.00  0.00    -0.273 NA
HETATM   15  C11 UNL     1      23.720  -1.286  55.619  1.00  0.00     0.116 C 
BRANCH  15  16
HETATM   16  C12 UNL     1      22.602  -1.905  54.916  1.00  0.00     0.019 C 
HETATM   17  C13 UNL     1      21.645  -1.249  54.277  1.00  0.00     0.002 C 
BRANCH  17  18
HETATM   18  C14 UNL     1      21.612   0.199  54.209  1.00  0.00     0.014 C 
HETATM   19  C15 UNL     1      20.835   0.707  53.239  1.00  0.00    -0.000 A 
HETATM   20  C16 UNL     1      20.501   2.082  52.802  1.00  0.00     0.051 A 
HETATM   21  C17 UNL     1      19.942   1.042  52.125  1.00  0.00     0.079 A 
BRANCH  21  22
HETATM   22  O2  UNL     1      19.307   0.067  51.349  1.00  0.00    -0.355 OA
HETATM   23  C18 UNL     1      18.106   0.290  50.645  1.00  0.00     0.210 C 
ENDBRANCH  21  22
ENDBRANCH  17  18
ENDBRANCH  15  16
ENDBRANCH   2  14
TORSDOF 8
ENDMDL
MODEL 6
REMARK VINA RESULT:      -6.8      4.003      7.184
REMARK  8 active torsions:
REMARK  status: ('A' for Active; 'I' for Inactive)
REMARK    1  A    between atoms: O1_2  and  C2_3 
REMARK    2  A    between atoms: C2_3  and  C3_4 
REMARK    3  A    between atoms: C4_5  and  C5_6 
REMARK    4  A    between atoms: C8_11  and  C9_12 
REMARK    5  A    between atoms: C10_13  and  N3_14 
REMARK    6  A    between atoms: C11_15  and  C12_16 
REMARK    7  A    between atoms: C13_17  and  C14_18 
REMARK    8  A    between atoms: C17_21  and  O2_22 
ROOT
HETATM    1  C9  UNL     1      26.854   2.183  51.585  1.00  0.00     0.034 C 
HETATM    2  C10 UNL     1      25.618   2.639  51.562  1.00  0.00     0.117 C 
ENDROOT
BRANCH   1   3
HETATM    3  C8  UNL     1      27.456   1.553  52.747  1.00  0.00     0.012 A 
HETATM    4  C5  UNL     1      27.178   0.270  53.160  1.00  0.00     0.069 A 
HETATM    5  N1  UNL     1      27.797  -0.211  54.242  1.00  0.00    -0.241 NA
HETATM    6  C6  UNL     1      28.691   0.454  54.988  1.00  0.00     0.233 A 
HETATM    7  N2  UNL     1      28.969   1.718  54.588  1.00  0.00    -0.253 NA
HETATM    8  C7  UNL     1      28.369   2.251  53.499  1.00  0.00     0.131 A 
BRANCH   4   9
HETATM    9  C4  UNL     1      26.218  -0.497  52.391  1.00  0.00     0.030 C 
HETATM   10  C3  UNL     1      24.992  -0.784  52.815  1.00  0.00     0.001 C 
BRANCH  10  11
HETATM   11  C2  UNL     1      24.184  -0.519  54.013  1.00  0.00     0.194 C 
BRANCH  11  12
HETATM   12  O1  UNL     1      22.972  -1.179  54.032  1.00  0.00    -0.392 OA
HETATM   13  C1  UNL     1      22.046  -0.703  54.920  1.00  0.00     0.201 C 
ENDBRANCH  11  12
ENDBRANCH  10  11
ENDBRANCH   4   9
ENDBRANCH   1   3
BRANCH   2  14
HETATM   14  N3  UNL     1      24.477   2.762  52.384  1.00  0.00    -0.273 NA
HETATM   15  C11 UNL     1      23.303   2.518  51.907  1.00  0.00     0.116 C 
BRANCH  15  16
HETATM   16  C12 UNL     1      22.848   2.106  50.584  1.00  0.00     0.019 C 
HETATM   17  C13 UNL     1      21.991   1.125  50.342  1.00  0.00     0.002 C 
BRANCH  17  18
HETATM   18  C14 UNL     1      21.400   0.335  51.404  1.00  0.00     0.014 C 
HETATM   19  C15 UNL     1      20.060   0.377  51.468  1.00  0.00    -0.000 A 
HETATM   20  C16 UNL     1      19.052  -0.247  52.355  1.00  0.00     0.051 A 
HETATM   21  C17 UNL     1      18.610   0.567  51.358  1.00  0.00     0.079 A 
BRANCH  21  22
HETATM   22  O2  UNL     1      18.029   1.379  50.379  1.00  0.00    -0.355 OA
HETATM   23  C18 UNL     1      16.899   1.005  49.623  1.00  0.00     0.210 C 
ENDBRANCH  21  22
ENDBRANCH  17  18
ENDBRANCH  15  16
ENDBRANCH   2  14
TORSDOF 8
ENDMDL
MODEL 7
REMARK VINA RESULT:      -6.8      3.370      5.748
REMARK  8 active torsions:
REMARK  status: ('A' for Active; 'I' for Inactive)
REMARK    1  A    between atoms: O1_2  and  C2_3 
REMARK    2  A    between atoms: C2_3  and  C3_4 
REMARK    3  A    between atoms: C4_5  and  C5_6 
REMARK    4  A    between atoms: C8_11  and  C9_12 
REMARK    5  A    between atoms: C10_13  and  N3_14 
REMARK    6  A    between atoms: C11_15  and  C12_16 
REMARK    7  A    between atoms: C13_17  and  C14_18 
REMARK    8  A    between atoms: C17_21  and  O2_22 
ROOT
HETATM    1  C9  UNL     1      24.002   4.058  50.375  1.00  0.00     0.034 C 
HETATM    2  C10 UNL     1      25.305   3.951  50.535  1.00  0.00     0.117 C 
ENDROOT
BRANCH   1   3
HETATM    3  C8  UNL     1      23.168   2.992  49.847  1.00  0.00     0.012 A 
HETATM    4  C5  UNL     1      22.428   2.133  50.626  1.00  0.00     0.069 A 
HETATM    5  N1  UNL     1      21.690   1.191  50.033  1.00  0.00    -0.241 NA
HETATM    6  C6  UNL     1      21.595   0.996  48.710  1.00  0.00     0.233 A 
HETATM    7  N2  UNL     1      22.321   1.838  47.935  1.00  0.00    -0.253 NA
HETATM    8  C7  UNL     1      23.085   2.807  48.488  1.00  0.00     0.131 A 
BRANCH   4   9
HETATM    9  C4  UNL     1      22.492   2.297  52.066  1.00  0.00     0.030 C 
HETATM   10  C3  UNL     1      22.646   1.291  52.918  1.00  0.00     0.001 C 
BRANCH  10  11
HETATM   11  C2  UNL     1      22.796  -0.169  52.836  1.00  0.00     0.194 C 
BRANCH  11  12
HETATM   12  O1  UNL     1      23.192  -0.762  54.017  1.00  0.00    -0.392 OA
HETATM   13  C1  UNL     1      22.203  -0.978  54.939  1.00  0.00     0.201 C 
ENDBRANCH  11  12
ENDBRANCH  10  11
ENDBRANCH   4   9
ENDBRANCH   1   3
BRANCH   2  14
HETATM   14  N3  UNL     1      26.363   3.035  50.353  1.00  0.00    -0.273 NA
HETATM   15  C11 UNL     1      26.686   2.219  51.299  1.00  0.00     0.116 C 
BRANCH  15  16
HETATM   16  C12 UNL     1      26.154   2.013  52.641  1.00  0.00     0.019 C 
HETATM   17  C13 UNL     1      26.876   1.720  53.713  1.00  0.00     0.002 C 
BRANCH  17  18
HETATM   18  C14 UNL     1      28.316   1.570  53.657  1.00  0.00     0.014 C 
HETATM   19  C15 UNL     1      28.754   0.306  53.532  1.00  0.00    -0.000 A 
HETATM   20  C16 UNL     1      30.095  -0.313  53.437  1.00  0.00     0.051 A 
HETATM   21  C17 UNL     1      29.008  -1.131  53.400  1.00  0.00     0.079 A 
BRANCH  21  22
HETATM   22  O2  UNL     1      27.980  -2.077  53.350  1.00  0.00    -0.355 OA
HETATM   23  C18 UNL     1      26.790  -1.900  52.615  1.00  0.00     0.210 C 
ENDBRANCH  21  22
ENDBRANCH  17  18
ENDBRANCH  15  16
ENDBRANCH   2  14
TORSDOF 8
ENDMDL
MODEL 8
REMARK VINA RESULT:      -6.8      3.095      5.157
REMARK  8 active torsions:
REMARK  status: ('A' for Active; 'I' for Inactive)
REMARK    1  A    between atoms: O1_2  and  C2_3 
REMARK    2  A    between atoms: C2_3  and  C3_4 
REMARK    3  A    between atoms: C4_5  and  C5_6 
REMARK    4  A    between atoms: C8_11  and  C9_12 
REMARK    5  A    between atoms: C10_13  and  N3_14 
REMARK    6  A    between atoms: C11_15  and  C12_16 
REMARK    7  A    between atoms: C13_17  and  C14_18 
REMARK    8  A    between atoms: C17_21  and  O2_22 
ROOT
HETATM    1  C9  UNL     1      22.632   3.536  52.477  1.00  0.00     0.034 C 
HETATM    2  C10 UNL     1      23.578   3.723  51.579  1.00  0.00     0.117 C 
ENDROOT
BRANCH   1   3
HETATM    3  C8  UNL     1      21.433   2.754  52.229  1.00  0.00     0.012 A 
HETATM    4  C5  UNL     1      21.379   1.381  52.298  1.00  0.00     0.069 A 
HETATM    5  N1  UNL     1      20.219   0.764  52.057  1.00  0.00    -0.241 NA
HETATM    6  C6  UNL     1      19.065   1.372  51.745  1.00  0.00     0.233 A 
HETATM    7  N2  UNL     1      19.110   2.724  51.676  1.00  0.00    -0.253 NA
HETATM    8  C7  UNL     1      20.260   3.395  51.910  1.00  0.00     0.131 A 
BRANCH   4   9
HETATM    9  C4  UNL     1      22.598   0.670  52.631  1.00  0.00     0.030 C 
HETATM   10  C3  UNL     1      22.676  -0.263  53.572  1.00  0.00     0.001 C 
BRANCH  10  11
HETATM   11  C2  UNL     1      21.759  -0.895  54.531  1.00  0.00     0.194 C 
BRANCH  11  12
HETATM   12  O1  UNL     1      22.389  -1.657  55.494  1.00  0.00    -0.392 OA
HETATM   13  C1  UNL     1      23.722  -1.406  55.678  1.00  0.00     0.201 C 
ENDBRANCH  11  12
ENDBRANCH  10  11
ENDBRANCH   4   9
ENDBRANCH   1   3
BRANCH   2  14
HETATM   14  N3  UNL     1      23.910   3.391  50.249  1.00  0.00    -0.273 NA
HETATM   15  C11 UNL     1      25.141   3.185  49.918  1.00  0.00     0.116 C 
BRANCH  15  16
HETATM   16  C12 UNL     1      26.382   3.225  50.683  1.00  0.00     0.019 C 
HETATM   17  C13 UNL     1      26.833   2.250  51.458  1.00  0.00     0.002 C 
BRANCH  17  18
HETATM   18  C14 UNL     1      26.114   1.003  51.629  1.00  0.00     0.014 C 
HETATM   19  C15 UNL     1      26.782   0.046  52.294  1.00  0.00    -0.000 A 
HETATM   20  C16 UNL     1      26.461  -1.343  52.695  1.00  0.00     0.051 A 
HETATM   21  C17 UNL     1      27.683  -0.845  53.031  1.00  0.00     0.079 A 
BRANCH  21  22
HETATM   22  O2  UNL     1      28.964  -0.456  53.435  1.00  0.00    -0.355 OA
HETATM   23  C18 UNL     1      29.261   0.809  53.982  1.00  0.00     0.210 C 
ENDBRANCH  21  22
ENDBRANCH  17  18
ENDBRANCH  15  16
ENDBRANCH   2  14
TORSDOF 8
ENDMDL
MODEL 9
REMARK VINA RESULT:      -6.6      1.905      2.687
REMARK  8 active torsions:
REMARK  status: ('A' for Active; 'I' for Inactive)
REMARK    1  A    between atoms: O1_2  and  C2_3 
REMARK    2  A    between atoms: C2_3  and  C3_4 
REMARK    3  A    between atoms: C4_5  and  C5_6 
REMARK    4  A    between atoms: C8_11  and  C9_12 
REMARK    5  A    between atoms: C10_13  and  N3_14 
REMARK    6  A    between atoms: C11_15  and  C12_16 
REMARK    7  A    between atoms: C13_17  and  C14_18 
REMARK    8  A    between atoms: C17_21  and  O2_22 
ROOT
HETATM    1  C9  UNL     1      22.877   0.679  52.008  1.00  0.00     0.034 C 
HETATM    2  C10 UNL     1      23.185   1.948  51.833  1.00  0.00     0.117 C 
ENDROOT
BRANCH   1   3
HETATM    3  C8  UNL     1      23.118  -0.042  53.245  1.00  0.00     0.012 A 
HETATM    4  C5  UNL     1      24.343  -0.543  53.621  1.00  0.00     0.069 A 
HETATM    5  N1  UNL     1      24.452  -1.185  54.788  1.00  0.00    -0.241 NA
HETATM    6  C6  UNL     1      23.452  -1.396  55.656  1.00  0.00     0.233 A 
HETATM    7  N2  UNL     1      22.242  -0.906  55.294  1.00  0.00    -0.253 NA
HETATM    8  C7  UNL     1      22.080  -0.248  54.122  1.00  0.00     0.131 A 
BRANCH   4   9
HETATM    9  C4  UNL     1      25.462  -0.346  52.720  1.00  0.00     0.030 C 
HETATM   10  C3  UNL     1      26.444   0.520  52.941  1.00  0.00     0.001 C 
BRANCH  10  11
HETATM   11  C2  UNL     1      26.801   1.492  53.983  1.00  0.00     0.194 C 
BRANCH  11  12
HETATM   12  O1  UNL     1      27.396   0.933  55.096  1.00  0.00    -0.392 OA
HETATM   13  C1  UNL     1      28.463   0.111  54.854  1.00  0.00     0.201 C 
ENDBRANCH  11  12
ENDBRANCH  10  11
ENDBRANCH   4   9
ENDBRANCH   1   3
BRANCH   2  14
HETATM   14  N3  UNL     1      23.756   3.044  52.514  1.00  0.00    -0.273 NA
HETATM   15  C11 UNL     1      23.720   4.224  51.993  1.00  0.00     0.116 C 
BRANCH  15  16
HETATM   16  C12 UNL     1      23.171   4.726  50.739  1.00  0.00     0.019 C 
HETATM   17  C13 UNL     1      23.772   4.656  49.560  1.00  0.00     0.002 C 
BRANCH  17  18
HETATM   18  C14 UNL     1      25.079   4.053  49.393  1.00  0.00     0.014 C 
HETATM   19  C15 UNL     1      26.061   4.905  49.053  1.00  0.00    -0.000 A 
HETATM   20  C16 UNL     1      27.508   4.751  48.783  1.00  0.00     0.051 A 
HETATM   21  C17 UNL     1      26.968   5.996  48.685  1.00  0.00     0.079 A 
BRANCH  21  22
HETATM   22  O2  UNL     1      26.538   7.320  48.550  1.00  0.00    -0.355 OA
HETATM   23  C18 UNL     1      26.901   8.354  49.437  1.00  0.00     0.210 C 
ENDBRANCH  21  22
ENDBRANCH  17  18
ENDBRANCH  15  16
ENDBRANCH   2  14
TORSDOF 8
ENDMDL
