MODEL 1
REMARK VINA RESULT:      -8.3      0.000      0.000
REMARK  8 active torsions:
REMARK  status: ('A' for Active; 'I' for Inactive)
REMARK    1  A    between atoms: N1_2  and  C3_4 
REMARK    2  A    between atoms: C3_4  and  C4_5 
REMARK    3  A    between atoms: C4_5  and  C5_6 
REMARK    4  A    between atoms: C5_6  and  C6_7 
REMARK       I    between atoms: C6_7  and  N2_9 
REMARK    5  A    between atoms: N2_9  and  C7_10 
REMARK    6  A    between atoms: C10_13  and  C11_14 
REMARK    7  A    between atoms: C18_25  and  C19_26 
REMARK    8  A    between atoms: C19_26  and  N6_27 
ROOT
HETATM    1  C7  UNL     1      25.574   2.086  51.436  1.00  0.00     0.031 C 
HETATM    2  C8  UNL     1      25.914   2.933  50.513  1.00  0.00     0.004 C 
HETATM    3  C9  UNL     1      26.554   3.922  49.554  1.00  0.00     0.041 C 
HETATM    4  C10 UNL     1      25.624   5.096  49.608  1.00  0.00     0.036 C 
HETATM    5  C13 UNL     1      24.380   4.704  48.830  1.00  0.00    -0.001 C 
HETATM    6  C14 UNL     1      23.127   4.233  48.821  1.00  0.00     0.080 C 
HETATM    7  N3  UNL     1      22.437   3.830  50.017  1.00  0.00    -0.393 N 
HETATM    8  C15 UNL     1      22.357   2.447  49.695  1.00  0.00     0.178 C 
HETATM    9  C16 UNL     1      22.083   1.587  50.826  1.00  0.00     0.060 A 
HETATM   10  N4  UNL     1      20.917   1.123  51.025  1.00  0.00    -0.270 NA
HETATM   11  C17 UNL     1      20.509   0.273  52.079  1.00  0.00     0.298 A 
HETATM   12  N5  UNL     1      21.504  -0.225  52.957  1.00  0.00    -0.270 NA
HETATM   13  C18 UNL     1      22.726   0.193  52.831  1.00  0.00     0.070 A 
HETATM   14  C20 UNL     1      23.134   1.143  51.756  1.00  0.00     0.018 A 
HETATM   15  C21 UNL     1      24.411   1.393  51.894  1.00  0.00     0.044 C 
HETATM   16  H22 UNL     1      22.397   4.766  50.421  1.00  0.00     0.159 HD
ENDROOT
BRANCH   1  17
HETATM   17  N2  UNL     1      26.880   2.183  51.920  1.00  0.00    -0.327 N 
HETATM   18  C6  UNL     1      27.396   2.227  53.230  1.00  0.00     0.222 C 
HETATM   19  O1  UNL     1      26.771   2.198  54.337  1.00  0.00    -0.273 OA
HETATM   20  H13 UNL     1      27.813   2.275  51.393  1.00  0.00     0.169 HD
BRANCH  18  21
HETATM   21  C5  UNL     1      28.785   2.315  53.787  1.00  0.00     0.105 C 
BRANCH  21  22
HETATM   22  C4  UNL     1      29.133   0.961  54.335  1.00  0.00     0.028 C 
BRANCH  22  23
HETATM   23  C3  UNL     1      29.317  -0.083  53.302  1.00  0.00     0.116 C 
BRANCH  23  24
HETATM   24  N1  UNL     1      28.572  -1.276  53.385  1.00  0.00    -0.421 N 
HETATM   25  C1  UNL     1      29.238  -2.522  53.289  1.00  0.00     0.142 C 
HETATM   26  C2  UNL     1      27.222  -1.226  52.924  1.00  0.00     0.142 C 
ENDBRANCH  23  24
ENDBRANCH  22  23
ENDBRANCH  21  22
ENDBRANCH  18  21
ENDBRANCH   1  17
BRANCH   4  27
HETATM   27  C11 UNL     1      26.140   6.369  49.159  1.00  0.00    -0.010 C 
HETATM   28  C12 UNL     1      27.174   6.514  48.362  1.00  0.00     0.161 C 
HETATM   29 BR1  UNL     1      28.423   7.546  47.360  1.00  0.00    -0.172 Br
ENDBRANCH   4  27
BRANCH  13  30
HETATM   30  C19 UNL     1      23.597  -0.427  53.827  1.00  0.00     0.326 C 
BRANCH  30  31
HETATM   31  N6  UNL     1      22.935  -1.097  54.913  1.00  0.00     0.083 N 
HETATM   32  H29 UNL     1      22.897  -0.535  55.776  1.00  0.00     0.313 HD
HETATM   33  H30 UNL     1      23.251  -2.083  55.023  1.00  0.00     0.313 HD
ENDBRANCH  30  31
ENDBRANCH  13  30
TORSDOF 8
ENDMDL
MODEL 2
REMARK VINA RESULT:      -8.0      3.006      6.407
REMARK  8 active torsions:
REMARK  status: ('A' for Active; 'I' for Inactive)
REMARK    1  A    between atoms: N1_2  and  C3_4 
REMARK    2  A    between atoms: C3_4  and  C4_5 
REMARK    3  A    between atoms: C4_5  and  C5_6 
REMARK    4  A    between atoms: C5_6  and  C6_7 
REMARK       I    between atoms: C6_7  and  N2_9 
REMARK    5  A    between atoms: N2_9  and  C7_10 
REMARK    6  A    between atoms: C10_13  and  C11_14 
REMARK    7  A    between atoms: C18_25  and  C19_26 
REMARK    8  A    between atoms: C19_26  and  N6_27 
ROOT
HETATM    1  C7  UNL     1      22.509   1.236  51.577  1.00  0.00     0.031 C 
HETATM    2  C8  UNL     1      23.522   1.080  52.374  1.00  0.00     0.004 C 
HETATM    3  C9  UNL     1      24.847   1.026  53.115  1.00  0.00     0.041 C 
HETATM    4  C10 UNL     1      25.008  -0.434  53.414  1.00  0.00     0.036 C 
HETATM    5  C13 UNL     1      24.038  -0.760  54.536  1.00  0.00    -0.001 C 
HETATM    6  C14 UNL     1      22.848  -1.229  54.930  1.00  0.00     0.080 C 
HETATM    7  N3  UNL     1      21.845  -1.688  54.007  1.00  0.00    -0.393 N 
HETATM    8  C15 UNL     1      20.897  -0.664  54.280  1.00  0.00     0.178 C 
HETATM    9  C16 UNL     1      19.880  -0.509  53.263  1.00  0.00     0.060 A 
HETATM   10  N4  UNL     1      18.711  -0.980  53.433  1.00  0.00    -0.270 NA
HETATM   11  C17 UNL     1      17.623  -0.899  52.534  1.00  0.00     0.298 A 
HETATM   12  N5  UNL     1      17.784  -0.120  51.361  1.00  0.00    -0.270 NA
HETATM   13  C18 UNL     1      18.943   0.402  51.101  1.00  0.00     0.070 A 
HETATM   14  C20 UNL     1      20.105   0.255  52.025  1.00  0.00     0.018 A 
HETATM   15  C21 UNL     1      21.132   0.866  51.491  1.00  0.00     0.044 C 
HETATM   16  H22 UNL     1      22.384  -2.490  53.677  1.00  0.00     0.159 HD
ENDROOT
BRANCH   1  17
HETATM   17  N2  UNL     1      23.378   1.888  50.700  1.00  0.00    -0.327 N 
HETATM   18  C6  UNL     1      23.329   3.163  50.104  1.00  0.00     0.222 C 
HETATM   19  O1  UNL     1      22.440   4.065  50.217  1.00  0.00    -0.273 OA
HETATM   20  H13 UNL     1      24.293   1.550  50.245  1.00  0.00     0.169 HD
BRANCH  18  21
HETATM   21  C5  UNL     1      24.246   3.902  49.175  1.00  0.00     0.105 C 
BRANCH  21  22
HETATM   22  C4  UNL     1      25.440   4.336  49.976  1.00  0.00     0.028 C 
BRANCH  22  23
HETATM   23  C3  UNL     1      26.726   4.237  49.250  1.00  0.00     0.116 C 
BRANCH  23  24
HETATM   24  N1  UNL     1      27.270   5.388  48.647  1.00  0.00    -0.421 N 
HETATM   25  C1  UNL     1      28.638   5.402  48.278  1.00  0.00     0.142 C 
HETATM   26  C2  UNL     1      26.681   6.639  48.998  1.00  0.00     0.142 C 
ENDBRANCH  23  24
ENDBRANCH  22  23
ENDBRANCH  21  22
ENDBRANCH  18  21
ENDBRANCH   1  17
BRANCH   4  27
HETATM   27  C11 UNL     1      26.340  -0.902  53.724  1.00  0.00    -0.010 C 
HETATM   28  C12 UNL     1      27.431  -0.184  53.590  1.00  0.00     0.161 C 
HETATM   29 BR1  UNL     1      29.312   0.094  53.699  1.00  0.00    -0.172 Br
ENDBRANCH   4  27
BRANCH  13  30
HETATM   30  C19 UNL     1      18.909   1.159  49.853  1.00  0.00     0.326 C 
BRANCH  30  31
HETATM   31  N6  UNL     1      17.622   1.277  49.222  1.00  0.00     0.083 N 
HETATM   32  H29 UNL     1      17.635   1.032  48.221  1.00  0.00     0.313 HD
HETATM   33  H30 UNL     1      17.139   2.166  49.470  1.00  0.00     0.313 HD
ENDBRANCH  30  31
ENDBRANCH  13  30
TORSDOF 8
ENDMDL
MODEL 3
REMARK VINA RESULT:      -7.8      3.073      6.301
REMARK  8 active torsions:
REMARK  status: ('A' for Active; 'I' for Inactive)
REMARK    1  A    between atoms: N1_2  and  C3_4 
REMARK    2  A    between atoms: C3_4  and  C4_5 
REMARK    3  A    between atoms: C4_5  and  C5_6 
REMARK    4  A    between atoms: C5_6  and  C6_7 
REMARK       I    between atoms: C6_7  and  N2_9 
REMARK    5  A    between atoms: N2_9  and  C7_10 
REMARK    6  A    between atoms: C10_13  and  C11_14 
REMARK    7  A    between atoms: C18_25  and  C19_26 
REMARK    8  A    between atoms: C19_26  and  N6_27 
ROOT
HETATM    1  C7  UNL     1      24.039   1.507  51.633  1.00  0.00     0.031 C 
HETATM    2  C8  UNL     1      22.924   1.661  50.986  1.00  0.00     0.004 C 
HETATM    3  C9  UNL     1      21.758   2.018  50.081  1.00  0.00     0.041 C 
HETATM    4  C10 UNL     1      20.687   2.417  51.050  1.00  0.00     0.036 C 
HETATM    5  C13 UNL     1      20.175   1.137  51.686  1.00  0.00    -0.001 C 
HETATM    6  C14 UNL     1      20.199   0.265  52.702  1.00  0.00     0.080 C 
HETATM    7  N3  UNL     1      21.067   0.415  53.839  1.00  0.00    -0.393 N 
HETATM    8  C15 UNL     1      21.868  -0.730  53.580  1.00  0.00     0.178 C 
HETATM    9  C16 UNL     1      23.139  -0.736  54.271  1.00  0.00     0.060 A 
HETATM   10  N4  UNL     1      23.310  -1.440  55.316  1.00  0.00    -0.270 NA
HETATM   11  C17 UNL     1      24.491  -1.546  56.085  1.00  0.00     0.298 A 
HETATM   12  N5  UNL     1      25.660  -0.904  55.604  1.00  0.00    -0.270 NA
HETATM   13  C18 UNL     1      25.584  -0.163  54.543  1.00  0.00     0.070 A 
HETATM   14  C20 UNL     1      24.315  -0.003  53.774  1.00  0.00     0.018 A 
HETATM   15  C21 UNL     1      24.541   0.811  52.775  1.00  0.00     0.044 C 
HETATM   16  H22 UNL     1      20.616   1.262  54.188  1.00  0.00     0.159 HD
ENDROOT
BRANCH   1  17
HETATM   17  N2  UNL     1      24.602   2.442  50.762  1.00  0.00    -0.327 N 
HETATM   18  C6  UNL     1      25.926   2.887  50.589  1.00  0.00     0.222 C 
HETATM   19  O1  UNL     1      26.976   2.537  51.216  1.00  0.00    -0.273 OA
HETATM   20  H13 UNL     1      24.139   3.074  50.024  1.00  0.00     0.169 HD
BRANCH  18  21
HETATM   21  C5  UNL     1      26.569   3.872  49.658  1.00  0.00     0.105 C 
BRANCH  21  22
HETATM   22  C4  UNL     1      25.503   4.831  49.215  1.00  0.00     0.028 C 
BRANCH  22  23
HETATM   23  C3  UNL     1      25.446   6.083  50.002  1.00  0.00     0.116 C 
BRANCH  23  24
HETATM   24  N1  UNL     1      24.200   6.561  50.453  1.00  0.00    -0.421 N 
HETATM   25  C1  UNL     1      24.003   7.954  50.612  1.00  0.00     0.142 C 
HETATM   26  C2  UNL     1      23.450   5.699  51.308  1.00  0.00     0.142 C 
ENDBRANCH  23  24
ENDBRANCH  22  23
ENDBRANCH  21  22
ENDBRANCH  18  21
ENDBRANCH   1  17
BRANCH   4  27
HETATM   27  C11 UNL     1      19.597   3.217  50.539  1.00  0.00    -0.010 C 
HETATM   28  C12 UNL     1      18.465   3.423  51.173  1.00  0.00     0.161 C 
HETATM   29 BR1  UNL     1      16.722   4.172  51.349  1.00  0.00    -0.172 Br
ENDBRANCH   4  27
BRANCH  13  30
HETATM   30  C19 UNL     1      26.884   0.415  54.212  1.00  0.00     0.326 C 
BRANCH  30  31
HETATM   31  N6  UNL     1      28.021  -0.179  54.862  1.00  0.00     0.083 N 
HETATM   32  H29 UNL     1      28.899  -0.063  54.335  1.00  0.00     0.313 HD
HETATM   33  H30 UNL     1      27.821  -1.139  55.213  1.00  0.00     0.313 HD
ENDBRANCH  30  31
ENDBRANCH  13  30
TORSDOF 8
ENDMDL
MODEL 4
REMARK VINA RESULT:      -7.8      3.426      7.116
REMARK  8 active torsions:
REMARK  status: ('A' for Active; 'I' for Inactive)
REMARK    1  A    between atoms: N1_2  and  C3_4 
REMARK    2  A    between atoms: C3_4  and  C4_5 
REMARK    3  A    between atoms: C4_5  and  C5_6 
REMARK    4  A    between atoms: C5_6  and  C6_7 
REMARK       I    between atoms: C6_7  and  N2_9 
REMARK    5  A    between atoms: N2_9  and  C7_10 
REMARK    6  A    between atoms: C10_13  and  C11_14 
REMARK    7  A    between atoms: C18_25  and  C19_26 
REMARK    8  A    between atoms: C19_26  and  N6_27 
ROOT
HETATM    1  C7  UNL     1      22.825   0.861  51.574  1.00  0.00     0.031 C 
HETATM    2  C8  UNL     1      21.615   0.794  51.108  1.00  0.00     0.004 C 
HETATM    3  C9  UNL     1      20.287   0.888  50.377  1.00  0.00     0.041 C 
HETATM    4  C10 UNL     1      19.330   1.277  51.462  1.00  0.00     0.036 C 
HETATM    5  C13 UNL     1      19.103   0.038  52.309  1.00  0.00    -0.001 C 
HETATM    6  C14 UNL     1      19.401  -0.687  53.395  1.00  0.00     0.080 C 
HETATM    7  N3  UNL     1      20.401  -0.287  54.348  1.00  0.00    -0.393 N 
HETATM    8  C15 UNL     1      21.305  -1.352  54.086  1.00  0.00     0.178 C 
HETATM    9  C16 UNL     1      22.655  -1.115  54.552  1.00  0.00     0.060 A 
HETATM   10  N4  UNL     1      23.077  -1.652  55.624  1.00  0.00    -0.270 NA
HETATM   11  C17 UNL     1      24.364  -1.515  56.193  1.00  0.00     0.298 A 
HETATM   12  N5  UNL     1      25.346  -0.805  55.458  1.00  0.00    -0.270 NA
HETATM   13  C18 UNL     1      25.008  -0.222  54.350  1.00  0.00     0.070 A 
HETATM   14  C20 UNL     1      23.628  -0.316  53.790  1.00  0.00     0.018 A 
HETATM   15  C21 UNL     1      23.585   0.383  52.685  1.00  0.00     0.044 C 
HETATM   16  H22 UNL     1      19.894   0.538  54.674  1.00  0.00     0.159 HD
ENDROOT
BRANCH   1  17
HETATM   17  N2  UNL     1      23.114   1.736  50.525  1.00  0.00    -0.327 N 
HETATM   18  C6  UNL     1      23.982   2.841  50.436  1.00  0.00     0.222 C 
HETATM   19  O1  UNL     1      24.740   3.337  51.328  1.00  0.00    -0.273 OA
HETATM   20  H13 UNL     1      22.711   1.787  49.529  1.00  0.00     0.169 HD
BRANCH  18  21
HETATM   21  C5  UNL     1      24.330   3.791  49.328  1.00  0.00     0.105 C 
BRANCH  21  22
HETATM   22  C4  UNL     1      23.043   4.216  48.682  1.00  0.00     0.028 C 
BRANCH  22  23
HETATM   23  C3  UNL     1      22.313   5.271  49.420  1.00  0.00     0.116 C 
BRANCH  23  24
HETATM   24  N1  UNL     1      21.072   4.969  50.014  1.00  0.00    -0.421 N 
HETATM   25  C1  UNL     1      21.023   4.606  51.382  1.00  0.00     0.142 C 
HETATM   26  C2  UNL     1      20.067   4.421  49.162  1.00  0.00     0.142 C 
ENDBRANCH  23  24
ENDBRANCH  22  23
ENDBRANCH  21  22
ENDBRANCH  18  21
ENDBRANCH   1  17
BRANCH   4  27
HETATM   27  C11 UNL     1      18.074   1.867  51.056  1.00  0.00    -0.010 C 
HETATM   28  C12 UNL     1      17.529   2.920  51.622  1.00  0.00     0.161 C 
HETATM   29 BR1  UNL     1      16.169   4.239  51.813  1.00  0.00    -0.172 Br
ENDBRANCH   4  27
BRANCH  13  30
HETATM   30  C19 UNL     1      26.150   0.460  53.746  1.00  0.00     0.326 C 
BRANCH  30  31
HETATM   31  N6  UNL     1      26.599   1.650  54.417  1.00  0.00     0.083 N 
HETATM   32  H29 UNL     1      25.865   2.367  54.510  1.00  0.00     0.313 HD
HETATM   33  H30 UNL     1      27.521   1.982  54.063  1.00  0.00     0.313 HD
ENDBRANCH  30  31
ENDBRANCH  13  30
TORSDOF 8
ENDMDL
MODEL 5
REMARK VINA RESULT:      -7.7      3.481      6.940
REMARK  8 active torsions:
REMARK  status: ('A' for Active; 'I' for Inactive)
REMARK    1  A    between atoms: N1_2  and  C3_4 
REMARK    2  A    between atoms: C3_4  and  C4_5 
REMARK    3  A    between atoms: C4_5  and  C5_6 
REMARK    4  A    between atoms: C5_6  and  C6_7 
REMARK       I    between atoms: C6_7  and  N2_9 
REMARK    5  A    between atoms: N2_9  and  C7_10 
REMARK    6  A    between atoms: C10_13  and  C11_14 
REMARK    7  A    between atoms: C18_25  and  C19_26 
REMARK    8  A    between atoms: C19_26  and  N6_27 
ROOT
HETATM    1  C7  UNL     1      21.804   1.079  51.619  1.00  0.00     0.031 C 
HETATM    2  C8  UNL     1      22.873   1.000  52.352  1.00  0.00     0.004 C 
HETATM    3  C9  UNL     1      24.240   1.046  53.011  1.00  0.00     0.041 C 
HETATM    4  C10 UNL     1      24.533  -0.398  53.285  1.00  0.00     0.036 C 
HETATM    5  C13 UNL     1      23.662  -0.804  54.460  1.00  0.00    -0.001 C 
HETATM    6  C14 UNL     1      22.538  -1.368  54.922  1.00  0.00     0.080 C 
HETATM    7  N3  UNL     1      21.520  -1.899  54.056  1.00  0.00    -0.393 N 
HETATM    8  C15 UNL     1      20.513  -0.955  54.396  1.00  0.00     0.178 C 
HETATM    9  C16 UNL     1      19.426  -0.875  53.444  1.00  0.00     0.060 A 
HETATM   10  N4  UNL     1      18.311  -1.437  53.680  1.00  0.00    -0.270 NA
HETATM   11  C17 UNL     1      17.167  -1.437  52.849  1.00  0.00     0.298 A 
HETATM   12  N5  UNL     1      17.194  -0.642  51.676  1.00  0.00    -0.270 NA
HETATM   13  C18 UNL     1      18.291  -0.029  51.352  1.00  0.00     0.070 A 
HETATM   14  C20 UNL     1      19.516  -0.089  52.202  1.00  0.00     0.018 A 
HETATM   15  C21 UNL     1      20.457   0.603  51.614  1.00  0.00     0.044 C 
HETATM   16  H22 UNL     1      22.098  -2.655  53.686  1.00  0.00     0.159 HD
ENDROOT
BRANCH   1  17
HETATM   17  N2  UNL     1      22.564   1.803  50.698  1.00  0.00    -0.327 N 
HETATM   18  C6  UNL     1      22.341   2.130  49.347  1.00  0.00     0.222 C 
HETATM   19  O1  UNL     1      21.356   1.827  48.602  1.00  0.00    -0.273 OA
HETATM   20  H13 UNL     1      23.531   2.264  50.802  1.00  0.00     0.169 HD
BRANCH  18  21
HETATM   21  C5  UNL     1      23.122   2.914  48.334  1.00  0.00     0.105 C 
BRANCH  21  22
HETATM   22  C4  UNL     1      23.895   3.964  49.080  1.00  0.00     0.028 C 
BRANCH  22  23
HETATM   23  C3  UNL     1      23.107   5.170  49.419  1.00  0.00     0.116 C 
BRANCH  23  24
HETATM   24  N1  UNL     1      22.738   5.401  50.758  1.00  0.00    -0.421 N 
HETATM   25  C1  UNL     1      23.639   5.068  51.799  1.00  0.00     0.142 C 
HETATM   26  C2  UNL     1      21.345   5.336  51.063  1.00  0.00     0.142 C 
ENDBRANCH  23  24
ENDBRANCH  22  23
ENDBRANCH  21  22
ENDBRANCH  18  21
ENDBRANCH   1  17
BRANCH   4  27
HETATM   27  C11 UNL     1      25.914  -0.762  53.510  1.00  0.00    -0.010 C 
HETATM   28  C12 UNL     1      26.825   0.046  54.002  1.00  0.00     0.161 C 
HETATM   29 BR1  UNL     1      28.588   0.474  54.583  1.00  0.00    -0.172 Br
ENDBRANCH   4  27
BRANCH  13  30
HETATM   30  C19 UNL     1      18.123   0.729  50.115  1.00  0.00     0.326 C 
BRANCH  30  31
HETATM   31  N6  UNL     1      17.112   0.246  49.214  1.00  0.00     0.083 N 
HETATM   32  H29 UNL     1      17.392   0.296  48.223  1.00  0.00     0.313 HD
HETATM   33  H30 UNL     1      16.166   0.620  49.441  1.00  0.00     0.313 HD
ENDBRANCH  30  31
ENDBRANCH  13  30
TORSDOF 8
ENDMDL
MODEL 6
REMARK VINA RESULT:      -7.6      2.563      6.411
REMARK  8 active torsions:
REMARK  status: ('A' for Active; 'I' for Inactive)
REMARK    1  A    between atoms: N1_2  and  C3_4 
REMARK    2  A    between atoms: C3_4  and  C4_5 
REMARK    3  A    between atoms: C4_5  and  C5_6 
REMARK    4  A    between atoms: C5_6  and  C6_7 
REMARK       I    between atoms: C6_7  and  N2_9 
REMARK    5  A    between atoms: N2_9  and  C7_10 
REMARK    6  A    between atoms: C10_13  and  C11_14 
REMARK    7  A    between atoms: C18_25  and  C19_26 
REMARK    8  A    between atoms: C19_26  and  N6_27 
ROOT
HETATM    1  C7  UNL     1      23.262   1.517  52.540  1.00  0.00     0.031 C 
HETATM    2  C8  UNL     1      23.058   2.400  51.610  1.00  0.00     0.004 C 
HETATM    3  C9  UNL     1      22.559   3.362  50.545  1.00  0.00     0.041 C 
HETATM    4  C10 UNL     1      23.402   3.015  49.355  1.00  0.00     0.036 C 
HETATM    5  C13 UNL     1      24.787   3.575  49.622  1.00  0.00    -0.001 C 
HETATM    6  C14 UNL     1      26.042   3.390  50.050  1.00  0.00     0.080 C 
HETATM    7  N3  UNL     1      26.516   2.130  50.558  1.00  0.00    -0.393 N 
HETATM    8  C15 UNL     1      26.726   2.566  51.894  1.00  0.00     0.178 C 
HETATM    9  C16 UNL     1      26.825   1.493  52.861  1.00  0.00     0.060 A 
HETATM   10  N4  UNL     1      27.956   1.121  53.307  1.00  0.00    -0.270 NA
HETATM   11  C17 UNL     1      28.202   0.098  54.252  1.00  0.00     0.298 A 
HETATM   12  N5  UNL     1      27.087  -0.519  54.872  1.00  0.00    -0.270 NA
HETATM   13  C18 UNL     1      25.891  -0.204  54.481  1.00  0.00     0.070 A 
HETATM   14  C20 UNL     1      25.643   0.830  53.435  1.00  0.00     0.018 A 
HETATM   15  C21 UNL     1      24.352   0.916  53.241  1.00  0.00     0.044 C 
HETATM   16  H22 UNL     1      26.432   1.635  49.668  1.00  0.00     0.159 HD
ENDROOT
BRANCH   1  17
HETATM   17  N2  UNL     1      21.885   1.285  52.537  1.00  0.00    -0.327 N 
HETATM   18  C6  UNL     1      21.118   0.175  52.938  1.00  0.00     0.222 C 
HETATM   19  O1  UNL     1      21.510  -0.938  53.414  1.00  0.00    -0.273 OA
HETATM   20  H13 UNL     1      21.075   1.905  52.193  1.00  0.00     0.169 HD
BRANCH  18  21
HETATM   21  C5  UNL     1      19.645  -0.105  52.964  1.00  0.00     0.105 C 
BRANCH  21  22
HETATM   22  C4  UNL     1      19.150  -0.030  51.549  1.00  0.00     0.028 C 
BRANCH  22  23
HETATM   23  C3  UNL     1      18.372   1.192  51.242  1.00  0.00     0.116 C 
BRANCH  23  24
HETATM   24  N1  UNL     1      19.038   2.330  50.748  1.00  0.00    -0.421 N 
HETATM   25  C1  UNL     1      18.952   3.553  51.458  1.00  0.00     0.142 C 
HETATM   26  C2  UNL     1      19.208   2.413  49.333  1.00  0.00     0.142 C 
ENDBRANCH  23  24
ENDBRANCH  22  23
ENDBRANCH  21  22
ENDBRANCH  18  21
ENDBRANCH   1  17
BRANCH   4  27
HETATM   27  C11 UNL     1      22.915   3.427  48.058  1.00  0.00    -0.010 C 
HETATM   28  C12 UNL     1      22.407   4.609  47.795  1.00  0.00     0.161 C 
HETATM   29 BR1  UNL     1      21.628   5.911  46.644  1.00  0.00    -0.172 Br
ENDBRANCH   4  27
BRANCH  13  30
HETATM   30  C19 UNL     1      24.881  -0.948  55.231  1.00  0.00     0.326 C 
BRANCH  30  31
HETATM   31  N6  UNL     1      25.228  -1.291  56.583  1.00  0.00     0.083 N 
HETATM   32  H29 UNL     1      25.524  -2.273  56.691  1.00  0.00     0.313 HD
HETATM   33  H30 UNL     1      24.527  -0.947  57.272  1.00  0.00     0.313 HD
ENDBRANCH  30  31
ENDBRANCH  13  30
TORSDOF 8
ENDMDL
MODEL 7
REMARK VINA RESULT:      -7.5      3.281      6.789
REMARK  8 active torsions:
REMARK  status: ('A' for Active; 'I' for Inactive)
REMARK    1  A    between atoms: N1_2  and  C3_4 
REMARK    2  A    between atoms: C3_4  and  C4_5 
REMARK    3  A    between atoms: C4_5  and  C5_6 
REMARK    4  A    between atoms: C5_6  and  C6_7 
REMARK       I    between atoms: C6_7  and  N2_9 
REMARK    5  A    between atoms: N2_9  and  C7_10 
REMARK    6  A    between atoms: C10_13  and  C11_14 
REMARK    7  A    between atoms: C18_25  and  C19_26 
REMARK    8  A    between atoms: C19_26  and  N6_27 
ROOT
HETATM    1  C7  UNL     1      22.728   0.966  51.504  1.00  0.00     0.031 C 
HETATM    2  C8  UNL     1      21.513   0.909  51.049  1.00  0.00     0.004 C 
HETATM    3  C9  UNL     1      20.179   1.017  50.331  1.00  0.00     0.041 C 
HETATM    4  C10 UNL     1      19.233   1.393  51.430  1.00  0.00     0.036 C 
HETATM    5  C13 UNL     1      19.010   0.142  52.261  1.00  0.00    -0.001 C 
HETATM    6  C14 UNL     1      19.316  -0.598  53.334  1.00  0.00     0.080 C 
HETATM    7  N3  UNL     1      20.325  -0.214  54.284  1.00  0.00    -0.393 N 
HETATM    8  C15 UNL     1      21.225  -1.277  53.999  1.00  0.00     0.178 C 
HETATM    9  C16 UNL     1      22.579  -1.051  54.456  1.00  0.00     0.060 A 
HETATM   10  N4  UNL     1      23.010  -1.604  55.516  1.00  0.00    -0.270 NA
HETATM   11  C17 UNL     1      24.302  -1.478  56.076  1.00  0.00     0.298 A 
HETATM   12  N5  UNL     1      25.279  -0.760  55.342  1.00  0.00    -0.270 NA
HETATM   13  C18 UNL     1      24.933  -0.160  54.245  1.00  0.00     0.070 A 
HETATM   14  C20 UNL     1      23.548  -0.244  53.697  1.00  0.00     0.018 A 
HETATM   15  C21 UNL     1      23.497   0.471  52.602  1.00  0.00     0.044 C 
HETATM   16  H22 UNL     1      19.824   0.607  54.626  1.00  0.00     0.159 HD
ENDROOT
BRANCH   1  17
HETATM   17  N2  UNL     1      23.010   1.855  50.465  1.00  0.00    -0.327 N 
HETATM   18  C6  UNL     1      23.598   3.134  50.457  1.00  0.00     0.222 C 
HETATM   19  O1  UNL     1      24.027   3.824  51.435  1.00  0.00    -0.273 OA
HETATM   20  H13 UNL     1      22.813   1.779  49.410  1.00  0.00     0.169 HD
BRANCH  18  21
HETATM   21  C5  UNL     1      23.931   4.108  49.366  1.00  0.00     0.105 C 
BRANCH  21  22
HETATM   22  C4  UNL     1      25.134   4.886  49.812  1.00  0.00     0.028 C 
BRANCH  22  23
HETATM   23  C3  UNL     1      25.553   5.949  48.871  1.00  0.00     0.116 C 
BRANCH  23  24
HETATM   24  N1  UNL     1      26.910   6.054  48.505  1.00  0.00    -0.421 N 
HETATM   25  C1  UNL     1      27.752   4.920  48.614  1.00  0.00     0.142 C 
HETATM   26  C2  UNL     1      27.522   7.333  48.660  1.00  0.00     0.142 C 
ENDBRANCH  23  24
ENDBRANCH  22  23
ENDBRANCH  21  22
ENDBRANCH  18  21
ENDBRANCH   1  17
BRANCH   4  27
HETATM   27  C11 UNL     1      17.975   1.992  51.043  1.00  0.00    -0.010 C 
HETATM   28  C12 UNL     1      17.553   2.101  49.804  1.00  0.00     0.161 C 
HETATM   29 BR1  UNL     1      16.294   2.621  48.472  1.00  0.00    -0.172 Br
ENDBRANCH   4  27
BRANCH  13  30
HETATM   30  C19 UNL     1      26.072   0.527  53.641  1.00  0.00     0.326 C 
BRANCH  30  31
HETATM   31  N6  UNL     1      26.465   1.761  54.264  1.00  0.00     0.083 N 
HETATM   32  H29 UNL     1      26.458   2.565  53.618  1.00  0.00     0.313 HD
HETATM   33  H30 UNL     1      27.317   1.655  54.853  1.00  0.00     0.313 HD
ENDBRANCH  30  31
ENDBRANCH  13  30
TORSDOF 8
ENDMDL
MODEL 8
REMARK VINA RESULT:      -7.4      2.674      6.650
REMARK  8 active torsions:
REMARK  status: ('A' for Active; 'I' for Inactive)
REMARK    1  A    between atoms: N1_2  and  C3_4 
REMARK    2  A    between atoms: C3_4  and  C4_5 
REMARK    3  A    between atoms: C4_5  and  C5_6 
REMARK    4  A    between atoms: C5_6  and  C6_7 
REMARK       I    between atoms: C6_7  and  N2_9 
REMARK    5  A    between atoms: N2_9  and  C7_10 
REMARK    6  A    between atoms: C10_13  and  C11_14 
REMARK    7  A    between atoms: C18_25  and  C19_26 
REMARK    8  A    between atoms: C19_26  and  N6_27 
ROOT
HETATM    1  C7  UNL     1      23.291   1.542  52.552  1.00  0.00     0.031 C 
HETATM    2  C8  UNL     1      23.072   2.447  51.647  1.00  0.00     0.004 C 
HETATM    3  C9  UNL     1      22.557   3.434  50.614  1.00  0.00     0.041 C 
HETATM    4  C10 UNL     1      23.378   3.113  49.401  1.00  0.00     0.036 C 
HETATM    5  C13 UNL     1      24.769   3.665  49.657  1.00  0.00    -0.001 C 
HETATM    6  C14 UNL     1      26.031   3.468  50.058  1.00  0.00     0.080 C 
HETATM    7  N3  UNL     1      26.511   2.196  50.527  1.00  0.00    -0.393 N 
HETATM    8  C15 UNL     1      26.745   2.600  51.870  1.00  0.00     0.178 C 
HETATM    9  C16 UNL     1      26.860   1.505  52.810  1.00  0.00     0.060 A 
HETATM   10  N4  UNL     1      27.997   1.121  53.227  1.00  0.00    -0.270 NA
HETATM   11  C17 UNL     1      28.258   0.076  54.143  1.00  0.00     0.298 A 
HETATM   12  N5  UNL     1      27.153  -0.554  54.768  1.00  0.00    -0.270 NA
HETATM   13  C18 UNL     1      25.950  -0.227  54.407  1.00  0.00     0.070 A 
HETATM   14  C20 UNL     1      25.686   0.831  53.389  1.00  0.00     0.018 A 
HETATM   15  C21 UNL     1      24.392   0.923  53.220  1.00  0.00     0.044 C 
HETATM   16  H22 UNL     1      26.410   1.721  49.628  1.00  0.00     0.159 HD
ENDROOT
BRANCH   1  17
HETATM   17  N2  UNL     1      21.914   1.313  52.568  1.00  0.00    -0.327 N 
HETATM   18  C6  UNL     1      21.155   0.176  52.903  1.00  0.00     0.222 C 
HETATM   19  O1  UNL     1      21.555  -0.971  53.282  1.00  0.00    -0.273 OA
HETATM   20  H13 UNL     1      21.097   1.957  52.294  1.00  0.00     0.169 HD
BRANCH  18  21
HETATM   21  C5  UNL     1      19.682  -0.104  52.947  1.00  0.00     0.105 C 
BRANCH  21  22
HETATM   22  C4  UNL     1      19.094   0.389  51.657  1.00  0.00     0.028 C 
BRANCH  22  23
HETATM   23  C3  UNL     1      17.860  -0.317  51.243  1.00  0.00     0.116 C 
BRANCH  23  24
HETATM   24  N1  UNL     1      16.791  -0.431  52.153  1.00  0.00    -0.421 N 
HETATM   25  C1  UNL     1      16.327  -1.716  52.526  1.00  0.00     0.142 C 
HETATM   26  C2  UNL     1      15.837   0.630  52.163  1.00  0.00     0.142 C 
ENDBRANCH  23  24
ENDBRANCH  22  23
ENDBRANCH  21  22
ENDBRANCH  18  21
ENDBRANCH   1  17
BRANCH   4  27
HETATM   27  C11 UNL     1      22.869   3.555  48.122  1.00  0.00    -0.010 C 
HETATM   28  C12 UNL     1      22.754   4.814  47.762  1.00  0.00     0.161 C 
HETATM   29 BR1  UNL     1      22.294   6.201  46.542  1.00  0.00    -0.172 Br
ENDBRANCH   4  27
BRANCH  13  30
HETATM   30  C19 UNL     1      24.953  -0.987  55.156  1.00  0.00     0.326 C 
BRANCH  30  31
HETATM   31  N6  UNL     1      25.278  -1.272  56.527  1.00  0.00     0.083 N 
HETATM   32  H29 UNL     1      24.579  -1.866  56.997  1.00  0.00     0.313 HD
HETATM   33  H30 UNL     1      25.581  -0.422  57.048  1.00  0.00     0.313 HD
ENDBRANCH  30  31
ENDBRANCH  13  30
TORSDOF 8
ENDMDL
MODEL 9
REMARK VINA RESULT:      -7.3      3.475      6.182
REMARK  8 active torsions:
REMARK  status: ('A' for Active; 'I' for Inactive)
REMARK    1  A    between atoms: N1_2  and  C3_4 
REMARK    2  A    between atoms: C3_4  and  C4_5 
REMARK    3  A    between atoms: C4_5  and  C5_6 
REMARK    4  A    between atoms: C5_6  and  C6_7 
REMARK       I    between atoms: C6_7  and  N2_9 
REMARK    5  A    between atoms: N2_9  and  C7_10 
REMARK    6  A    between atoms: C10_13  and  C11_14 
REMARK    7  A    between atoms: C18_25  and  C19_26 
REMARK    8  A    between atoms: C19_26  and  N6_27 
ROOT
HETATM    1  C7  UNL     1      23.433   2.289  51.511  1.00  0.00     0.031 C 
HETATM    2  C8  UNL     1      22.291   1.966  52.039  1.00  0.00     0.004 C 
HETATM    3  C9  UNL     1      21.082   1.360  52.729  1.00  0.00     0.041 C 
HETATM    4  C10 UNL     1      20.027   1.406  51.666  1.00  0.00     0.036 C 
HETATM    5  C13 UNL     1      19.592   2.855  51.544  1.00  0.00    -0.001 C 
HETATM    6  C14 UNL     1      19.687   4.039  50.925  1.00  0.00     0.080 C 
HETATM    7  N3  UNL     1      20.584   4.274  49.826  1.00  0.00    -0.393 N 
HETATM    8  C15 UNL     1      21.425   5.199  50.503  1.00  0.00     0.178 C 
HETATM    9  C16 UNL     1      22.718   5.394  49.882  1.00  0.00     0.060 A 
HETATM   10  N4  UNL     1      22.953   6.424  49.175  1.00  0.00    -0.270 NA
HETATM   11  C17 UNL     1      24.162   6.745  48.517  1.00  0.00     0.298 A 
HETATM   12  N5  UNL     1      25.286   5.911  48.742  1.00  0.00    -0.270 NA
HETATM   13  C18 UNL     1      25.143   4.834  49.452  1.00  0.00     0.070 A 
HETATM   14  C20 UNL     1      23.844   4.468  50.087  1.00  0.00     0.018 A 
HETATM   15  C21 UNL     1      24.001   3.331  50.716  1.00  0.00     0.044 C 
HETATM   16  H22 UNL     1      20.109   3.642  49.181  1.00  0.00     0.159 HD
ENDROOT
BRANCH   1  17
HETATM   17  N2  UNL     1      23.925   1.070  51.980  1.00  0.00    -0.327 N 
HETATM   18  C6  UNL     1      24.769   0.752  53.061  1.00  0.00     0.222 C 
HETATM   19  O1  UNL     1      25.319   1.530  53.904  1.00  0.00    -0.273 OA
HETATM   20  H13 UNL     1      23.794   0.072  51.600  1.00  0.00     0.169 HD
BRANCH  18  21
HETATM   21  C5  UNL     1      25.306  -0.539  53.605  1.00  0.00     0.105 C 
BRANCH  21  22
HETATM   22  C4  UNL     1      26.337  -1.039  52.635  1.00  0.00     0.028 C 
BRANCH  22  23
HETATM   23  C3  UNL     1      27.634  -0.329  52.710  1.00  0.00     0.116 C 
BRANCH  23  24
HETATM   24  N1  UNL     1      28.499  -0.580  53.793  1.00  0.00    -0.421 N 
HETATM   25  C1  UNL     1      28.542   0.331  54.877  1.00  0.00     0.142 C 
HETATM   26  C2  UNL     1      29.694  -1.305  53.508  1.00  0.00     0.142 C 
ENDBRANCH  23  24
ENDBRANCH  22  23
ENDBRANCH  21  22
ENDBRANCH  18  21
ENDBRANCH   1  17
BRANCH   4  27
HETATM   27  C11 UNL     1      18.887   0.532  51.828  1.00  0.00    -0.010 C 
HETATM   28  C12 UNL     1      18.836  -0.477  52.667  1.00  0.00     0.161 C 
HETATM   29 BR1  UNL     1      17.978  -1.960  53.499  1.00  0.00    -0.172 Br
ENDBRANCH   4  27
BRANCH  13  30
HETATM   30  C19 UNL     1      26.405   4.108  49.563  1.00  0.00     0.326 C 
BRANCH  30  31
HETATM   31  N6  UNL     1      27.597   4.880  49.341  1.00  0.00     0.083 N 
HETATM   32  H29 UNL     1      28.087   4.632  48.468  1.00  0.00     0.313 HD
HETATM   33  H30 UNL     1      28.191   4.949  50.194  1.00  0.00     0.313 HD
ENDBRANCH  30  31
ENDBRANCH  13  30
TORSDOF 8
ENDMDL
