MODEL 1
REMARK VINA RESULT:      -8.4      0.000      0.000
REMARK  7 active torsions:
REMARK  status: ('A' for Active; 'I' for Inactive)
REMARK    1  A    between atoms: N1_1  and  C1_2 
REMARK    2  A    between atoms: C2_4  and  N3_5 
REMARK    3  A    between atoms: N3_5  and  C3_6 
REMARK    4  A    between atoms: N4_11  and  C7_12 
REMARK    5  A    between atoms: C7_12  and  C8_13 
REMARK    6  A    between atoms: C8_13  and  C9_14 
REMARK    7  A    between atoms: C12_17  and  C13_18 
ROOT
HETATM    1  C1  UNL     1      25.261   2.019  52.693  1.00  0.00     0.723 C 
HETATM    2  N2  UNL     1      24.244   1.467  53.087  1.00  0.00    -0.046 NA
HETATM    3  C2  UNL     1      23.512   0.352  53.172  1.00  0.00     0.140 C 
HETATM    4  C4  UNL     1      22.877   0.660  52.068  1.00  0.00     0.025 C 
HETATM    5  C5  UNL     1      22.494   1.405  50.877  1.00  0.00     0.051 C 
HETATM    6  C6  UNL     1      23.415   2.466  50.399  1.00  0.00     0.127 C 
HETATM    7  N4  UNL     1      23.785   3.426  51.369  1.00  0.00    -0.374 N 
HETATM    8  C22 UNL     1      23.724   3.800  52.736  1.00  0.00     0.225 C 
HETATM    9  N5  UNL     1      24.521   3.023  53.364  1.00  0.00    -0.058 NA
ENDROOT
BRANCH   7  10
HETATM   10  C7  UNL     1      24.554   4.451  50.745  1.00  0.00     0.128 C 
BRANCH  10  11
HETATM   11  C8  UNL     1      24.875   4.310  49.301  1.00  0.00     0.058 C 
BRANCH  11  12
HETATM   12  C9  UNL     1      26.108   5.071  48.929  1.00  0.00    -0.057 A 
HETATM   13  C10 UNL     1      27.385   4.577  48.825  1.00  0.00     0.007 A 
HETATM   14  C11 UNL     1      28.436   5.404  48.469  1.00  0.00     0.009 A 
HETATM   15  C12 UNL     1      28.190   6.757  48.212  1.00  0.00    -0.045 A 
HETATM   16  C20 UNL     1      26.900   7.244  48.320  1.00  0.00     0.009 A 
HETATM   17  C21 UNL     1      25.877   6.383  48.679  1.00  0.00     0.007 A 
BRANCH  15  18
HETATM   18  C13 UNL     1      29.398   7.538  47.842  1.00  0.00     0.012 A 
HETATM   19  C14 UNL     1      29.930   8.458  48.880  1.00  0.00    -0.012 A 
HETATM   20  C15 UNL     1      31.189   8.700  49.125  1.00  0.00    -0.003 A 
HETATM   21  C16 UNL     1      32.215   8.045  48.349  1.00  0.00    -0.004 A 
HETATM   22  C17 UNL     1      31.828   7.217  47.410  1.00  0.00    -0.021 A 
HETATM   23  C18 UNL     1      30.434   6.862  47.041  1.00  0.00     0.026 A 
HETATM   24  C19 UNL     1      29.605   7.892  46.397  1.00  0.00     0.029 A 
ENDBRANCH  15  18
ENDBRANCH  11  12
ENDBRANCH  10  11
ENDBRANCH   7  10
BRANCH   1  25
HETATM   25  N1  UNL     1      26.465   2.565  52.197  1.00  0.00    -0.231 N 
HETATM   26  H1  UNL     1      27.144   1.952  52.740  1.00  0.00     0.174 HD
HETATM   27  H2  UNL     1      26.491   3.343  51.506  1.00  0.00     0.174 HD
ENDBRANCH   1  25
BRANCH   3  28
HETATM   28  N3  UNL     1      23.472  -0.694  54.088  1.00  0.00    -0.349 N 
HETATM   29  H3  UNL     1      24.450  -1.083  54.084  1.00  0.00     0.163 HD
BRANCH  28  30
HETATM   30  C3  UNL     1      22.249  -1.020  54.794  1.00  0.00     0.346 C 
HETATM   31  F1  UNL     1      21.571  -1.946  54.033  1.00  0.00    -0.234 F 
ENDBRANCH  28  30
ENDBRANCH   3  28
TORSDOF 7
ENDMDL
MODEL 2
REMARK VINA RESULT:      -8.4      1.134      1.950
REMARK  7 active torsions:
REMARK  status: ('A' for Active; 'I' for Inactive)
REMARK    1  A    between atoms: N1_1  and  C1_2 
REMARK    2  A    between atoms: C2_4  and  N3_5 
REMARK    3  A    between atoms: N3_5  and  C3_6 
REMARK    4  A    between atoms: N4_11  and  C7_12 
REMARK    5  A    between atoms: C7_12  and  C8_13 
REMARK    6  A    between atoms: C8_13  and  C9_14 
REMARK    7  A    between atoms: C12_17  and  C13_18 
ROOT
HETATM    1  C1  UNL     1      24.190   2.229  53.275  1.00  0.00     0.723 C 
HETATM    2  N2  UNL     1      23.932   1.040  53.169  1.00  0.00    -0.046 NA
HETATM    3  C2  UNL     1      23.990  -0.190  53.690  1.00  0.00     0.140 C 
HETATM    4  C4  UNL     1      25.129  -0.416  53.084  1.00  0.00     0.025 C 
HETATM    5  C5  UNL     1      26.303  -0.183  52.254  1.00  0.00     0.051 C 
HETATM    6  C6  UNL     1      26.621   1.219  51.883  1.00  0.00     0.127 C 
HETATM    7  N4  UNL     1      25.560   1.940  51.288  1.00  0.00    -0.374 N 
HETATM    8  C22 UNL     1      24.185   1.937  50.940  1.00  0.00     0.225 C 
HETATM    9  N5  UNL     1      23.532   2.094  52.028  1.00  0.00    -0.058 NA
ENDROOT
BRANCH   7  10
HETATM   10  C7  UNL     1      26.040   3.213  50.863  1.00  0.00     0.128 C 
BRANCH  10  11
HETATM   11  C8  UNL     1      25.647   3.701  49.516  1.00  0.00     0.058 C 
BRANCH  11  12
HETATM   12  C9  UNL     1      26.467   4.877  49.089  1.00  0.00    -0.057 A 
HETATM   13  C10 UNL     1      26.077   6.193  49.064  1.00  0.00     0.007 A 
HETATM   14  C11 UNL     1      26.948   7.181  48.642  1.00  0.00     0.009 A 
HETATM   15  C12 UNL     1      28.241   6.831  48.238  1.00  0.00    -0.045 A 
HETATM   16  C20 UNL     1      28.624   5.503  48.267  1.00  0.00     0.009 A 
HETATM   17  C21 UNL     1      27.722   4.545  48.696  1.00  0.00     0.007 A 
BRANCH  15  18
HETATM   18  C13 UNL     1      29.077   7.980  47.806  1.00  0.00     0.012 A 
HETATM   19  C14 UNL     1      28.990   9.207  48.639  1.00  0.00    -0.012 A 
HETATM   20  C15 UNL     1      29.975  10.011  48.935  1.00  0.00    -0.003 A 
HETATM   21  C16 UNL     1      31.303   9.741  48.436  1.00  0.00    -0.004 A 
HETATM   22  C17 UNL     1      31.465   8.675  47.690  1.00  0.00    -0.021 A 
HETATM   23  C18 UNL     1      30.427   7.691  47.289  1.00  0.00     0.026 A 
HETATM   24  C19 UNL     1      29.388   8.127  46.343  1.00  0.00     0.029 A 
ENDBRANCH  15  18
ENDBRANCH  11  12
ENDBRANCH  10  11
ENDBRANCH   7  10
BRANCH   1  25
HETATM   25  N1  UNL     1      24.530   3.584  53.490  1.00  0.00    -0.231 N 
HETATM   26  H1  UNL     1      23.719   4.028  52.964  1.00  0.00     0.174 HD
HETATM   27  H2  UNL     1      25.371   3.877  54.027  1.00  0.00     0.174 HD
ENDBRANCH   1  25
BRANCH   3  28
HETATM   28  N3  UNL     1      23.151  -0.906  54.537  1.00  0.00    -0.349 N 
HETATM   29  H3  UNL     1      23.764  -1.661  54.938  1.00  0.00     0.163 HD
BRANCH  28  30
HETATM   30  C3  UNL     1      21.759  -0.532  54.696  1.00  0.00     0.346 C 
HETATM   31  F1  UNL     1      21.032  -1.696  54.804  1.00  0.00    -0.234 F 
ENDBRANCH  28  30
ENDBRANCH   3  28
TORSDOF 7
ENDMDL
MODEL 3
REMARK VINA RESULT:      -8.2      5.235      9.912
REMARK  7 active torsions:
REMARK  status: ('A' for Active; 'I' for Inactive)
REMARK    1  A    between atoms: N1_1  and  C1_2 
REMARK    2  A    between atoms: C2_4  and  N3_5 
REMARK    3  A    between atoms: N3_5  and  C3_6 
REMARK    4  A    between atoms: N4_11  and  C7_12 
REMARK    5  A    between atoms: C7_12  and  C8_13 
REMARK    6  A    between atoms: C8_13  and  C9_14 
REMARK    7  A    between atoms: C12_17  and  C13_18 
ROOT
HETATM    1  C1  UNL     1      32.352   5.868  49.392  1.00  0.00     0.723 C 
HETATM    2  N2  UNL     1      33.114   6.102  48.465  1.00  0.00    -0.046 NA
HETATM    3  C2  UNL     1      34.005   6.924  47.902  1.00  0.00     0.140 C 
HETATM    4  C4  UNL     1      33.056   7.528  47.231  1.00  0.00     0.025 C 
HETATM    5  C5  UNL     1      31.720   7.851  46.747  1.00  0.00     0.051 C 
HETATM    6  C6  UNL     1      30.561   7.318  47.505  1.00  0.00     0.127 C 
HETATM    7  N4  UNL     1      30.579   5.922  47.730  1.00  0.00    -0.374 N 
HETATM    8  C22 UNL     1      31.324   4.721  47.612  1.00  0.00     0.225 C 
HETATM    9  N5  UNL     1      32.230   4.763  48.513  1.00  0.00    -0.058 NA
ENDROOT
BRANCH   7  10
HETATM   10  C7  UNL     1      29.353   5.532  48.343  1.00  0.00     0.128 C 
BRANCH  10  11
HETATM   11  C8  UNL     1      28.139   6.345  48.073  1.00  0.00     0.058 C 
BRANCH  11  12
HETATM   12  C9  UNL     1      26.903   5.693  48.604  1.00  0.00    -0.057 A 
HETATM   13  C10 UNL     1      25.659   6.259  48.735  1.00  0.00     0.007 A 
HETATM   14  C11 UNL     1      24.600   5.530  49.247  1.00  0.00     0.009 A 
HETATM   15  C12 UNL     1      24.803   4.201  49.632  1.00  0.00    -0.045 A 
HETATM   16  C20 UNL     1      26.059   3.640  49.496  1.00  0.00     0.009 A 
HETATM   17  C21 UNL     1      27.092   4.404  48.980  1.00  0.00     0.007 A 
BRANCH  15  18
HETATM   18  C13 UNL     1      23.591   3.529  50.166  1.00  0.00     0.012 A 
HETATM   19  C14 UNL     1      22.651   2.971  49.160  1.00  0.00    -0.012 A 
HETATM   20  C15 UNL     1      21.979   1.857  49.265  1.00  0.00    -0.003 A 
HETATM   21  C16 UNL     1      22.115   1.040  50.448  1.00  0.00    -0.004 A 
HETATM   22  C17 UNL     1      22.926   1.463  51.386  1.00  0.00    -0.021 A 
HETATM   23  C18 UNL     1      23.740   2.706  51.380  1.00  0.00     0.026 A 
HETATM   24  C19 UNL     1      23.037   3.994  51.483  1.00  0.00     0.029 A 
ENDBRANCH  15  18
ENDBRANCH  11  12
ENDBRANCH  10  11
ENDBRANCH   7  10
BRANCH   1  25
HETATM   25  N1  UNL     1      31.502   5.687  50.505  1.00  0.00    -0.231 N 
HETATM   26  H1  UNL     1      30.700   5.200  50.004  1.00  0.00     0.174 HD
HETATM   27  H2  UNL     1      31.750   6.006  51.464  1.00  0.00     0.174 HD
ENDBRANCH   1  25
BRANCH   3  28
HETATM   28  N3  UNL     1      35.386   7.052  48.013  1.00  0.00    -0.349 N 
HETATM   29  H3  UNL     1      35.646   7.744  47.264  1.00  0.00     0.163 HD
BRANCH  28  30
HETATM   30  C3  UNL     1      36.124   6.305  49.012  1.00  0.00     0.346 C 
HETATM   31  F1  UNL     1      37.307   6.974  49.232  1.00  0.00    -0.234 F 
ENDBRANCH  28  30
ENDBRANCH   3  28
TORSDOF 7
ENDMDL
MODEL 4
REMARK VINA RESULT:      -8.1      5.179      8.477
REMARK  7 active torsions:
REMARK  status: ('A' for Active; 'I' for Inactive)
REMARK    1  A    between atoms: N1_1  and  C1_2 
REMARK    2  A    between atoms: C2_4  and  N3_5 
REMARK    3  A    between atoms: N3_5  and  C3_6 
REMARK    4  A    between atoms: N4_11  and  C7_12 
REMARK    5  A    between atoms: C7_12  and  C8_13 
REMARK    6  A    between atoms: C8_13  and  C9_14 
REMARK    7  A    between atoms: C12_17  and  C13_18 
ROOT
HETATM    1  C1  UNL     1      22.412   7.755  50.385  1.00  0.00     0.723 C 
HETATM    2  N2  UNL     1      22.809   8.496  49.498  1.00  0.00    -0.046 NA
HETATM    3  C2  UNL     1      22.559   9.139  48.353  1.00  0.00     0.140 C 
HETATM    4  C4  UNL     1      23.009   8.123  47.660  1.00  0.00     0.025 C 
HETATM    5  C5  UNL     1      23.573   6.811  47.369  1.00  0.00     0.051 C 
HETATM    6  C6  UNL     1      23.581   5.805  48.460  1.00  0.00     0.127 C 
HETATM    7  N4  UNL     1      24.170   6.235  49.672  1.00  0.00    -0.374 N 
HETATM    8  C22 UNL     1      24.726   7.325  50.388  1.00  0.00     0.225 C 
HETATM    9  N5  UNL     1      23.749   8.076  50.729  1.00  0.00    -0.058 NA
ENDROOT
BRANCH   7  10
HETATM   10  C7  UNL     1      24.232   5.136  50.577  1.00  0.00     0.128 C 
BRANCH  10  11
HETATM   11  C8  UNL     1      24.106   3.761  50.027  1.00  0.00     0.058 C 
BRANCH  11  12
HETATM   12  C9  UNL     1      24.908   2.773  50.812  1.00  0.00    -0.057 A 
HETATM   13  C10 UNL     1      26.276   2.680  50.875  1.00  0.00     0.007 A 
HETATM   14  C11 UNL     1      26.885   1.707  51.647  1.00  0.00     0.009 A 
HETATM   15  C12 UNL     1      26.094   0.810  52.373  1.00  0.00    -0.045 A 
HETATM   16  C20 UNL     1      24.717   0.912  52.303  1.00  0.00     0.009 A 
HETATM   17  C21 UNL     1      24.147   1.899  51.518  1.00  0.00     0.007 A 
BRANCH  15  18
HETATM   18  C13 UNL     1      26.865  -0.185  53.160  1.00  0.00     0.012 A 
HETATM   19  C14 UNL     1      26.806  -1.591  52.682  1.00  0.00    -0.012 A 
HETATM   20  C15 UNL     1      27.788  -2.451  52.689  1.00  0.00    -0.003 A 
HETATM   21  C16 UNL     1      29.083  -2.065  53.200  1.00  0.00    -0.004 A 
HETATM   22  C17 UNL     1      29.218  -0.839  53.643  1.00  0.00    -0.021 A 
HETATM   23  C18 UNL     1      28.181   0.224  53.685  1.00  0.00     0.026 A 
HETATM   24  C19 UNL     1      27.064   0.064  54.629  1.00  0.00     0.029 A 
ENDBRANCH  15  18
ENDBRANCH  11  12
ENDBRANCH  10  11
ENDBRANCH   7  10
BRANCH   1  25
HETATM   25  N1  UNL     1      21.863   6.893  51.360  1.00  0.00    -0.231 N 
HETATM   26  H1  UNL     1      22.773   6.484  51.730  1.00  0.00     0.174 HD
HETATM   27  H2  UNL     1      20.839   6.809  51.529  1.00  0.00     0.174 HD
ENDBRANCH   1  25
BRANCH   3  28
HETATM   28  N3  UNL     1      22.029  10.392  48.060  1.00  0.00    -0.349 N 
HETATM   29  H3  UNL     1      22.835  10.926  47.644  1.00  0.00     0.163 HD
BRANCH  28  30
HETATM   30  C3  UNL     1      20.641  10.697  48.344  1.00  0.00     0.346 C 
HETATM   31  F1  UNL     1      20.507  10.760  49.712  1.00  0.00    -0.234 F 
ENDBRANCH  28  30
ENDBRANCH   3  28
TORSDOF 7
ENDMDL
MODEL 5
REMARK VINA RESULT:      -8.1      2.389      3.866
REMARK  7 active torsions:
REMARK  status: ('A' for Active; 'I' for Inactive)
REMARK    1  A    between atoms: N1_1  and  C1_2 
REMARK    2  A    between atoms: C2_4  and  N3_5 
REMARK    3  A    between atoms: N3_5  and  C3_6 
REMARK    4  A    between atoms: N4_11  and  C7_12 
REMARK    5  A    between atoms: C7_12  and  C8_13 
REMARK    6  A    between atoms: C8_13  and  C9_14 
REMARK    7  A    between atoms: C12_17  and  C13_18 
ROOT
HETATM    1  C1  UNL     1      20.098   1.485  52.444  1.00  0.00     0.723 C 
HETATM    2  N2  UNL     1      20.032   0.279  52.632  1.00  0.00    -0.046 NA
HETATM    3  C2  UNL     1      19.872  -0.734  53.489  1.00  0.00     0.140 C 
HETATM    4  C4  UNL     1      21.166  -0.809  53.675  1.00  0.00     0.025 C 
HETATM    5  C5  UNL     1      22.584  -0.499  53.547  1.00  0.00     0.051 C 
HETATM    6  C6  UNL     1      22.955   0.805  52.943  1.00  0.00     0.127 C 
HETATM    7  N4  UNL     1      22.371   1.074  51.683  1.00  0.00    -0.374 N 
HETATM    8  C22 UNL     1      21.440   0.645  50.703  1.00  0.00     0.225 C 
HETATM    9  N5  UNL     1      20.276   0.893  51.169  1.00  0.00    -0.058 NA
ENDROOT
BRANCH   7  10
HETATM   10  C7  UNL     1      22.915   2.285  51.164  1.00  0.00     0.128 C 
BRANCH  10  11
HETATM   11  C8  UNL     1      23.246   2.345  49.717  1.00  0.00     0.058 C 
BRANCH  11  12
HETATM   12  C9  UNL     1      24.175   3.474  49.406  1.00  0.00    -0.057 A 
HETATM   13  C10 UNL     1      23.847   4.690  48.858  1.00  0.00     0.007 A 
HETATM   14  C11 UNL     1      24.819   5.646  48.623  1.00  0.00     0.009 A 
HETATM   15  C12 UNL     1      26.150   5.368  48.952  1.00  0.00    -0.045 A 
HETATM   16  C20 UNL     1      26.471   4.142  49.504  1.00  0.00     0.009 A 
HETATM   17  C21 UNL     1      25.468   3.212  49.721  1.00  0.00     0.007 A 
BRANCH  15  18
HETATM   18  C13 UNL     1      27.096   6.473  48.651  1.00  0.00     0.012 A 
HETATM   19  C14 UNL     1      28.483   6.074  48.298  1.00  0.00    -0.012 A 
HETATM   20  C15 UNL     1      29.247   6.642  47.406  1.00  0.00    -0.003 A 
HETATM   21  C16 UNL     1      28.760   7.774  46.653  1.00  0.00    -0.004 A 
HETATM   22  C17 UNL     1      27.543   8.190  46.905  1.00  0.00    -0.021 A 
HETATM   23  C18 UNL     1      26.585   7.628  47.891  1.00  0.00     0.026 A 
HETATM   24  C19 UNL     1      26.881   7.800  49.321  1.00  0.00     0.029 A 
ENDBRANCH  15  18
ENDBRANCH  11  12
ENDBRANCH  10  11
ENDBRANCH   7  10
BRANCH   1  25
HETATM   25  N1  UNL     1      20.159   2.892  52.329  1.00  0.00    -0.231 N 
HETATM   26  H1  UNL     1      21.136   3.033  52.725  1.00  0.00     0.174 HD
HETATM   27  H2  UNL     1      19.378   3.462  51.947  1.00  0.00     0.174 HD
ENDBRANCH   1  25
BRANCH   3  28
HETATM   28  N3  UNL     1      18.754  -1.409  53.967  1.00  0.00    -0.349 N 
HETATM   29  H3  UNL     1      18.988  -1.630  54.968  1.00  0.00     0.163 HD
BRANCH  28  30
HETATM   30  C3  UNL     1      17.611  -1.657  53.109  1.00  0.00     0.346 C 
HETATM   31  F1  UNL     1      17.374  -3.013  53.124  1.00  0.00    -0.234 F 
ENDBRANCH  28  30
ENDBRANCH   3  28
TORSDOF 7
ENDMDL
MODEL 6
REMARK VINA RESULT:      -7.8      5.877      7.916
REMARK  7 active torsions:
REMARK  status: ('A' for Active; 'I' for Inactive)
REMARK    1  A    between atoms: N1_1  and  C1_2 
REMARK    2  A    between atoms: C2_4  and  N3_5 
REMARK    3  A    between atoms: N3_5  and  C3_6 
REMARK    4  A    between atoms: N4_11  and  C7_12 
REMARK    5  A    between atoms: C7_12  and  C8_13 
REMARK    6  A    between atoms: C8_13  and  C9_14 
REMARK    7  A    between atoms: C12_17  and  C13_18 
ROOT
HETATM    1  C1  UNL     1      18.782   3.059  51.511  1.00  0.00     0.723 C 
HETATM    2  N2  UNL     1      17.663   2.795  51.096  1.00  0.00    -0.046 NA
HETATM    3  C2  UNL     1      16.358   2.654  51.348  1.00  0.00     0.140 C 
HETATM    4  C4  UNL     1      16.524   1.382  51.612  1.00  0.00     0.025 C 
HETATM    5  C5  UNL     1      17.197   0.104  51.798  1.00  0.00     0.051 C 
HETATM    6  C6  UNL     1      18.676   0.112  51.928  1.00  0.00     0.127 C 
HETATM    7  N4  UNL     1      19.368   0.782  50.893  1.00  0.00    -0.374 N 
HETATM    8  C22 UNL     1      19.254   1.591  49.734  1.00  0.00     0.225 C 
HETATM    9  N5  UNL     1      18.948   2.766  50.135  1.00  0.00    -0.058 NA
ENDROOT
BRANCH   7  10
HETATM   10  C7  UNL     1      20.770   0.597  51.071  1.00  0.00     0.128 C 
BRANCH  10  11
HETATM   11  C8  UNL     1      21.265   0.228  52.423  1.00  0.00     0.058 C 
BRANCH  11  12
HETATM   12  C9  UNL     1      22.750   0.373  52.529  1.00  0.00    -0.057 A 
HETATM   13  C10 UNL     1      23.547   1.254  51.841  1.00  0.00     0.007 A 
HETATM   14  C11 UNL     1      24.916   1.275  52.043  1.00  0.00     0.009 A 
HETATM   15  C12 UNL     1      25.490   0.387  52.959  1.00  0.00    -0.045 A 
HETATM   16  C20 UNL     1      24.679  -0.496  53.647  1.00  0.00     0.009 A 
HETATM   17  C21 UNL     1      23.314  -0.485  53.416  1.00  0.00     0.007 A 
BRANCH  15  18
HETATM   18  C13 UNL     1      26.965   0.507  53.084  1.00  0.00     0.012 A 
HETATM   19  C14 UNL     1      27.542   1.849  52.808  1.00  0.00    -0.012 A 
HETATM   20  C15 UNL     1      28.542   2.404  53.437  1.00  0.00    -0.003 A 
HETATM   21  C16 UNL     1      29.197   1.701  54.515  1.00  0.00    -0.004 A 
HETATM   22  C17 UNL     1      28.748   0.508  54.821  1.00  0.00    -0.021 A 
HETATM   23  C18 UNL     1      27.624  -0.223  54.182  1.00  0.00     0.026 A 
HETATM   24  C19 UNL     1      27.807  -0.705  52.804  1.00  0.00     0.029 A 
ENDBRANCH  15  18
ENDBRANCH  11  12
ENDBRANCH  10  11
ENDBRANCH   7  10
BRANCH   1  25
HETATM   25  N1  UNL     1      20.033   3.380  52.084  1.00  0.00    -0.231 N 
HETATM   26  H1  UNL     1      19.946   2.798  52.971  1.00  0.00     0.174 HD
HETATM   27  H2  UNL     1      20.715   4.022  51.631  1.00  0.00     0.174 HD
ENDBRANCH   1  25
BRANCH   3  28
HETATM   28  N3  UNL     1      15.283   3.537  51.326  1.00  0.00    -0.349 N 
HETATM   29  H3  UNL     1      15.272   3.912  50.343  1.00  0.00     0.163 HD
BRANCH  28  30
HETATM   30  C3  UNL     1      14.475   3.755  52.509  1.00  0.00     0.346 C 
HETATM   31  F1  UNL     1      13.157   3.611  52.137  1.00  0.00    -0.234 F 
ENDBRANCH  28  30
ENDBRANCH   3  28
TORSDOF 7
ENDMDL
MODEL 7
REMARK VINA RESULT:      -7.6      6.655      8.690
REMARK  7 active torsions:
REMARK  status: ('A' for Active; 'I' for Inactive)
REMARK    1  A    between atoms: N1_1  and  C1_2 
REMARK    2  A    between atoms: C2_4  and  N3_5 
REMARK    3  A    between atoms: N3_5  and  C3_6 
REMARK    4  A    between atoms: N4_11  and  C7_12 
REMARK    5  A    between atoms: C7_12  and  C8_13 
REMARK    6  A    between atoms: C8_13  and  C9_14 
REMARK    7  A    between atoms: C12_17  and  C13_18 
ROOT
HETATM    1  C1  UNL     1      19.289   2.963  48.093  1.00  0.00     0.723 C 
HETATM    2  N2  UNL     1      20.162   3.613  47.537  1.00  0.00    -0.046 NA
HETATM    3  C2  UNL     1      20.894   3.835  46.441  1.00  0.00     0.140 C 
HETATM    4  C4  UNL     1      21.822   3.015  46.868  1.00  0.00     0.025 C 
HETATM    5  C5  UNL     1      22.514   2.068  47.732  1.00  0.00     0.051 C 
HETATM    6  C6  UNL     1      21.729   1.410  48.806  1.00  0.00     0.127 C 
HETATM    7  N4  UNL     1      21.022   2.287  49.660  1.00  0.00    -0.374 N 
HETATM    8  C22 UNL     1      20.633   3.629  49.907  1.00  0.00     0.225 C 
HETATM    9  N5  UNL     1      19.725   3.910  49.052  1.00  0.00    -0.058 NA
ENDROOT
BRANCH   7  10
HETATM   10  C7  UNL     1      20.428   1.536  50.715  1.00  0.00     0.128 C 
BRANCH  10  11
HETATM   11  C8  UNL     1      20.721   1.935  52.116  1.00  0.00     0.058 C 
BRANCH  11  12
HETATM   12  C9  UNL     1      22.050   1.423  52.574  1.00  0.00    -0.057 A 
HETATM   13  C10 UNL     1      23.240   2.107  52.591  1.00  0.00     0.007 A 
HETATM   14  C11 UNL     1      24.398   1.501  53.045  1.00  0.00     0.009 A 
HETATM   15  C12 UNL     1      24.351   0.176  53.492  1.00  0.00    -0.045 A 
HETATM   16  C20 UNL     1      23.148  -0.504  53.471  1.00  0.00     0.009 A 
HETATM   17  C21 UNL     1      22.012   0.138  53.009  1.00  0.00     0.007 A 
BRANCH  15  18
HETATM   18  C13 UNL     1      25.658  -0.360  53.951  1.00  0.00     0.012 A 
HETATM   19  C14 UNL     1      26.356  -1.281  53.017  1.00  0.00    -0.012 A 
HETATM   20  C15 UNL     1      27.644  -1.340  52.810  1.00  0.00    -0.003 A 
HETATM   21  C16 UNL     1      28.532  -0.455  53.526  1.00  0.00    -0.004 A 
HETATM   22  C17 UNL     1      27.994   0.389  54.371  1.00  0.00    -0.021 A 
HETATM   23  C18 UNL     1      26.552   0.551  54.689  1.00  0.00     0.026 A 
HETATM   24  C19 UNL     1      25.881  -0.531  55.427  1.00  0.00     0.029 A 
ENDBRANCH  15  18
ENDBRANCH  11  12
ENDBRANCH  10  11
ENDBRANCH   7  10
BRANCH   1  25
HETATM   25  N1  UNL     1      18.270   2.157  48.648  1.00  0.00    -0.231 N 
HETATM   26  H1  UNL     1      18.217   2.619  49.605  1.00  0.00     0.174 HD
HETATM   27  H2  UNL     1      17.818   1.378  48.127  1.00  0.00     0.174 HD
ENDBRANCH   1  25
BRANCH   3  28
HETATM   28  N3  UNL     1      20.706   4.631  45.316  1.00  0.00    -0.349 N 
HETATM   29  H3  UNL     1      20.919   5.607  45.646  1.00  0.00     0.163 HD
BRANCH  28  30
HETATM   30  C3  UNL     1      20.302   4.048  44.051  1.00  0.00     0.346 C 
HETATM   31  F1  UNL     1      21.059   4.641  43.066  1.00  0.00    -0.234 F 
ENDBRANCH  28  30
ENDBRANCH   3  28
TORSDOF 7
ENDMDL
MODEL 8
REMARK VINA RESULT:      -7.6      3.919      9.583
REMARK  7 active torsions:
REMARK  status: ('A' for Active; 'I' for Inactive)
REMARK    1  A    between atoms: N1_1  and  C1_2 
REMARK    2  A    between atoms: C2_4  and  N3_5 
REMARK    3  A    between atoms: N3_5  and  C3_6 
REMARK    4  A    between atoms: N4_11  and  C7_12 
REMARK    5  A    between atoms: C7_12  and  C8_13 
REMARK    6  A    between atoms: C8_13  and  C9_14 
REMARK    7  A    between atoms: C12_17  and  C13_18 
ROOT
HETATM    1  C1  UNL     1      26.177   7.524  47.780  1.00  0.00     0.723 C 
HETATM    2  N2  UNL     1      27.326   7.353  48.159  1.00  0.00    -0.046 NA
HETATM    3  C2  UNL     1      28.563   6.923  47.891  1.00  0.00     0.140 C 
HETATM    4  C4  UNL     1      28.270   5.731  48.346  1.00  0.00     0.025 C 
HETATM    5  C5  UNL     1      27.490   4.643  48.922  1.00  0.00     0.051 C 
HETATM    6  C6  UNL     1      26.013   4.791  48.953  1.00  0.00     0.127 C 
HETATM    7  N4  UNL     1      25.540   5.983  49.549  1.00  0.00    -0.374 N 
HETATM    8  C22 UNL     1      25.889   7.243  50.099  1.00  0.00     0.225 C 
HETATM    9  N5  UNL     1      26.209   7.995  49.116  1.00  0.00    -0.058 NA
ENDROOT
BRANCH   7  10
HETATM   10  C7  UNL     1      24.118   5.931  49.632  1.00  0.00     0.128 C 
BRANCH  10  11
HETATM   11  C8  UNL     1      23.408   4.847  48.905  1.00  0.00     0.058 C 
BRANCH  11  12
HETATM   12  C9  UNL     1      22.901   3.792  49.836  1.00  0.00    -0.057 A 
HETATM   13  C10 UNL     1      22.621   3.933  51.173  1.00  0.00     0.007 A 
HETATM   14  C11 UNL     1      22.155   2.862  51.915  1.00  0.00     0.009 A 
HETATM   15  C12 UNL     1      21.967   1.624  51.291  1.00  0.00    -0.045 A 
HETATM   16  C20 UNL     1      22.251   1.492  49.944  1.00  0.00     0.009 A 
HETATM   17  C21 UNL     1      22.716   2.588  49.239  1.00  0.00     0.007 A 
BRANCH  15  18
HETATM   18  C13 UNL     1      21.465   0.556  52.193  1.00  0.00     0.012 A 
HETATM   19  C14 UNL     1      22.436  -0.508  52.558  1.00  0.00    -0.012 A 
HETATM   20  C15 UNL     1      22.542  -1.092  53.720  1.00  0.00    -0.003 A 
HETATM   21  C16 UNL     1      21.660  -0.717  54.800  1.00  0.00    -0.004 A 
HETATM   22  C17 UNL     1      20.772   0.217  54.560  1.00  0.00    -0.021 A 
HETATM   23  C18 UNL     1      20.558   0.950  53.286  1.00  0.00     0.026 A 
HETATM   24  C19 UNL     1      20.005   0.206  52.144  1.00  0.00     0.029 A 
ENDBRANCH  15  18
ENDBRANCH  11  12
ENDBRANCH  10  11
ENDBRANCH   7  10
BRANCH   1  25
HETATM   25  N1  UNL     1      24.877   7.682  47.250  1.00  0.00    -0.231 N 
HETATM   26  H1  UNL     1      24.467   8.277  48.030  1.00  0.00     0.174 HD
HETATM   27  H2  UNL     1      24.580   7.262  46.346  1.00  0.00     0.174 HD
ENDBRANCH   1  25
BRANCH   3  28
HETATM   28  N3  UNL     1      29.686   7.535  47.344  1.00  0.00    -0.349 N 
HETATM   29  H3  UNL     1      29.424   7.713  46.340  1.00  0.00     0.163 HD
BRANCH  28  30
HETATM   30  C3  UNL     1      30.864   7.787  48.150  1.00  0.00     0.346 C 
HETATM   31  F1  UNL     1      30.431   8.213  49.385  1.00  0.00    -0.234 F 
ENDBRANCH  28  30
ENDBRANCH   3  28
TORSDOF 7
ENDMDL
MODEL 9
REMARK VINA RESULT:      -7.5      5.837      7.797
REMARK  7 active torsions:
REMARK  status: ('A' for Active; 'I' for Inactive)
REMARK    1  A    between atoms: N1_1  and  C1_2 
REMARK    2  A    between atoms: C2_4  and  N3_5 
REMARK    3  A    between atoms: N3_5  and  C3_6 
REMARK    4  A    between atoms: N4_11  and  C7_12 
REMARK    5  A    between atoms: C7_12  and  C8_13 
REMARK    6  A    between atoms: C8_13  and  C9_14 
REMARK    7  A    between atoms: C12_17  and  C13_18 
ROOT
HETATM    1  C1  UNL     1      18.468   2.672  50.420  1.00  0.00     0.723 C 
HETATM    2  N2  UNL     1      17.948   1.630  50.048  1.00  0.00    -0.046 NA
HETATM    3  C2  UNL     1      16.940   0.759  50.151  1.00  0.00     0.140 C 
HETATM    4  C4  UNL     1      17.598   0.071  51.051  1.00  0.00     0.025 C 
HETATM    5  C5  UNL     1      18.672  -0.316  51.957  1.00  0.00     0.051 C 
HETATM    6  C6  UNL     1      19.712   0.696  52.268  1.00  0.00     0.127 C 
HETATM    7  N4  UNL     1      20.332   1.289  51.144  1.00  0.00    -0.374 N 
HETATM    8  C22 UNL     1      20.334   1.414  49.731  1.00  0.00     0.225 C 
HETATM    9  N5  UNL     1      19.334   2.150  49.427  1.00  0.00    -0.058 NA
ENDROOT
BRANCH   7  10
HETATM   10  C7  UNL     1      21.393   2.132  51.585  1.00  0.00     0.128 C 
BRANCH  10  11
HETATM   11  C8  UNL     1      22.611   2.232  50.740  1.00  0.00     0.058 C 
BRANCH  11  12
HETATM   12  C9  UNL     1      23.814   1.671  51.429  1.00  0.00    -0.057 A 
HETATM   13  C10 UNL     1      25.127   2.003  51.204  1.00  0.00     0.007 A 
HETATM   14  C11 UNL     1      26.143   1.397  51.922  1.00  0.00     0.009 A 
HETATM   15  C12 UNL     1      25.824   0.437  52.888  1.00  0.00    -0.045 A 
HETATM   16  C20 UNL     1      24.499   0.110  53.107  1.00  0.00     0.009 A 
HETATM   17  C21 UNL     1      23.513   0.739  52.367  1.00  0.00     0.007 A 
BRANCH  15  18
HETATM   18  C13 UNL     1      27.001  -0.140  53.587  1.00  0.00     0.012 A 
HETATM   19  C14 UNL     1      27.493  -1.446  53.079  1.00  0.00    -0.012 A 
HETATM   20  C15 UNL     1      28.741  -1.819  52.988  1.00  0.00    -0.003 A 
HETATM   21  C16 UNL     1      29.795  -0.925  53.405  1.00  0.00    -0.004 A 
HETATM   22  C17 UNL     1      29.444   0.251  53.867  1.00  0.00    -0.021 A 
HETATM   23  C18 UNL     1      28.066   0.785  54.017  1.00  0.00     0.026 A 
HETATM   24  C19 UNL     1      27.198   0.184  55.041  1.00  0.00     0.029 A 
ENDBRANCH  15  18
ENDBRANCH  11  12
ENDBRANCH  10  11
ENDBRANCH   7  10
BRANCH   1  25
HETATM   25  N1  UNL     1      18.989   3.888  50.915  1.00  0.00    -0.231 N 
HETATM   26  H1  UNL     1      18.903   4.463  50.024  1.00  0.00     0.174 HD
HETATM   27  H2  UNL     1      19.318   4.005  51.895  1.00  0.00     0.174 HD
ENDBRANCH   1  25
BRANCH   3  28
HETATM   28  N3  UNL     1      15.699   0.661  49.531  1.00  0.00    -0.349 N 
HETATM   29  H3  UNL     1      15.861   1.030  48.559  1.00  0.00     0.163 HD
BRANCH  28  30
HETATM   30  C3  UNL     1      14.550   0.135  50.242  1.00  0.00     0.346 C 
HETATM   31  F1  UNL     1      13.784   1.209  50.634  1.00  0.00    -0.234 F 
ENDBRANCH  28  30
ENDBRANCH   3  28
TORSDOF 7
ENDMDL
