MODEL 1
REMARK VINA RESULT:      -7.3      0.000      0.000
REMARK  8 active torsions:
REMARK  status: ('A' for Active; 'I' for Inactive)
REMARK    1  A    between atoms: O1_2  and  C2_3 
REMARK    2  A    between atoms: C4_5  and  O2_6 
REMARK    3  A    between atoms: O2_6  and  C5_7 
REMARK    4  A    between atoms: C10_13  and  N1_14 
REMARK    5  A    between atoms: N1_14  and  C11_15 
REMARK    6  A    between atoms: C11_15  and  C12_16 
REMARK    7  A    between atoms: C12_16  and  C13_17 
REMARK    8  A    between atoms: C13_17  and  C14_19 
ROOT
HETATM    1  C2  UNL     1      23.264  -0.896  54.462  1.00  0.00     0.073 A 
HETATM    2  C3  UNL     1      22.977   0.067  53.519  1.00  0.00     0.074 A 
HETATM    3  C4  UNL     1      23.846   0.956  52.937  1.00  0.00     0.088 A 
HETATM    4  C9  UNL     1      25.161   0.822  53.396  1.00  0.00     0.072 A 
HETATM    5  C10 UNL     1      26.209   1.593  52.940  1.00  0.00     0.144 A 
HETATM    6  N2  UNL     1      27.477   1.452  53.369  1.00  0.00    -0.223 NA
HETATM    7  C16 UNL     1      27.775   0.521  54.292  1.00  0.00     0.236 A 
HETATM    8  N3  UNL     1      26.803  -0.267  54.781  1.00  0.00    -0.241 NA
HETATM    9  C17 UNL     1      25.543  -0.122  54.347  1.00  0.00     0.077 A 
HETATM   10  C18 UNL     1      24.573  -0.952  54.849  1.00  0.00     0.069 A 
ENDROOT
BRANCH   5  11
HETATM   11  N1  UNL     1      26.000   2.609  51.970  1.00  0.00    -0.349 N 
HETATM   12  H12 UNL     1      25.276   3.334  52.203  1.00  0.00     0.167 HD
BRANCH  11  13
HETATM   13  C11 UNL     1      26.697   2.689  50.744  1.00  0.00     0.105 C 
BRANCH  13  14
HETATM   14  C12 UNL     1      26.462   3.655  49.850  1.00  0.00     0.030 C 
BRANCH  14  15
HETATM   15  C13 UNL     1      26.793   4.653  49.035  1.00  0.00     0.124 C 
HETATM   16  F1  UNL     1      27.957   4.513  48.430  1.00  0.00    -0.208 F 
BRANCH  15  17
HETATM   17  C14 UNL     1      25.831   5.746  48.908  1.00  0.00     0.141 C 
HETATM   18  C15 UNL     1      25.376   6.312  50.223  1.00  0.00     0.034 C 
HETATM   19 CL1  UNL     1      26.424   7.063  47.890  1.00  0.00    -0.118 Cl
ENDBRANCH  15  17
ENDBRANCH  14  15
ENDBRANCH  13  14
ENDBRANCH  11  13
ENDBRANCH   5  11
BRANCH   3  20
HETATM   20  O2  UNL     1      23.734   1.922  52.033  1.00  0.00    -0.343 OA
BRANCH  20  21
HETATM   21  C5  UNL     1      22.805   2.632  51.358  1.00  0.00     0.154 C 
HETATM   22  C6  UNL     1      23.028   2.588  49.874  1.00  0.00     0.061 C 
HETATM   23  C7  UNL     1      22.393   3.887  49.422  1.00  0.00     0.170 C 
HETATM   24  O3  UNL     1      21.849   4.494  50.570  1.00  0.00    -0.389 OA
HETATM   25  C8  UNL     1      22.762   4.133  51.601  1.00  0.00     0.200 C 
ENDBRANCH  20  21
ENDBRANCH   3  20
BRANCH   1  26
HETATM   26  O1  UNL     1      22.220  -1.671  54.898  1.00  0.00    -0.356 OA
HETATM   27  C1  UNL     1      20.929  -1.693  54.387  1.00  0.00     0.210 C 
ENDBRANCH   1  26
TORSDOF 8
ENDMDL
MODEL 2
REMARK VINA RESULT:      -7.1      2.865      5.155
REMARK  8 active torsions:
REMARK  status: ('A' for Active; 'I' for Inactive)
REMARK    1  A    between atoms: O1_2  and  C2_3 
REMARK    2  A    between atoms: C4_5  and  O2_6 
REMARK    3  A    between atoms: O2_6  and  C5_7 
REMARK    4  A    between atoms: C10_13  and  N1_14 
REMARK    5  A    between atoms: N1_14  and  C11_15 
REMARK    6  A    between atoms: C11_15  and  C12_16 
REMARK    7  A    between atoms: C12_16  and  C13_17 
REMARK    8  A    between atoms: C13_17  and  C14_19 
ROOT
HETATM    1  C2  UNL     1      27.464   0.096  53.568  1.00  0.00     0.073 A 
HETATM    2  C3  UNL     1      26.151  -0.312  53.673  1.00  0.00     0.074 A 
HETATM    3  C4  UNL     1      25.062   0.187  53.006  1.00  0.00     0.088 A 
HETATM    4  C9  UNL     1      25.382   1.232  52.131  1.00  0.00     0.072 A 
HETATM    5  C10 UNL     1      24.454   1.874  51.341  1.00  0.00     0.144 A 
HETATM    6  N2  UNL     1      24.764   2.867  50.487  1.00  0.00    -0.223 NA
HETATM    7  C16 UNL     1      26.038   3.282  50.374  1.00  0.00     0.236 A 
HETATM    8  N3  UNL     1      26.997   2.701  51.114  1.00  0.00    -0.241 NA
HETATM    9  C17 UNL     1      26.679   1.711  51.961  1.00  0.00     0.077 A 
HETATM   10  C18 UNL     1      27.679   1.121  52.691  1.00  0.00     0.069 A 
ENDROOT
BRANCH   5  11
HETATM   11  N1  UNL     1      23.080   1.516  51.389  1.00  0.00    -0.349 N 
HETATM   12  H12 UNL     1      22.800   0.843  52.146  1.00  0.00     0.167 HD
BRANCH  11  13
HETATM   13  C11 UNL     1      22.102   2.008  50.498  1.00  0.00     0.105 C 
BRANCH  13  14
HETATM   14  C12 UNL     1      21.302   3.033  50.809  1.00  0.00     0.030 C 
BRANCH  14  15
HETATM   15  C13 UNL     1      20.906   4.082  51.526  1.00  0.00     0.124 C 
HETATM   16  F1  UNL     1      19.688   3.986  52.024  1.00  0.00    -0.208 F 
BRANCH  15  17
HETATM   17  C14 UNL     1      21.864   5.175  51.677  1.00  0.00     0.141 C 
HETATM   18  C15 UNL     1      22.942   4.904  52.689  1.00  0.00     0.034 C 
HETATM   19 CL1  UNL     1      22.616   5.641  50.148  1.00  0.00    -0.118 Cl
ENDBRANCH  15  17
ENDBRANCH  14  15
ENDBRANCH  13  14
ENDBRANCH  11  13
ENDBRANCH   5  11
BRANCH   3  20
HETATM   20  O2  UNL     1      23.763  -0.089  52.992  1.00  0.00    -0.343 OA
BRANCH  20  21
HETATM   21  C5  UNL     1      22.869  -0.983  53.467  1.00  0.00     0.154 C 
HETATM   22  C6  UNL     1      21.460  -0.633  53.082  1.00  0.00     0.061 C 
HETATM   23  C7  UNL     1      20.662  -1.274  54.198  1.00  0.00     0.170 C 
HETATM   24  O3  UNL     1      21.586  -1.935  55.030  1.00  0.00    -0.389 OA
HETATM   25  C8  UNL     1      22.737  -1.100  54.977  1.00  0.00     0.200 C 
ENDBRANCH  20  21
ENDBRANCH   3  20
BRANCH   1  26
HETATM   26  O1  UNL     1      28.384  -0.560  54.345  1.00  0.00    -0.356 OA
HETATM   27  C1  UNL     1      29.678  -0.912  53.985  1.00  0.00     0.210 C 
ENDBRANCH   1  26
TORSDOF 8
ENDMDL
MODEL 3
REMARK VINA RESULT:      -7.1      3.197      5.520
REMARK  8 active torsions:
REMARK  status: ('A' for Active; 'I' for Inactive)
REMARK    1  A    between atoms: O1_2  and  C2_3 
REMARK    2  A    between atoms: C4_5  and  O2_6 
REMARK    3  A    between atoms: O2_6  and  C5_7 
REMARK    4  A    between atoms: C10_13  and  N1_14 
REMARK    5  A    between atoms: N1_14  and  C11_15 
REMARK    6  A    between atoms: C11_15  and  C12_16 
REMARK    7  A    between atoms: C12_16  and  C13_17 
REMARK    8  A    between atoms: C13_17  and  C14_19 
ROOT
HETATM    1  C2  UNL     1      27.523  -0.164  53.409  1.00  0.00     0.073 A 
HETATM    2  C3  UNL     1      26.196  -0.484  53.602  1.00  0.00     0.074 A 
HETATM    3  C4  UNL     1      25.096   0.157  53.091  1.00  0.00     0.088 A 
HETATM    4  C9  UNL     1      25.423   1.257  52.288  1.00  0.00     0.072 A 
HETATM    5  C10 UNL     1      24.484   2.040  51.652  1.00  0.00     0.144 A 
HETATM    6  N2  UNL     1      24.798   3.087  50.866  1.00  0.00    -0.223 NA
HETATM    7  C16 UNL     1      26.086   3.416  50.670  1.00  0.00     0.236 A 
HETATM    8  N3  UNL     1      27.056   2.696  51.258  1.00  0.00    -0.241 NA
HETATM    9  C17 UNL     1      26.734   1.653  52.038  1.00  0.00     0.077 A 
HETATM   10  C18 UNL     1      27.744   0.923  52.612  1.00  0.00     0.069 A 
ENDROOT
BRANCH   5  11
HETATM   11  N1  UNL     1      23.095   1.780  51.800  1.00  0.00    -0.349 N 
HETATM   12  H12 UNL     1      22.802   0.772  51.763  1.00  0.00     0.167 HD
BRANCH  11  13
HETATM   13  C11 UNL     1      22.118   2.782  51.991  1.00  0.00     0.105 C 
BRANCH  13  14
HETATM   14  C12 UNL     1      21.162   3.030  51.090  1.00  0.00     0.030 C 
BRANCH  14  15
HETATM   15  C13 UNL     1      20.643   3.093  49.866  1.00  0.00     0.124 C 
HETATM   16  F1  UNL     1      20.542   4.311  49.368  1.00  0.00    -0.208 F 
BRANCH  15  17
HETATM   17  C14 UNL     1      20.274   1.825  49.241  1.00  0.00     0.141 C 
HETATM   18  C15 UNL     1      21.440   1.061  48.680  1.00  0.00     0.034 C 
HETATM   19 CL1  UNL     1      19.364   0.768  50.326  1.00  0.00    -0.118 Cl
ENDBRANCH  15  17
ENDBRANCH  14  15
ENDBRANCH  13  14
ENDBRANCH  11  13
ENDBRANCH   5  11
BRANCH   3  20
HETATM   20  O2  UNL     1      23.783  -0.020  53.177  1.00  0.00    -0.343 OA
BRANCH  20  21
HETATM   21  C5  UNL     1      22.865  -0.931  53.564  1.00  0.00     0.154 C 
HETATM   22  C6  UNL     1      21.484  -0.578  53.091  1.00  0.00     0.061 C 
HETATM   23  C7  UNL     1      20.614  -1.254  54.131  1.00  0.00     0.170 C 
HETATM   24  O3  UNL     1      21.482  -1.933  55.007  1.00  0.00    -0.389 OA
HETATM   25  C8  UNL     1      22.629  -1.092  55.057  1.00  0.00     0.200 C 
ENDBRANCH  20  21
ENDBRANCH   3  20
BRANCH   1  26
HETATM   26  O1  UNL     1      28.452  -0.960  54.030  1.00  0.00    -0.356 OA
HETATM   27  C1  UNL     1      29.804  -1.052  53.730  1.00  0.00     0.210 C 
ENDBRANCH   1  26
TORSDOF 8
ENDMDL
MODEL 4
REMARK VINA RESULT:      -7.1      2.722      4.984
REMARK  8 active torsions:
REMARK  status: ('A' for Active; 'I' for Inactive)
REMARK    1  A    between atoms: O1_2  and  C2_3 
REMARK    2  A    between atoms: C4_5  and  O2_6 
REMARK    3  A    between atoms: O2_6  and  C5_7 
REMARK    4  A    between atoms: C10_13  and  N1_14 
REMARK    5  A    between atoms: N1_14  and  C11_15 
REMARK    6  A    between atoms: C11_15  and  C12_16 
REMARK    7  A    between atoms: C12_16  and  C13_17 
REMARK    8  A    between atoms: C13_17  and  C14_19 
ROOT
HETATM    1  C2  UNL     1      27.497  -0.120  53.447  1.00  0.00     0.073 A 
HETATM    2  C3  UNL     1      26.169  -0.469  53.564  1.00  0.00     0.074 A 
HETATM    3  C4  UNL     1      25.088   0.133  52.970  1.00  0.00     0.088 A 
HETATM    4  C9  UNL     1      25.439   1.223  52.165  1.00  0.00     0.072 A 
HETATM    5  C10 UNL     1      24.523   1.969  51.454  1.00  0.00     0.144 A 
HETATM    6  N2  UNL     1      24.861   3.007  50.666  1.00  0.00    -0.223 NA
HETATM    7  C16 UNL     1      26.151   3.364  50.544  1.00  0.00     0.236 A 
HETATM    8  N3  UNL     1      27.098   2.681  51.207  1.00  0.00    -0.241 NA
HETATM    9  C17 UNL     1      26.753   1.647  51.989  1.00  0.00     0.077 A 
HETATM   10  C18 UNL     1      27.742   0.955  52.641  1.00  0.00     0.069 A 
ENDROOT
BRANCH   5  11
HETATM   11  N1  UNL     1      23.134   1.677  51.520  1.00  0.00    -0.349 N 
HETATM   12  H12 UNL     1      22.862   0.828  52.076  1.00  0.00     0.167 HD
BRANCH  11  13
HETATM   13  C11 UNL     1      22.132   2.452  50.896  1.00  0.00     0.105 C 
BRANCH  13  14
HETATM   14  C12 UNL     1      21.754   2.245  49.630  1.00  0.00     0.030 C 
BRANCH  14  15
HETATM   15  C13 UNL     1      21.905   2.253  48.308  1.00  0.00     0.124 C 
HETATM   16  F1  UNL     1      22.112   1.068  47.766  1.00  0.00    -0.208 F 
BRANCH  15  17
HETATM   17  C14 UNL     1      21.807   3.550  47.641  1.00  0.00     0.141 C 
HETATM   18  C15 UNL     1      22.749   4.587  48.185  1.00  0.00     0.034 C 
HETATM   19 CL1  UNL     1      22.025   3.437  45.892  1.00  0.00    -0.118 Cl
ENDBRANCH  15  17
ENDBRANCH  14  15
ENDBRANCH  13  14
ENDBRANCH  11  13
ENDBRANCH   5  11
BRANCH   3  20
HETATM   20  O2  UNL     1      23.777  -0.075  52.977  1.00  0.00    -0.343 OA
BRANCH  20  21
HETATM   21  C5  UNL     1      22.851  -0.950  53.425  1.00  0.00     0.154 C 
HETATM   22  C6  UNL     1      21.464  -0.580  52.983  1.00  0.00     0.061 C 
HETATM   23  C7  UNL     1      20.612  -1.198  54.071  1.00  0.00     0.170 C 
HETATM   24  O3  UNL     1      21.491  -1.868  54.944  1.00  0.00    -0.389 OA
HETATM   25  C8  UNL     1      22.658  -1.053  54.929  1.00  0.00     0.200 C 
ENDBRANCH  20  21
ENDBRANCH   3  20
BRANCH   1  26
HETATM   26  O1  UNL     1      28.404  -0.879  54.143  1.00  0.00    -0.356 OA
HETATM   27  C1  UNL     1      29.764  -0.993  53.890  1.00  0.00     0.210 C 
ENDBRANCH   1  26
TORSDOF 8
ENDMDL
MODEL 5
REMARK VINA RESULT:      -7.0      2.211      4.334
REMARK  8 active torsions:
REMARK  status: ('A' for Active; 'I' for Inactive)
REMARK    1  A    between atoms: O1_2  and  C2_3 
REMARK    2  A    between atoms: C4_5  and  O2_6 
REMARK    3  A    between atoms: O2_6  and  C5_7 
REMARK    4  A    between atoms: C10_13  and  N1_14 
REMARK    5  A    between atoms: N1_14  and  C11_15 
REMARK    6  A    between atoms: C11_15  and  C12_16 
REMARK    7  A    between atoms: C12_16  and  C13_17 
REMARK    8  A    between atoms: C13_17  and  C14_19 
ROOT
HETATM    1  C2  UNL     1      23.137  -0.096  53.699  1.00  0.00     0.073 A 
HETATM    2  C3  UNL     1      24.490   0.087  53.503  1.00  0.00     0.074 A 
HETATM    3  C4  UNL     1      25.106   1.077  52.780  1.00  0.00     0.088 A 
HETATM    4  C9  UNL     1      24.205   1.975  52.196  1.00  0.00     0.072 A 
HETATM    5  C10 UNL     1      24.594   3.061  51.442  1.00  0.00     0.144 A 
HETATM    6  N2  UNL     1      23.728   3.935  50.895  1.00  0.00    -0.223 NA
HETATM    7  C16 UNL     1      22.406   3.769  51.071  1.00  0.00     0.236 A 
HETATM    8  N3  UNL     1      21.954   2.733  51.796  1.00  0.00    -0.241 NA
HETATM    9  C17 UNL     1      22.823   1.868  52.339  1.00  0.00     0.077 A 
HETATM   10  C18 UNL     1      22.337   0.828  53.090  1.00  0.00     0.069 A 
ENDROOT
BRANCH   5  11
HETATM   11  N1  UNL     1      25.968   3.321  51.191  1.00  0.00    -0.349 N 
HETATM   12  H12 UNL     1      26.563   3.535  52.030  1.00  0.00     0.167 HD
BRANCH  11  13
HETATM   13  C11 UNL     1      26.554   3.304  49.906  1.00  0.00     0.105 C 
BRANCH  13  14
HETATM   14  C12 UNL     1      26.693   4.412  49.169  1.00  0.00     0.030 C 
BRANCH  14  15
HETATM   15  C13 UNL     1      26.546   5.705  48.893  1.00  0.00     0.124 C 
HETATM   16  F1  UNL     1      25.414   6.237  49.312  1.00  0.00    -0.208 F 
BRANCH  15  17
HETATM   17  C14 UNL     1      27.648   6.357  48.188  1.00  0.00     0.141 C 
HETATM   18  C15 UNL     1      27.925   7.758  48.656  1.00  0.00     0.034 C 
HETATM   19 CL1  UNL     1      29.146   5.424  48.252  1.00  0.00    -0.118 Cl
ENDBRANCH  15  17
ENDBRANCH  14  15
ENDBRANCH  13  14
ENDBRANCH  11  13
ENDBRANCH   5  11
BRANCH   3  20
HETATM   20  O2  UNL     1      26.366   1.390  52.501  1.00  0.00    -0.343 OA
BRANCH  20  21
HETATM   21  C5  UNL     1      27.622   0.907  52.614  1.00  0.00     0.154 C 
HETATM   22  C6  UNL     1      27.637  -0.558  52.947  1.00  0.00     0.061 C 
HETATM   23  C7  UNL     1      28.963  -0.704  53.664  1.00  0.00     0.170 C 
HETATM   24  O3  UNL     1      29.580   0.562  53.636  1.00  0.00    -0.389 OA
HETATM   25  C8  UNL     1      28.486   1.467  53.732  1.00  0.00     0.200 C 
ENDBRANCH  20  21
ENDBRANCH   3  20
BRANCH   1  26
HETATM   26  O1  UNL     1      22.759  -1.169  54.466  1.00  0.00    -0.356 OA
HETATM   27  C1  UNL     1      21.494  -1.737  54.538  1.00  0.00     0.210 C 
ENDBRANCH   1  26
TORSDOF 8
ENDMDL
MODEL 6
REMARK VINA RESULT:      -6.9      4.353      6.565
REMARK  8 active torsions:
REMARK  status: ('A' for Active; 'I' for Inactive)
REMARK    1  A    between atoms: O1_2  and  C2_3 
REMARK    2  A    between atoms: C4_5  and  O2_6 
REMARK    3  A    between atoms: O2_6  and  C5_7 
REMARK    4  A    between atoms: C10_13  and  N1_14 
REMARK    5  A    between atoms: N1_14  and  C11_15 
REMARK    6  A    between atoms: C11_15  and  C12_16 
REMARK    7  A    between atoms: C12_16  and  C13_17 
REMARK    8  A    between atoms: C13_17  and  C14_19 
ROOT
HETATM    1  C2  UNL     1      27.036   0.656  53.277  1.00  0.00     0.073 A 
HETATM    2  C3  UNL     1      26.088   1.111  52.385  1.00  0.00     0.074 A 
HETATM    3  C4  UNL     1      24.738   0.867  52.399  1.00  0.00     0.088 A 
HETATM    4  C9  UNL     1      24.337   0.054  53.466  1.00  0.00     0.072 A 
HETATM    5  C10 UNL     1      23.027  -0.308  53.695  1.00  0.00     0.144 A 
HETATM    6  N2  UNL     1      22.638  -1.076  54.731  1.00  0.00    -0.223 NA
HETATM    7  C16 UNL     1      23.549  -1.532  55.607  1.00  0.00     0.236 A 
HETATM    8  N3  UNL     1      24.845  -1.218  55.447  1.00  0.00    -0.241 NA
HETATM    9  C17 UNL     1      25.224  -0.451  54.414  1.00  0.00     0.077 A 
HETATM   10  C18 UNL     1      26.551  -0.130  54.283  1.00  0.00     0.069 A 
ENDROOT
BRANCH   5  11
HETATM   11  N1  UNL     1      21.988   0.116  52.824  1.00  0.00    -0.349 N 
HETATM   12  H12 UNL     1      22.239   0.203  51.807  1.00  0.00     0.167 HD
BRANCH  11  13
HETATM   13  C11 UNL     1      20.674   0.416  53.245  1.00  0.00     0.105 C 
BRANCH  13  14
HETATM   14  C12 UNL     1      19.625  -0.341  52.907  1.00  0.00     0.030 C 
BRANCH  14  15
HETATM   15  C13 UNL     1      18.461  -0.597  52.314  1.00  0.00     0.124 C 
HETATM   16  F1  UNL     1      18.426  -0.333  51.022  1.00  0.00    -0.208 F 
BRANCH  15  17
HETATM   17  C14 UNL     1      17.400  -1.143  53.156  1.00  0.00     0.141 C 
HETATM   18  C15 UNL     1      16.053  -1.185  52.489  1.00  0.00     0.034 C 
HETATM   19 CL1  UNL     1      17.782  -2.751  53.780  1.00  0.00    -0.118 Cl
ENDBRANCH  15  17
ENDBRANCH  14  15
ENDBRANCH  13  14
ENDBRANCH  11  13
ENDBRANCH   5  11
BRANCH   3  20
HETATM   20  O2  UNL     1      23.713   1.222  51.635  1.00  0.00    -0.343 OA
BRANCH  20  21
HETATM   21  C5  UNL     1      23.353   2.141  50.713  1.00  0.00     0.154 C 
HETATM   22  C6  UNL     1      22.715   3.349  51.337  1.00  0.00     0.061 C 
HETATM   23  C7  UNL     1      21.835   3.854  50.213  1.00  0.00     0.170 C 
HETATM   24  O3  UNL     1      22.060   3.010  49.110  1.00  0.00    -0.389 OA
HETATM   25  C8  UNL     1      22.288   1.738  49.706  1.00  0.00     0.200 C 
ENDBRANCH  20  21
ENDBRANCH   3  20
BRANCH   1  26
HETATM   26  O1  UNL     1      28.335   1.036  53.053  1.00  0.00    -0.356 OA
HETATM   27  C1  UNL     1      29.471   0.523  53.664  1.00  0.00     0.210 C 
ENDBRANCH   1  26
TORSDOF 8
ENDMDL
MODEL 7
REMARK VINA RESULT:      -6.9      3.111      4.213
REMARK  8 active torsions:
REMARK  status: ('A' for Active; 'I' for Inactive)
REMARK    1  A    between atoms: O1_2  and  C2_3 
REMARK    2  A    between atoms: C4_5  and  O2_6 
REMARK    3  A    between atoms: O2_6  and  C5_7 
REMARK    4  A    between atoms: C10_13  and  N1_14 
REMARK    5  A    between atoms: N1_14  and  C11_15 
REMARK    6  A    between atoms: C11_15  and  C12_16 
REMARK    7  A    between atoms: C12_16  and  C13_17 
REMARK    8  A    between atoms: C13_17  and  C14_19 
ROOT
HETATM    1  C2  UNL     1      20.156  -0.607  53.435  1.00  0.00     0.073 A 
HETATM    2  C3  UNL     1      20.645   0.189  52.420  1.00  0.00     0.074 A 
HETATM    3  C4  UNL     1      21.945   0.572  52.207  1.00  0.00     0.088 A 
HETATM    4  C9  UNL     1      22.832   0.066  53.164  1.00  0.00     0.072 A 
HETATM    5  C10 UNL     1      24.190   0.301  53.142  1.00  0.00     0.144 A 
HETATM    6  N2  UNL     1      25.046  -0.200  54.053  1.00  0.00    -0.223 NA
HETATM    7  C16 UNL     1      24.587  -0.973  55.052  1.00  0.00     0.236 A 
HETATM    8  N3  UNL     1      23.274  -1.245  55.135  1.00  0.00    -0.241 NA
HETATM    9  C17 UNL     1      22.428  -0.744  54.223  1.00  0.00     0.077 A 
HETATM   10  C18 UNL     1      21.095  -1.052  54.320  1.00  0.00     0.069 A 
ENDROOT
BRANCH   5  11
HETATM   11  N1  UNL     1      24.775   1.111  52.133  1.00  0.00    -0.349 N 
HETATM   12  H12 UNL     1      24.169   1.873  51.737  1.00  0.00     0.167 HD
BRANCH  11  13
HETATM   13  C11 UNL     1      26.093   0.948  51.652  1.00  0.00     0.105 C 
BRANCH  13  14
HETATM   14  C12 UNL     1      27.148   1.504  52.257  1.00  0.00     0.030 C 
BRANCH  14  15
HETATM   15  C13 UNL     1      28.178   1.538  53.099  1.00  0.00     0.124 C 
HETATM   16  F1  UNL     1      28.664   2.742  53.333  1.00  0.00    -0.208 F 
BRANCH  15  17
HETATM   17  C14 UNL     1      28.616   0.260  53.655  1.00  0.00     0.141 C 
HETATM   18  C15 UNL     1      30.075  -0.031  53.440  1.00  0.00     0.034 C 
HETATM   19 CL1  UNL     1      28.247   0.102  55.375  1.00  0.00    -0.118 Cl
ENDBRANCH  15  17
ENDBRANCH  14  15
ENDBRANCH  13  14
ENDBRANCH  11  13
ENDBRANCH   5  11
BRANCH   3  20
HETATM   20  O2  UNL     1      22.568   1.314  51.299  1.00  0.00    -0.343 OA
BRANCH  20  21
HETATM   21  C5  UNL     1      22.320   2.099  50.229  1.00  0.00     0.154 C 
HETATM   22  C6  UNL     1      21.866   1.304  49.038  1.00  0.00     0.061 C 
HETATM   23  C7  UNL     1      22.302   2.186  47.887  1.00  0.00     0.170 C 
HETATM   24  O3  UNL     1      22.867   3.344  48.454  1.00  0.00    -0.389 OA
HETATM   25  C8  UNL     1      23.494   2.862  49.637  1.00  0.00     0.200 C 
ENDBRANCH  20  21
ENDBRANCH   3  20
BRANCH   1  26
HETATM   26  O1  UNL     1      18.806  -0.851  53.438  1.00  0.00    -0.356 OA
HETATM   27  C1  UNL     1      17.939  -0.754  52.359  1.00  0.00     0.210 C 
ENDBRANCH   1  26
TORSDOF 8
ENDMDL
MODEL 8
REMARK VINA RESULT:      -6.7      3.468      5.198
REMARK  8 active torsions:
REMARK  status: ('A' for Active; 'I' for Inactive)
REMARK    1  A    between atoms: O1_2  and  C2_3 
REMARK    2  A    between atoms: C4_5  and  O2_6 
REMARK    3  A    between atoms: O2_6  and  C5_7 
REMARK    4  A    between atoms: C10_13  and  N1_14 
REMARK    5  A    between atoms: N1_14  and  C11_15 
REMARK    6  A    between atoms: C11_15  and  C12_16 
REMARK    7  A    between atoms: C12_16  and  C13_17 
REMARK    8  A    between atoms: C13_17  and  C14_19 
ROOT
HETATM    1  C2  UNL     1      27.465   0.487  53.372  1.00  0.00     0.073 A 
HETATM    2  C3  UNL     1      26.634   1.062  52.434  1.00  0.00     0.074 A 
HETATM    3  C4  UNL     1      25.268   0.965  52.352  1.00  0.00     0.088 A 
HETATM    4  C9  UNL     1      24.710   0.176  53.365  1.00  0.00     0.072 A 
HETATM    5  C10 UNL     1      23.357  -0.047  53.497  1.00  0.00     0.144 A 
HETATM    6  N2  UNL     1      22.818  -0.791  54.481  1.00  0.00    -0.223 NA
HETATM    7  C16 UNL     1      23.613  -1.364  55.402  1.00  0.00     0.236 A 
HETATM    8  N3  UNL     1      24.943  -1.188  55.336  1.00  0.00    -0.241 NA
HETATM    9  C17 UNL     1      25.472  -0.443  54.353  1.00  0.00     0.077 A 
HETATM   10  C18 UNL     1      26.831  -0.264  54.320  1.00  0.00     0.069 A 
ENDROOT
BRANCH   5  11
HETATM   11  N1  UNL     1      22.431   0.507  52.572  1.00  0.00    -0.349 N 
HETATM   12  H12 UNL     1      22.748   1.363  52.052  1.00  0.00     0.167 HD
BRANCH  11  13
HETATM   13  C11 UNL     1      21.146  -0.023  52.325  1.00  0.00     0.105 C 
BRANCH  13  14
HETATM   14  C12 UNL     1      20.254   0.599  51.547  1.00  0.00     0.030 C 
BRANCH  14  15
HETATM   15  C13 UNL     1      19.531   0.780  50.445  1.00  0.00     0.124 C 
HETATM   16  F1  UNL     1      18.376   0.143  50.427  1.00  0.00    -0.208 F 
BRANCH  15  17
HETATM   17  C14 UNL     1      20.095   1.661  49.424  1.00  0.00     0.141 C 
HETATM   18  C15 UNL     1      20.381   3.053  49.912  1.00  0.00     0.034 C 
HETATM   19 CL1  UNL     1      21.557   1.000  48.686  1.00  0.00    -0.118 Cl
ENDBRANCH  15  17
ENDBRANCH  14  15
ENDBRANCH  13  14
ENDBRANCH  11  13
ENDBRANCH   5  11
BRANCH   3  20
HETATM   20  O2  UNL     1      24.341   1.447  51.533  1.00  0.00    -0.343 OA
BRANCH  20  21
HETATM   21  C5  UNL     1      23.946   2.598  50.948  1.00  0.00     0.154 C 
HETATM   22  C6  UNL     1      24.947   3.095  49.946  1.00  0.00     0.061 C 
HETATM   23  C7  UNL     1      24.684   4.586  49.952  1.00  0.00     0.170 C 
HETATM   24  O3  UNL     1      23.607   4.805  50.833  1.00  0.00    -0.389 OA
HETATM   25  C8  UNL     1      23.799   3.819  51.842  1.00  0.00     0.200 C 
ENDBRANCH  20  21
ENDBRANCH   3  20
BRANCH   1  26
HETATM   26  O1  UNL     1      28.809   0.729  53.244  1.00  0.00    -0.356 OA
HETATM   27  C1  UNL     1      29.846  -0.135  53.568  1.00  0.00     0.210 C 
ENDBRANCH   1  26
TORSDOF 8
ENDMDL
MODEL 9
REMARK VINA RESULT:      -6.7      3.843      7.075
REMARK  8 active torsions:
REMARK  status: ('A' for Active; 'I' for Inactive)
REMARK    1  A    between atoms: O1_2  and  C2_3 
REMARK    2  A    between atoms: C4_5  and  O2_6 
REMARK    3  A    between atoms: O2_6  and  C5_7 
REMARK    4  A    between atoms: C10_13  and  N1_14 
REMARK    5  A    between atoms: N1_14  and  C11_15 
REMARK    6  A    between atoms: C11_15  and  C12_16 
REMARK    7  A    between atoms: C12_16  and  C13_17 
REMARK    8  A    between atoms: C13_17  and  C14_19 
ROOT
HETATM    1  C2  UNL     1      26.385   3.718  49.830  1.00  0.00     0.073 A 
HETATM    2  C3  UNL     1      26.431   2.593  50.625  1.00  0.00     0.074 A 
HETATM    3  C4  UNL     1      25.460   2.127  51.475  1.00  0.00     0.088 A 
HETATM    4  C9  UNL     1      24.314   2.930  51.495  1.00  0.00     0.072 A 
HETATM    5  C10 UNL     1      23.201   2.649  52.258  1.00  0.00     0.144 A 
HETATM    6  N2  UNL     1      22.092   3.412  52.265  1.00  0.00    -0.223 NA
HETATM    7  C16 UNL     1      22.032   4.516  51.500  1.00  0.00     0.236 A 
HETATM    8  N3  UNL     1      23.079   4.851  50.729  1.00  0.00    -0.241 NA
HETATM    9  C17 UNL     1      24.180   4.084  50.727  1.00  0.00     0.077 A 
HETATM   10  C18 UNL     1      25.228   4.438  49.917  1.00  0.00     0.069 A 
ENDROOT
BRANCH   5  11
HETATM   11  N1  UNL     1      23.166   1.510  53.107  1.00  0.00    -0.349 N 
HETATM   12  H12 UNL     1      24.060   1.272  53.605  1.00  0.00     0.167 HD
BRANCH  11  13
HETATM   13  C11 UNL     1      22.021   0.709  53.309  1.00  0.00     0.105 C 
BRANCH  13  14
HETATM   14  C12 UNL     1      21.194   0.379  52.311  1.00  0.00     0.030 C 
BRANCH  14  15
HETATM   15  C13 UNL     1      20.013   0.269  51.707  1.00  0.00     0.124 C 
HETATM   16  F1  UNL     1      19.205  -0.635  52.228  1.00  0.00    -0.208 F 
BRANCH  15  17
HETATM   17  C14 UNL     1      19.766   1.162  50.577  1.00  0.00     0.141 C 
HETATM   18  C15 UNL     1      20.856   1.149  49.542  1.00  0.00     0.034 C 
HETATM   19 CL1  UNL     1      18.219   0.849  49.785  1.00  0.00    -0.118 Cl
ENDBRANCH  15  17
ENDBRANCH  14  15
ENDBRANCH  13  14
ENDBRANCH  11  13
ENDBRANCH   5  11
BRANCH   3  20
HETATM   20  O2  UNL     1      25.347   1.085  52.290  1.00  0.00    -0.343 OA
BRANCH  20  21
HETATM   21  C5  UNL     1      26.068   0.343  53.158  1.00  0.00     0.154 C 
HETATM   22  C6  UNL     1      26.837   1.194  54.127  1.00  0.00     0.061 C 
HETATM   23  C7  UNL     1      27.999   0.292  54.484  1.00  0.00     0.170 C 
HETATM   24  O3  UNL     1      27.795  -0.923  53.801  1.00  0.00    -0.389 OA
HETATM   25  C8  UNL     1      27.180  -0.520  52.583  1.00  0.00     0.200 C 
ENDBRANCH  20  21
ENDBRANCH   3  20
BRANCH   1  26
HETATM   26  O1  UNL     1      27.489   3.980  49.059  1.00  0.00    -0.356 OA
HETATM   27  C1  UNL     1      27.857   5.206  48.520  1.00  0.00     0.210 C 
ENDBRANCH   1  26
TORSDOF 8
ENDMDL
