MODEL 1
REMARK VINA RESULT:      -8.4      0.000      0.000
REMARK  3 active torsions:
REMARK  status: ('A' for Active; 'I' for Inactive)
REMARK    1  A    between atoms: C2_2  and  N1_3 
REMARK    2  A    between atoms: C7_11  and  N3_12 
REMARK    3  A    between atoms: N3_12  and  C8_13 
ROOT
HETATM    1  N1  UNL     1      21.172   3.730  47.547  1.00  0.00     0.091 N 
HETATM    2  C3  UNL     1      21.727   4.781  48.269  1.00  0.00     0.298 C 
HETATM    3  C4  UNL     1      23.219   4.780  48.413  1.00  0.00     0.200 C 
HETATM    4  O1  UNL     1      23.671   3.576  48.961  1.00  0.00    -0.365 OA
HETATM    5  C5  UNL     1      24.935   3.766  49.586  1.00  0.00     0.346 C 
HETATM    6  O2  UNL     1      24.562   4.752  50.609  1.00  0.00    -0.312 OA
HETATM    7  C6  UNL     1      23.856   4.136  51.705  1.00  0.00     0.144 C 
HETATM    8  N2  UNL     1      24.583   3.086  52.058  1.00  0.00    -0.211 NA
HETATM    9  C7  UNL     1      24.117   1.705  52.223  1.00  0.00     0.130 C 
HETATM   10  C14 UNL     1      23.044   0.969  51.802  1.00  0.00     0.052 C 
HETATM   11  C15 UNL     1      21.881   1.578  51.087  1.00  0.00     0.028 C 
HETATM   12  C16 UNL     1      21.188   2.741  51.219  1.00  0.00     0.007 C 
HETATM   13  C17 UNL     1      21.346   3.865  52.142  1.00  0.00     0.065 C 
HETATM   14  C18 UNL     1      22.565   4.620  52.297  1.00  0.00     0.092 C 
HETATM   15  N4  UNL     1      20.172   2.559  50.171  1.00  0.00    -0.387 N 
HETATM   16  C19 UNL     1      19.792   1.172  49.982  1.00  0.00     0.149 C 
HETATM   17  C20 UNL     1      19.471   3.470  49.295  1.00  0.00     0.152 C 
HETATM   18  C21 UNL     1      19.825   3.410  47.847  1.00  0.00     0.292 C 
ENDROOT
BRANCH   9  19
HETATM   19  N3  UNL     1      24.978   0.891  52.993  1.00  0.00    -0.341 N 
HETATM   20  H12 UNL     1      24.414   0.500  53.798  1.00  0.00     0.167 HD
BRANCH  19  21
HETATM   21  C8  UNL     1      26.270   0.375  53.152  1.00  0.00     0.035 A 
HETATM   22  C9  UNL     1      26.683  -0.897  52.813  1.00  0.00     0.032 A 
HETATM   23  C10 UNL     1      27.998  -1.250  53.039  1.00  0.00     0.046 A 
HETATM   24  C11 UNL     1      28.845  -0.316  53.594  1.00  0.00     0.138 A 
HETATM   25  F1  UNL     1      30.142  -0.667  53.817  1.00  0.00    -0.204 F 
HETATM   26  C12 UNL     1      28.477   0.963  53.949  1.00  0.00     0.074 A 
HETATM   27 CL1  UNL     1      29.599   2.117  54.654  1.00  0.00    -0.081 Cl
HETATM   28  C13 UNL     1      27.143   1.303  53.713  1.00  0.00     0.056 A 
ENDBRANCH  19  21
ENDBRANCH   9  19
BRANCH   1  29
HETATM   29  C2  UNL     1      21.445   3.752  46.164  1.00  0.00     0.268 C 
HETATM   30  C1  UNL     1      20.242   3.942  45.264  1.00  0.00     0.037 C 
ENDBRANCH   1  29
TORSDOF 3
ENDMDL
MODEL 2
REMARK VINA RESULT:      -8.4      2.089      3.553
REMARK  3 active torsions:
REMARK  status: ('A' for Active; 'I' for Inactive)
REMARK    1  A    between atoms: C2_2  and  N1_3 
REMARK    2  A    between atoms: C7_11  and  N3_12 
REMARK    3  A    between atoms: N3_12  and  C8_13 
ROOT
HETATM    1  N1  UNL     1      21.656   6.665  49.803  1.00  0.00     0.091 N 
HETATM    2  C3  UNL     1      20.796   5.590  49.603  1.00  0.00     0.298 C 
HETATM    3  C4  UNL     1      20.380   4.829  50.826  1.00  0.00     0.200 C 
HETATM    4  O1  UNL     1      21.494   4.380  51.542  1.00  0.00    -0.365 OA
HETATM    5  C5  UNL     1      21.144   3.254  52.337  1.00  0.00     0.346 C 
HETATM    6  O2  UNL     1      20.733   2.319  51.280  1.00  0.00    -0.312 OA
HETATM    7  C6  UNL     1      21.873   1.766  50.591  1.00  0.00     0.144 C 
HETATM    8  N2  UNL     1      22.698   1.344  51.538  1.00  0.00    -0.211 NA
HETATM    9  C7  UNL     1      24.124   1.659  51.670  1.00  0.00     0.130 C 
HETATM   10  C14 UNL     1      24.969   2.627  51.202  1.00  0.00     0.052 C 
HETATM   11  C15 UNL     1      24.548   3.639  50.185  1.00  0.00     0.028 C 
HETATM   12  C16 UNL     1      23.777   3.596  49.065  1.00  0.00     0.007 C 
HETATM   13  C17 UNL     1      23.045   2.499  48.433  1.00  0.00     0.065 C 
HETATM   14  C18 UNL     1      22.048   1.699  49.102  1.00  0.00     0.092 C 
HETATM   15  N4  UNL     1      23.900   4.990  48.611  1.00  0.00    -0.387 N 
HETATM   16  C19 UNL     1      25.184   5.581  48.932  1.00  0.00     0.149 C 
HETATM   17  C20 UNL     1      23.011   5.890  47.911  1.00  0.00     0.152 C 
HETATM   18  C21 UNL     1      22.462   7.032  48.698  1.00  0.00     0.292 C 
ENDROOT
BRANCH   9  19
HETATM   19  N3  UNL     1      24.839   0.766  52.499  1.00  0.00    -0.341 N 
HETATM   20  H12 UNL     1      24.173   0.416  53.243  1.00  0.00     0.167 HD
BRANCH  19  21
HETATM   21  C8  UNL     1      26.064   0.139  52.765  1.00  0.00     0.035 A 
HETATM   22  C9  UNL     1      26.389  -1.166  52.459  1.00  0.00     0.032 A 
HETATM   23  C10 UNL     1      27.644  -1.633  52.793  1.00  0.00     0.046 A 
HETATM   24  C11 UNL     1      28.522  -0.774  53.418  1.00  0.00     0.138 A 
HETATM   25  F1  UNL     1      29.760  -1.236  53.747  1.00  0.00    -0.204 F 
HETATM   26  C12 UNL     1      28.240   0.535  53.743  1.00  0.00     0.074 A 
HETATM   27 CL1  UNL     1      29.397   1.589  54.540  1.00  0.00    -0.081 Cl
HETATM   28  C13 UNL     1      26.965   0.990  53.397  1.00  0.00     0.056 A 
ENDBRANCH  19  21
ENDBRANCH   9  19
BRANCH   1  29
HETATM   29  C2  UNL     1      21.081   7.768  50.465  1.00  0.00     0.268 C 
HETATM   30  C1  UNL     1      20.517   8.848  49.566  1.00  0.00     0.037 C 
ENDBRANCH   1  29
TORSDOF 3
ENDMDL
MODEL 3
REMARK VINA RESULT:      -8.2      2.241      3.724
REMARK  3 active torsions:
REMARK  status: ('A' for Active; 'I' for Inactive)
REMARK    1  A    between atoms: C2_2  and  N1_3 
REMARK    2  A    between atoms: C7_11  and  N3_12 
REMARK    3  A    between atoms: N3_12  and  C8_13 
ROOT
HETATM    1  N1  UNL     1      20.302   6.360  49.021  1.00  0.00     0.091 N 
HETATM    2  C3  UNL     1      19.876   5.050  49.212  1.00  0.00     0.298 C 
HETATM    3  C4  UNL     1      19.845   4.556  50.627  1.00  0.00     0.200 C 
HETATM    4  O1  UNL     1      21.091   4.713  51.242  1.00  0.00    -0.365 OA
HETATM    5  C5  UNL     1      21.223   3.795  52.320  1.00  0.00     0.346 C 
HETATM    6  O2  UNL     1      21.109   2.528  51.585  1.00  0.00    -0.312 OA
HETATM    7  C6  UNL     1      22.323   2.219  50.871  1.00  0.00     0.144 C 
HETATM    8  N2  UNL     1      23.305   2.367  51.748  1.00  0.00    -0.211 NA
HETATM    9  C7  UNL     1      24.528   3.160  51.578  1.00  0.00     0.130 C 
HETATM   10  C14 UNL     1      24.933   4.187  50.772  1.00  0.00     0.052 C 
HETATM   11  C15 UNL     1      24.109   4.687  49.629  1.00  0.00     0.028 C 
HETATM   12  C16 UNL     1      23.334   4.089  48.685  1.00  0.00     0.007 C 
HETATM   13  C17 UNL     1      23.006   2.684  48.446  1.00  0.00     0.065 C 
HETATM   14  C18 UNL     1      22.411   1.812  49.429  1.00  0.00     0.092 C 
HETATM   15  N4  UNL     1      22.914   5.267  47.909  1.00  0.00    -0.387 N 
HETATM   16  C19 UNL     1      23.917   6.314  47.878  1.00  0.00     0.149 C 
HETATM   17  C20 UNL     1      21.717   5.596  47.169  1.00  0.00     0.152 C 
HETATM   18  C21 UNL     1      20.846   6.660  47.748  1.00  0.00     0.292 C 
ENDROOT
BRANCH   9  19
HETATM   19  N3  UNL     1      25.570   2.814  52.466  1.00  0.00    -0.341 N 
HETATM   20  H12 UNL     1      25.590   3.542  53.234  1.00  0.00     0.167 HD
BRANCH  19  21
HETATM   21  C8  UNL     1      26.600   1.915  52.772  1.00  0.00     0.035 A 
HETATM   22  C9  UNL     1      27.820   2.238  53.328  1.00  0.00     0.032 A 
HETATM   23  C10 UNL     1      28.730   1.228  53.564  1.00  0.00     0.046 A 
HETATM   24  C11 UNL     1      28.381  -0.064  53.234  1.00  0.00     0.138 A 
HETATM   25  F1  UNL     1      29.281  -1.059  53.468  1.00  0.00    -0.204 F 
HETATM   26  C12 UNL     1      27.176  -0.432  52.677  1.00  0.00     0.074 A 
HETATM   27 CL1  UNL     1      26.781  -2.097  52.275  1.00  0.00    -0.081 Cl
HETATM   28  C13 UNL     1      26.268   0.604  52.445  1.00  0.00     0.056 A 
ENDBRANCH  19  21
ENDBRANCH   9  19
BRANCH   1  29
HETATM   29  C2  UNL     1      19.413   7.347  49.494  1.00  0.00     0.268 C 
HETATM   30  C1  UNL     1      19.953   8.762  49.505  1.00  0.00     0.037 C 
ENDBRANCH   1  29
TORSDOF 3
ENDMDL
MODEL 4
REMARK VINA RESULT:      -8.2      1.590      1.914
REMARK  3 active torsions:
REMARK  status: ('A' for Active; 'I' for Inactive)
REMARK    1  A    between atoms: C2_2  and  N1_3 
REMARK    2  A    between atoms: C7_11  and  N3_12 
REMARK    3  A    between atoms: N3_12  and  C8_13 
ROOT
HETATM    1  N1  UNL     1      21.869   4.896  47.385  1.00  0.00     0.091 N 
HETATM    2  C3  UNL     1      21.578   5.687  48.491  1.00  0.00     0.298 C 
HETATM    3  C4  UNL     1      22.748   6.267  49.227  1.00  0.00     0.200 C 
HETATM    4  O1  UNL     1      23.641   5.266  49.620  1.00  0.00    -0.365 OA
HETATM    5  C5  UNL     1      24.412   5.706  50.730  1.00  0.00     0.346 C 
HETATM    6  O2  UNL     1      23.338   5.925  51.709  1.00  0.00    -0.312 OA
HETATM    7  C6  UNL     1      22.851   4.679  52.248  1.00  0.00     0.144 C 
HETATM    8  N2  UNL     1      23.928   3.999  52.616  1.00  0.00    -0.211 NA
HETATM    9  C7  UNL     1      24.266   2.619  52.254  1.00  0.00     0.130 C 
HETATM   10  C14 UNL     1      23.899   1.737  51.276  1.00  0.00     0.052 C 
HETATM   11  C15 UNL     1      22.795   2.022  50.309  1.00  0.00     0.028 C 
HETATM   12  C16 UNL     1      21.572   2.610  50.409  1.00  0.00     0.007 C 
HETATM   13  C17 UNL     1      20.874   3.208  51.547  1.00  0.00     0.065 C 
HETATM   14  C18 UNL     1      21.410   4.276  52.355  1.00  0.00     0.092 C 
HETATM   15  N4  UNL     1      21.094   2.454  49.027  1.00  0.00    -0.387 N 
HETATM   16  C19 UNL     1      21.587   1.250  48.387  1.00  0.00     0.149 C 
HETATM   17  C20 UNL     1      20.235   3.247  48.176  1.00  0.00     0.152 C 
HETATM   18  C21 UNL     1      20.888   3.939  47.028  1.00  0.00     0.292 C 
ENDROOT
BRANCH   9  19
HETATM   19  N3  UNL     1      25.225   2.017  53.099  1.00  0.00    -0.341 N 
HETATM   20  H12 UNL     1      24.837   2.029  54.083  1.00  0.00     0.167 HD
BRANCH  19  21
HETATM   21  C8  UNL     1      26.483   1.407  53.197  1.00  0.00     0.035 A 
HETATM   22  C9  UNL     1      27.672   2.044  53.486  1.00  0.00     0.032 A 
HETATM   23  C10 UNL     1      28.829   1.294  53.542  1.00  0.00     0.046 A 
HETATM   24  C11 UNL     1      28.748  -0.062  53.309  1.00  0.00     0.138 A 
HETATM   25  F1  UNL     1      29.891  -0.800  53.364  1.00  0.00    -0.204 F 
HETATM   26  C12 UNL     1      27.584  -0.738  53.016  1.00  0.00     0.074 A 
HETATM   27 CL1  UNL     1      27.536  -2.471  52.726  1.00  0.00    -0.081 Cl
HETATM   28  C13 UNL     1      26.423   0.037  52.963  1.00  0.00     0.056 A 
ENDBRANCH  19  21
ENDBRANCH   9  19
BRANCH   1  29
HETATM   29  C2  UNL     1      22.397   5.593  46.280  1.00  0.00     0.268 C 
HETATM   30  C1  UNL     1      21.761   5.276  44.943  1.00  0.00     0.037 C 
ENDBRANCH   1  29
TORSDOF 3
ENDMDL
MODEL 5
REMARK VINA RESULT:      -7.9      1.543      2.007
REMARK  3 active torsions:
REMARK  status: ('A' for Active; 'I' for Inactive)
REMARK    1  A    between atoms: C2_2  and  N1_3 
REMARK    2  A    between atoms: C7_11  and  N3_12 
REMARK    3  A    between atoms: N3_12  and  C8_13 
ROOT
HETATM    1  N1  UNL     1      18.999   3.368  49.181  1.00  0.00     0.091 N 
HETATM    2  C3  UNL     1      19.680   4.579  49.139  1.00  0.00     0.298 C 
HETATM    3  C4  UNL     1      20.901   4.632  48.271  1.00  0.00     0.200 C 
HETATM    4  O1  UNL     1      21.807   3.624  48.617  1.00  0.00    -0.365 OA
HETATM    5  C5  UNL     1      23.121   3.988  48.211  1.00  0.00     0.346 C 
HETATM    6  O2  UNL     1      23.299   5.209  49.008  1.00  0.00    -0.312 OA
HETATM    7  C6  UNL     1      23.563   4.904  50.393  1.00  0.00     0.144 C 
HETATM    8  N2  UNL     1      24.527   3.995  50.385  1.00  0.00    -0.211 NA
HETATM    9  C7  UNL     1      24.529   2.704  51.083  1.00  0.00     0.130 C 
HETATM   10  C14 UNL     1      23.587   1.872  51.621  1.00  0.00     0.052 C 
HETATM   11  C15 UNL     1      22.146   2.255  51.735  1.00  0.00     0.028 C 
HETATM   12  C16 UNL     1      21.491   3.404  52.053  1.00  0.00     0.007 C 
HETATM   13  C17 UNL     1      21.984   4.736  52.403  1.00  0.00     0.065 C 
HETATM   14  C18 UNL     1      22.867   5.517  51.572  1.00  0.00     0.092 C 
HETATM   15  N4  UNL     1      20.098   2.937  51.985  1.00  0.00    -0.387 N 
HETATM   16  C19 UNL     1      19.945   1.547  52.369  1.00  0.00     0.149 C 
HETATM   17  C20 UNL     1      18.852   3.572  51.621  1.00  0.00     0.152 C 
HETATM   18  C21 UNL     1      18.225   3.128  50.343  1.00  0.00     0.292 C 
ENDROOT
BRANCH   9  19
HETATM   19  N3  UNL     1      25.812   2.137  51.246  1.00  0.00    -0.341 N 
HETATM   20  H12 UNL     1      26.424   2.496  50.461  1.00  0.00     0.167 HD
BRANCH  19  21
HETATM   21  C8  UNL     1      26.632   1.292  52.006  1.00  0.00     0.035 A 
HETATM   22  C9  UNL     1      26.571  -0.085  52.036  1.00  0.00     0.032 A 
HETATM   23  C10 UNL     1      27.454  -0.772  52.845  1.00  0.00     0.046 A 
HETATM   24  C11 UNL     1      28.362  -0.050  53.590  1.00  0.00     0.138 A 
HETATM   25  F1  UNL     1      29.232  -0.729  54.387  1.00  0.00    -0.204 F 
HETATM   26  C12 UNL     1      28.458   1.324  53.591  1.00  0.00     0.074 A 
HETATM   27 CL1  UNL     1      29.636   2.196  54.561  1.00  0.00    -0.081 Cl
HETATM   28  C13 UNL     1      27.557   2.001  52.767  1.00  0.00     0.056 A 
ENDBRANCH  19  21
ENDBRANCH   9  19
BRANCH   1  29
HETATM   29  C2  UNL     1      18.336   3.019  47.987  1.00  0.00     0.268 C 
HETATM   30  C1  UNL     1      16.845   2.785  48.112  1.00  0.00     0.037 C 
ENDBRANCH   1  29
TORSDOF 3
ENDMDL
MODEL 6
REMARK VINA RESULT:      -7.9      7.966     10.436
REMARK  3 active torsions:
REMARK  status: ('A' for Active; 'I' for Inactive)
REMARK    1  A    between atoms: C2_2  and  N1_3 
REMARK    2  A    between atoms: C7_11  and  N3_12 
REMARK    3  A    between atoms: N3_12  and  C8_13 
ROOT
HETATM    1  N1  UNL     1      33.897   6.525  44.698  1.00  0.00     0.091 N 
HETATM    2  C3  UNL     1      34.177   6.132  46.002  1.00  0.00     0.298 C 
HETATM    3  C4  UNL     1      33.493   4.890  46.489  1.00  0.00     0.200 C 
HETATM    4  O1  UNL     1      32.105   4.990  46.343  1.00  0.00    -0.365 OA
HETATM    5  C5  UNL     1      31.453   4.117  47.256  1.00  0.00     0.346 C 
HETATM    6  O2  UNL     1      31.932   4.680  48.526  1.00  0.00    -0.312 OA
HETATM    7  C6  UNL     1      31.247   5.907  48.852  1.00  0.00     0.144 C 
HETATM    8  N2  UNL     1      29.956   5.648  48.710  1.00  0.00    -0.211 NA
HETATM    9  C7  UNL     1      28.981   6.420  47.932  1.00  0.00     0.130 C 
HETATM   10  C14 UNL     1      29.031   7.331  46.914  1.00  0.00     0.052 C 
HETATM   11  C15 UNL     1      30.316   7.907  46.411  1.00  0.00     0.028 C 
HETATM   12  C16 UNL     1      31.466   8.323  47.005  1.00  0.00     0.007 C 
HETATM   13  C17 UNL     1      31.880   8.349  48.408  1.00  0.00     0.065 C 
HETATM   14  C18 UNL     1      31.903   7.191  49.267  1.00  0.00     0.092 C 
HETATM   15  N4  UNL     1      32.212   8.793  45.827  1.00  0.00    -0.387 N 
HETATM   16  C19 UNL     1      31.355   9.337  44.792  1.00  0.00     0.149 C 
HETATM   17  C20 UNL     1      33.617   8.830  45.488  1.00  0.00     0.152 C 
HETATM   18  C21 UNL     1      34.068   7.901  44.412  1.00  0.00     0.292 C 
ENDROOT
BRANCH   9  19
HETATM   19  N3  UNL     1      27.635   6.177  48.285  1.00  0.00    -0.341 N 
HETATM   20  H12 UNL     1      27.035   6.869  47.757  1.00  0.00     0.167 HD
BRANCH  19  21
HETATM   21  C8  UNL     1      26.743   5.405  49.042  1.00  0.00     0.035 A 
HETATM   22  C9  UNL     1      26.847   4.052  49.285  1.00  0.00     0.032 A 
HETATM   23  C10 UNL     1      25.877   3.439  50.053  1.00  0.00     0.046 A 
HETATM   24  C11 UNL     1      24.844   4.208  50.546  1.00  0.00     0.138 A 
HETATM   25  F1  UNL     1      23.888   3.602  51.303  1.00  0.00    -0.204 F 
HETATM   26  C12 UNL     1      24.701   5.560  50.328  1.00  0.00     0.074 A 
HETATM   27 CL1  UNL     1      23.363   6.494  50.981  1.00  0.00    -0.081 Cl
HETATM   28  C13 UNL     1      25.691   6.163  49.549  1.00  0.00     0.056 A 
ENDBRANCH  19  21
ENDBRANCH   9  19
BRANCH   1  29
HETATM   29  C2  UNL     1      34.418   5.678  43.699  1.00  0.00     0.268 C 
HETATM   30  C1  UNL     1      33.395   4.871  42.927  1.00  0.00     0.037 C 
ENDBRANCH   1  29
TORSDOF 3
ENDMDL
MODEL 7
REMARK VINA RESULT:      -7.7      4.172      6.950
REMARK  3 active torsions:
REMARK  status: ('A' for Active; 'I' for Inactive)
REMARK    1  A    between atoms: C2_2  and  N1_3 
REMARK    2  A    between atoms: C7_11  and  N3_12 
REMARK    3  A    between atoms: N3_12  and  C8_13 
ROOT
HETATM    1  N1  UNL     1      21.102   0.401  53.310  1.00  0.00     0.091 N 
HETATM    2  C3  UNL     1      22.188   0.171  52.472  1.00  0.00     0.298 C 
HETATM    3  C4  UNL     1      23.477   0.837  52.849  1.00  0.00     0.200 C 
HETATM    4  O1  UNL     1      23.307   2.218  52.988  1.00  0.00    -0.365 OA
HETATM    5  C5  UNL     1      24.549   2.885  52.801  1.00  0.00     0.346 C 
HETATM    6  O2  UNL     1      24.842   2.485  51.418  1.00  0.00    -0.312 OA
HETATM    7  C6  UNL     1      24.041   3.224  50.473  1.00  0.00     0.144 C 
HETATM    8  N2  UNL     1      24.164   4.498  50.814  1.00  0.00    -0.211 NA
HETATM    9  C7  UNL     1      23.080   5.459  51.044  1.00  0.00     0.130 C 
HETATM   10  C14 UNL     1      21.744   5.390  51.327  1.00  0.00     0.052 C 
HETATM   11  C15 UNL     1      20.986   4.102  51.321  1.00  0.00     0.028 C 
HETATM   12  C16 UNL     1      21.001   2.995  50.531  1.00  0.00     0.007 C 
HETATM   13  C17 UNL     1      21.806   2.650  49.360  1.00  0.00     0.065 C 
HETATM   14  C18 UNL     1      23.248   2.631  49.345  1.00  0.00     0.092 C 
HETATM   15  N4  UNL     1      19.929   2.209  51.163  1.00  0.00    -0.387 N 
HETATM   16  C19 UNL     1      18.879   3.033  51.728  1.00  0.00     0.149 C 
HETATM   17  C20 UNL     1      19.702   0.792  51.334  1.00  0.00     0.152 C 
HETATM   18  C21 UNL     1      19.821   0.260  52.722  1.00  0.00     0.292 C 
ENDROOT
BRANCH   9  19
HETATM   19  N3  UNL     1      23.482   6.812  50.980  1.00  0.00    -0.341 N 
HETATM   20  H12 UNL     1      23.282   7.250  51.922  1.00  0.00     0.167 HD
BRANCH  19  21
HETATM   21  C8  UNL     1      24.035   7.834  50.198  1.00  0.00     0.035 A 
HETATM   22  C9  UNL     1      23.376   8.561  49.229  1.00  0.00     0.032 A 
HETATM   23  C10 UNL     1      24.071   9.537  48.544  1.00  0.00     0.046 A 
HETATM   24  C11 UNL     1      25.397   9.746  48.858  1.00  0.00     0.138 A 
HETATM   25  F1  UNL     1      26.081  10.709  48.181  1.00  0.00    -0.204 F 
HETATM   26  C12 UNL     1      26.094   9.044  49.817  1.00  0.00     0.074 A 
HETATM   27 CL1  UNL     1      27.786   9.351  50.179  1.00  0.00    -0.081 Cl
HETATM   28  C13 UNL     1      25.375   8.061  50.500  1.00  0.00     0.056 A 
ENDBRANCH  19  21
ENDBRANCH   9  19
BRANCH   1  29
HETATM   29  C2  UNL     1      21.199  -0.195  54.584  1.00  0.00     0.268 C 
HETATM   30  C1  UNL     1      21.532  -1.672  54.591  1.00  0.00     0.037 C 
ENDBRANCH   1  29
TORSDOF 3
ENDMDL
MODEL 8
REMARK VINA RESULT:      -7.6      3.004      3.909
REMARK  3 active torsions:
REMARK  status: ('A' for Active; 'I' for Inactive)
REMARK    1  A    between atoms: C2_2  and  N1_3 
REMARK    2  A    between atoms: C7_11  and  N3_12 
REMARK    3  A    between atoms: N3_12  and  C8_13 
ROOT
HETATM    1  N1  UNL     1      23.008   7.742  46.191  1.00  0.00     0.091 N 
HETATM    2  C3  UNL     1      22.656   8.420  47.353  1.00  0.00     0.298 C 
HETATM    3  C4  UNL     1      23.759   8.685  48.334  1.00  0.00     0.200 C 
HETATM    4  O1  UNL     1      24.410   7.500  48.690  1.00  0.00    -0.365 OA
HETATM    5  C5  UNL     1      25.039   7.649  49.957  1.00  0.00     0.346 C 
HETATM    6  O2  UNL     1      23.861   7.922  50.790  1.00  0.00    -0.312 OA
HETATM    7  C6  UNL     1      23.106   6.721  51.050  1.00  0.00     0.144 C 
HETATM    8  N2  UNL     1      23.989   5.821  51.459  1.00  0.00    -0.211 NA
HETATM    9  C7  UNL     1      24.170   4.462  50.938  1.00  0.00     0.130 C 
HETATM   10  C14 UNL     1      23.844   3.794  49.790  1.00  0.00     0.052 C 
HETATM   11  C15 UNL     1      22.977   4.392  48.730  1.00  0.00     0.028 C 
HETATM   12  C16 UNL     1      21.859   5.166  48.742  1.00  0.00     0.007 C 
HETATM   13  C17 UNL     1      21.077   5.723  49.846  1.00  0.00     0.065 C 
HETATM   14  C18 UNL     1      21.623   6.565  50.882  1.00  0.00     0.092 C 
HETATM   15  N4  UNL     1      21.604   5.279  47.298  1.00  0.00    -0.387 N 
HETATM   16  C19 UNL     1      22.009   4.102  46.555  1.00  0.00     0.149 C 
HETATM   17  C20 UNL     1      21.032   6.314  46.466  1.00  0.00     0.152 C 
HETATM   18  C21 UNL     1      21.968   7.026  45.549  1.00  0.00     0.292 C 
ENDROOT
BRANCH   9  19
HETATM   19  N3  UNL     1      24.869   3.597  51.808  1.00  0.00    -0.341 N 
HETATM   20  H12 UNL     1      25.216   4.175  52.624  1.00  0.00     0.167 HD
BRANCH  19  21
HETATM   21  C8  UNL     1      25.308   2.290  52.059  1.00  0.00     0.035 A 
HETATM   22  C9  UNL     1      26.488   1.732  51.614  1.00  0.00     0.032 A 
HETATM   23  C10 UNL     1      26.771   0.423  51.949  1.00  0.00     0.046 A 
HETATM   24  C11 UNL     1      25.861  -0.273  52.715  1.00  0.00     0.138 A 
HETATM   25  F1  UNL     1      26.141  -1.564  53.044  1.00  0.00    -0.204 F 
HETATM   26  C12 UNL     1      24.671   0.244  53.180  1.00  0.00     0.074 A 
HETATM   27 CL1  UNL     1      23.545  -0.688  54.155  1.00  0.00    -0.081 Cl
HETATM   28  C13 UNL     1      24.402   1.570  52.831  1.00  0.00     0.056 A 
ENDBRANCH  19  21
ENDBRANCH   9  19
BRANCH   1  29
HETATM   29  C2  UNL     1      23.815   8.475  45.298  1.00  0.00     0.268 C 
HETATM   30  C1  UNL     1      24.244   7.736  44.048  1.00  0.00     0.037 C 
ENDBRANCH   1  29
TORSDOF 3
ENDMDL
MODEL 9
REMARK VINA RESULT:      -7.4      3.174      4.469
REMARK  3 active torsions:
REMARK  status: ('A' for Active; 'I' for Inactive)
REMARK    1  A    between atoms: C2_2  and  N1_3 
REMARK    2  A    between atoms: C7_11  and  N3_12 
REMARK    3  A    between atoms: N3_12  and  C8_13 
ROOT
HETATM    1  N1  UNL     1      21.360   6.761  47.079  1.00  0.00     0.091 N 
HETATM    2  C3  UNL     1      22.298   5.801  46.714  1.00  0.00     0.298 C 
HETATM    3  C4  UNL     1      21.792   4.401  46.541  1.00  0.00     0.200 C 
HETATM    4  O1  UNL     1      21.130   3.960  47.691  1.00  0.00    -0.365 OA
HETATM    5  C5  UNL     1      21.140   2.539  47.747  1.00  0.00     0.346 C 
HETATM    6  O2  UNL     1      22.589   2.302  47.800  1.00  0.00    -0.312 OA
HETATM    7  C6  UNL     1      23.125   2.586  49.109  1.00  0.00     0.144 C 
HETATM    8  N2  UNL     1      22.337   1.954  49.967  1.00  0.00    -0.211 NA
HETATM    9  C7  UNL     1      21.684   2.523  51.150  1.00  0.00     0.130 C 
HETATM   10  C14 UNL     1      21.352   3.775  51.587  1.00  0.00     0.052 C 
HETATM   11  C15 UNL     1      21.789   5.017  50.879  1.00  0.00     0.028 C 
HETATM   12  C16 UNL     1      22.938   5.403  50.262  1.00  0.00     0.007 C 
HETATM   13  C17 UNL     1      24.208   4.708  50.052  1.00  0.00     0.065 C 
HETATM   14  C18 UNL     1      24.332   3.429  49.396  1.00  0.00     0.092 C 
HETATM   15  N4  UNL     1      22.574   6.774  49.868  1.00  0.00    -0.387 N 
HETATM   16  C19 UNL     1      21.665   7.410  50.802  1.00  0.00     0.149 C 
HETATM   17  C20 UNL     1      22.936   7.618  48.752  1.00  0.00     0.152 C 
HETATM   18  C21 UNL     1      21.863   7.900  47.754  1.00  0.00     0.292 C 
ENDROOT
BRANCH   9  19
HETATM   19  N3  UNL     1      21.261   1.563  52.096  1.00  0.00    -0.341 N 
HETATM   20  H12 UNL     1      20.203   1.550  52.088  1.00  0.00     0.167 HD
BRANCH  19  21
HETATM   21  C8  UNL     1      21.642   0.611  53.050  1.00  0.00     0.035 A 
HETATM   22  C9  UNL     1      20.789  -0.141  53.830  1.00  0.00     0.032 A 
HETATM   23  C10 UNL     1      21.329  -1.038  54.730  1.00  0.00     0.046 A 
HETATM   24  C11 UNL     1      22.701  -1.145  54.811  1.00  0.00     0.138 A 
HETATM   25  F1  UNL     1      23.233  -2.030  55.699  1.00  0.00    -0.204 F 
HETATM   26  C12 UNL     1      23.590  -0.414  54.053  1.00  0.00     0.074 A 
HETATM   27 CL1  UNL     1      25.333  -0.589  54.195  1.00  0.00    -0.081 Cl
HETATM   28  C13 UNL     1      23.025   0.488  53.148  1.00  0.00     0.056 A 
ENDBRANCH  19  21
ENDBRANCH   9  19
BRANCH   1  29
HETATM   29  C2  UNL     1      20.416   7.076  46.081  1.00  0.00     0.268 C 
HETATM   30  C1  UNL     1      18.968   6.835  46.451  1.00  0.00     0.037 C 
ENDBRANCH   1  29
TORSDOF 3
ENDMDL
