MODEL 1
REMARK VINA RESULT:      -8.9      0.000      0.000
REMARK  8 active torsions:
REMARK  status: ('A' for Active; 'I' for Inactive)
REMARK    1  A    between atoms: C6_8  and  N3_9 
REMARK    2  A    between atoms: N3_9  and  C7_10 
REMARK    3  A    between atoms: C11_15  and  O1_16 
REMARK    4  A    between atoms: C15_20  and  O2_21 
REMARK    5  A    between atoms: O2_21  and  C16_22 
REMARK    6  A    between atoms: C16_22  and  C17_23 
REMARK    7  A    between atoms: C17_23  and  C18_24 
REMARK    8  A    between atoms: C18_24  and  C19_25 
ROOT
HETATM    1  C1  UNL     1      18.535  -0.250  52.330  1.00  0.00     0.051 C 
HETATM    2  C2  UNL     1      20.032  -0.151  52.495  1.00  0.00    -0.026 A 
HETATM    3  C3  UNL     1      20.382  -0.771  53.706  1.00  0.00     0.042 A 
HETATM    4  C4  UNL     1      21.709  -0.795  54.068  1.00  0.00     0.072 A 
HETATM    5  N1  UNL     1      22.163  -1.374  55.205  1.00  0.00    -0.241 NA
HETATM    6  C5  UNL     1      23.480  -1.379  55.504  1.00  0.00     0.236 A 
HETATM    7  N2  UNL     1      24.405  -0.814  54.700  1.00  0.00    -0.224 NA
HETATM    8  C6  UNL     1      24.023  -0.219  53.553  1.00  0.00     0.142 A 
HETATM    9  C13 UNL     1      22.680  -0.228  53.270  1.00  0.00     0.041 A 
HETATM   10  C14 UNL     1      22.282   0.357  52.108  1.00  0.00     0.055 A 
HETATM   11  C15 UNL     1      20.990   0.439  51.649  1.00  0.00     0.075 A 
ENDROOT
BRANCH   8  12
HETATM   12  N3  UNL     1      25.054   0.342  52.762  1.00  0.00    -0.340 N 
HETATM   13  H6  UNL     1      24.935   1.069  52.027  1.00  0.00     0.167 HD
BRANCH  12  14
HETATM   14  C7  UNL     1      26.393  -0.140  53.003  1.00  0.00     0.036 A 
HETATM   15  C8  UNL     1      27.388   0.721  53.433  1.00  0.00     0.032 A 
HETATM   16  C9  UNL     1      28.661   0.213  53.634  1.00  0.00     0.047 A 
HETATM   17  C10 UNL     1      28.998  -1.108  53.432  1.00  0.00     0.149 A 
HETATM   18  F1  UNL     1      30.260  -1.580  53.635  1.00  0.00    -0.203 F 
HETATM   19  C11 UNL     1      28.008  -1.958  53.007  1.00  0.00     0.106 A 
HETATM   20  C12 UNL     1      26.721  -1.484  52.794  1.00  0.00     0.069 A 
BRANCH  19  21
HETATM   21  O1  UNL     1      28.343  -3.280  52.804  1.00  0.00    -0.358 OA
HETATM   22  H9  UNL     1      29.267  -3.620  52.919  1.00  0.00     0.217 HD
ENDBRANCH  19  21
ENDBRANCH  12  14
ENDBRANCH   8  12
BRANCH  11  23
HETATM   23  O2  UNL     1      20.314   0.916  50.616  1.00  0.00    -0.351 OA
BRANCH  23  24
HETATM   24  C16 UNL     1      20.556   1.861  49.632  1.00  0.00     0.176 C 
BRANCH  24  25
HETATM   25  C17 UNL     1      21.770   1.554  48.806  1.00  0.00     0.029 C 
BRANCH  25  26
HETATM   26  C18 UNL     1      22.607   2.742  48.580  1.00  0.00     0.037 C 
BRANCH  26  27
HETATM   27  C19 UNL     1      23.907   2.869  49.266  1.00  0.00     0.161 C 
HETATM   28  C20 UNL     1      24.075   4.071  50.164  1.00  0.00     0.154 C 
HETATM   29  N4  UNL     1      24.843   3.131  50.922  1.00  0.00    -0.198 NA
HETATM   30  C21 UNL     1      26.265   3.175  50.842  1.00  0.00     0.143 C 
HETATM   31  O3  UNL     1      24.210   2.114  50.362  1.00  0.00    -0.297 OA
ENDBRANCH  26  27
ENDBRANCH  25  26
ENDBRANCH  24  25
ENDBRANCH  23  24
ENDBRANCH  11  23
TORSDOF 8
ENDMDL
MODEL 2
REMARK VINA RESULT:      -8.7      1.070      1.370
REMARK  8 active torsions:
REMARK  status: ('A' for Active; 'I' for Inactive)
REMARK    1  A    between atoms: C6_8  and  N3_9 
REMARK    2  A    between atoms: N3_9  and  C7_10 
REMARK    3  A    between atoms: C11_15  and  O1_16 
REMARK    4  A    between atoms: C15_20  and  O2_21 
REMARK    5  A    between atoms: O2_21  and  C16_22 
REMARK    6  A    between atoms: C16_22  and  C17_23 
REMARK    7  A    between atoms: C17_23  and  C18_24 
REMARK    8  A    between atoms: C18_24  and  C19_25 
ROOT
HETATM    1  C1  UNL     1      18.353  -0.533  52.566  1.00  0.00     0.051 C 
HETATM    2  C2  UNL     1      19.850  -0.375  52.686  1.00  0.00    -0.026 A 
HETATM    3  C3  UNL     1      20.260  -0.985  53.884  1.00  0.00     0.042 A 
HETATM    4  C4  UNL     1      21.598  -0.958  54.205  1.00  0.00     0.072 A 
HETATM    5  N1  UNL     1      22.108  -1.522  55.325  1.00  0.00    -0.241 NA
HETATM    6  C5  UNL     1      23.432  -1.477  55.585  1.00  0.00     0.236 A 
HETATM    7  N2  UNL     1      24.310  -0.873  54.756  1.00  0.00    -0.224 NA
HETATM    8  C6  UNL     1      23.870  -0.291  53.624  1.00  0.00     0.142 A 
HETATM    9  C13 UNL     1      22.521  -0.351  53.381  1.00  0.00     0.041 A 
HETATM   10  C14 UNL     1      22.065   0.222  52.234  1.00  0.00     0.055 A 
HETATM   11  C15 UNL     1      20.758   0.254  51.815  1.00  0.00     0.075 A 
ENDROOT
BRANCH   8  12
HETATM   12  N3  UNL     1      24.855   0.314  52.804  1.00  0.00    -0.340 N 
HETATM   13  H6  UNL     1      24.676   0.962  52.010  1.00  0.00     0.167 HD
BRANCH  12  14
HETATM   14  C7  UNL     1      26.231  -0.000  53.104  1.00  0.00     0.036 A 
HETATM   15  C8  UNL     1      26.809  -1.166  52.633  1.00  0.00     0.032 A 
HETATM   16  C9  UNL     1      28.129  -1.430  52.962  1.00  0.00     0.047 A 
HETATM   17  C10 UNL     1      28.906  -0.594  53.734  1.00  0.00     0.149 A 
HETATM   18  F1  UNL     1      30.202  -0.881  54.045  1.00  0.00    -0.203 F 
HETATM   19  C11 UNL     1      28.329   0.562  54.197  1.00  0.00     0.106 A 
HETATM   20  C12 UNL     1      27.010   0.859  53.889  1.00  0.00     0.069 A 
BRANCH  19  21
HETATM   21  O1  UNL     1      29.106   1.399  54.970  1.00  0.00    -0.358 OA
HETATM   22  H9  UNL     1      28.776   2.270  55.311  1.00  0.00     0.217 HD
ENDBRANCH  19  21
ENDBRANCH  12  14
ENDBRANCH   8  12
BRANCH  11  23
HETATM   23  O2  UNL     1      20.033   0.708  50.805  1.00  0.00    -0.351 OA
BRANCH  23  24
HETATM   24  C16 UNL     1      20.293   1.431  49.652  1.00  0.00     0.176 C 
BRANCH  24  25
HETATM   25  C17 UNL     1      21.753   1.486  49.306  1.00  0.00     0.029 C 
BRANCH  25  26
HETATM   26  C18 UNL     1      22.336   2.812  49.556  1.00  0.00     0.037 C 
BRANCH  26  27
HETATM   27  C19 UNL     1      23.781   2.943  49.820  1.00  0.00     0.161 C 
HETATM   28  C20 UNL     1      24.195   4.073  50.731  1.00  0.00     0.154 C 
HETATM   29  N4  UNL     1      25.178   3.111  51.127  1.00  0.00    -0.198 NA
HETATM   30  C21 UNL     1      26.504   3.229  50.620  1.00  0.00     0.143 C 
HETATM   31  O3  UNL     1      24.423   2.116  50.695  1.00  0.00    -0.297 OA
ENDBRANCH  26  27
ENDBRANCH  25  26
ENDBRANCH  24  25
ENDBRANCH  23  24
ENDBRANCH  11  23
TORSDOF 8
ENDMDL
MODEL 3
REMARK VINA RESULT:      -8.4      1.397      4.596
REMARK  8 active torsions:
REMARK  status: ('A' for Active; 'I' for Inactive)
REMARK    1  A    between atoms: C6_8  and  N3_9 
REMARK    2  A    between atoms: N3_9  and  C7_10 
REMARK    3  A    between atoms: C11_15  and  O1_16 
REMARK    4  A    between atoms: C15_20  and  O2_21 
REMARK    5  A    between atoms: O2_21  and  C16_22 
REMARK    6  A    between atoms: C16_22  and  C17_23 
REMARK    7  A    between atoms: C17_23  and  C18_24 
REMARK    8  A    between atoms: C18_24  and  C19_25 
ROOT
HETATM    1  C1  UNL     1      20.804   2.311  48.487  1.00  0.00     0.051 C 
HETATM    2  C2  UNL     1      21.922   2.155  49.489  1.00  0.00    -0.026 A 
HETATM    3  C3  UNL     1      23.045   2.846  49.003  1.00  0.00     0.042 A 
HETATM    4  C4  UNL     1      24.195   2.836  49.759  1.00  0.00     0.072 A 
HETATM    5  N1  UNL     1      25.332   3.476  49.397  1.00  0.00    -0.241 NA
HETATM    6  C5  UNL     1      26.429   3.443  50.184  1.00  0.00     0.236 A 
HETATM    7  N2  UNL     1      26.454   2.779  51.359  1.00  0.00    -0.224 NA
HETATM    8  C6  UNL     1      25.357   2.120  51.780  1.00  0.00     0.142 A 
HETATM    9  C13 UNL     1      24.255   2.169  50.964  1.00  0.00     0.041 A 
HETATM   10  C14 UNL     1      23.136   1.519  51.384  1.00  0.00     0.055 A 
HETATM   11  C15 UNL     1      21.939   1.462  50.714  1.00  0.00     0.075 A 
ENDROOT
BRANCH   8  12
HETATM   12  N3  UNL     1      25.463   1.455  53.026  1.00  0.00    -0.340 N 
HETATM   13  H6  UNL     1      24.797   1.537  53.822  1.00  0.00     0.167 HD
BRANCH  12  14
HETATM   14  C7  UNL     1      26.599   0.583  53.203  1.00  0.00     0.036 A 
HETATM   15  C8  UNL     1      27.785   1.064  53.728  1.00  0.00     0.032 A 
HETATM   16  C9  UNL     1      28.852   0.191  53.863  1.00  0.00     0.047 A 
HETATM   17  C10 UNL     1      28.802  -1.139  53.503  1.00  0.00     0.149 A 
HETATM   18  F1  UNL     1      29.869  -1.975  53.644  1.00  0.00    -0.203 F 
HETATM   19  C11 UNL     1      27.623  -1.612  52.984  1.00  0.00     0.106 A 
HETATM   20  C12 UNL     1      26.534  -0.766  52.834  1.00  0.00     0.069 A 
BRANCH  19  21
HETATM   21  O1  UNL     1      27.571  -2.942  52.624  1.00  0.00    -0.358 OA
HETATM   22  H9  UNL     1      27.065  -3.617  53.144  1.00  0.00     0.217 HD
ENDBRANCH  19  21
ENDBRANCH  12  14
ENDBRANCH   8  12
BRANCH  11  23
HETATM   23  O2  UNL     1      20.730   0.942  50.850  1.00  0.00    -0.351 OA
BRANCH  23  24
HETATM   24  C16 UNL     1      19.708   1.052  51.780  1.00  0.00     0.176 C 
BRANCH  24  25
HETATM   25  C17 UNL     1      18.996  -0.245  52.029  1.00  0.00     0.029 C 
BRANCH  25  26
HETATM   26  C18 UNL     1      19.301  -0.805  53.354  1.00  0.00     0.037 C 
BRANCH  26  27
HETATM   27  C19 UNL     1      20.703  -0.935  53.794  1.00  0.00     0.161 C 
HETATM   28  C20 UNL     1      21.187   0.082  54.799  1.00  0.00     0.154 C 
HETATM   29  N4  UNL     1      21.933  -1.047  55.264  1.00  0.00    -0.198 NA
HETATM   30  C21 UNL     1      23.313  -1.151  54.926  1.00  0.00     0.143 C 
HETATM   31  O3  UNL     1      21.079  -1.883  54.701  1.00  0.00    -0.297 OA
ENDBRANCH  26  27
ENDBRANCH  25  26
ENDBRANCH  24  25
ENDBRANCH  23  24
ENDBRANCH  11  23
TORSDOF 8
ENDMDL
MODEL 4
REMARK VINA RESULT:      -8.2      3.266      4.691
REMARK  8 active torsions:
REMARK  status: ('A' for Active; 'I' for Inactive)
REMARK    1  A    between atoms: C6_8  and  N3_9 
REMARK    2  A    between atoms: N3_9  and  C7_10 
REMARK    3  A    between atoms: C11_15  and  O1_16 
REMARK    4  A    between atoms: C15_20  and  O2_21 
REMARK    5  A    between atoms: O2_21  and  C16_22 
REMARK    6  A    between atoms: C16_22  and  C17_23 
REMARK    7  A    between atoms: C17_23  and  C18_24 
REMARK    8  A    between atoms: C18_24  and  C19_25 
ROOT
HETATM    1  C1  UNL     1      22.600   3.285  47.881  1.00  0.00     0.051 C 
HETATM    2  C2  UNL     1      23.145   2.852  49.221  1.00  0.00    -0.026 A 
HETATM    3  C3  UNL     1      22.272   1.892  49.759  1.00  0.00     0.042 A 
HETATM    4  C4  UNL     1      22.571   1.356  50.991  1.00  0.00     0.072 A 
HETATM    5  N1  UNL     1      21.810   0.416  51.601  1.00  0.00    -0.241 NA
HETATM    6  C5  UNL     1      22.158  -0.085  52.806  1.00  0.00     0.236 A 
HETATM    7  N2  UNL     1      23.267   0.318  53.462  1.00  0.00    -0.224 NA
HETATM    8  C6  UNL     1      24.069   1.250  52.913  1.00  0.00     0.142 A 
HETATM    9  C13 UNL     1      23.695   1.743  51.687  1.00  0.00     0.041 A 
HETATM   10  C14 UNL     1      24.505   2.676  51.115  1.00  0.00     0.055 A 
HETATM   11  C15 UNL     1      24.305   3.275  49.896  1.00  0.00     0.075 A 
ENDROOT
BRANCH   8  12
HETATM   12  N3  UNL     1      25.217   1.611  53.660  1.00  0.00    -0.340 N 
HETATM   13  H6  UNL     1      25.290   2.413  54.319  1.00  0.00     0.167 HD
BRANCH  12  14
HETATM   14  C7  UNL     1      26.389   0.787  53.491  1.00  0.00     0.036 A 
HETATM   15  C8  UNL     1      26.271  -0.539  53.114  1.00  0.00     0.032 A 
HETATM   16  C9  UNL     1      27.425  -1.294  52.980  1.00  0.00     0.047 A 
HETATM   17  C10 UNL     1      28.692  -0.799  53.200  1.00  0.00     0.149 A 
HETATM   18  F1  UNL     1      29.811  -1.566  53.064  1.00  0.00    -0.203 F 
HETATM   19  C11 UNL     1      28.804   0.518  53.571  1.00  0.00     0.106 A 
HETATM   20  C12 UNL     1      27.670   1.303  53.716  1.00  0.00     0.069 A 
BRANCH  19  21
HETATM   21  O1  UNL     1      30.071   1.015  53.792  1.00  0.00    -0.358 OA
HETATM   22  H9  UNL     1      30.827   0.842  53.175  1.00  0.00     0.217 HD
ENDBRANCH  19  21
ENDBRANCH  12  14
ENDBRANCH   8  12
BRANCH  11  23
HETATM   23  O2  UNL     1      24.877   4.169  49.106  1.00  0.00    -0.351 OA
BRANCH  23  24
HETATM   24  C16 UNL     1      25.767   5.216  49.283  1.00  0.00     0.176 C 
BRANCH  24  25
HETATM   25  C17 UNL     1      27.171   4.871  48.880  1.00  0.00     0.029 C 
BRANCH  25  26
HETATM   26  C18 UNL     1      27.902   6.032  48.352  1.00  0.00     0.037 C 
BRANCH  26  27
HETATM   27  C19 UNL     1      29.338   5.919  48.039  1.00  0.00     0.161 C 
HETATM   28  C20 UNL     1      30.198   7.105  48.403  1.00  0.00     0.154 C 
HETATM   29  N4  UNL     1      31.147   6.066  48.666  1.00  0.00    -0.198 NA
HETATM   30  C21 UNL     1      32.169   5.804  47.710  1.00  0.00     0.143 C 
HETATM   31  O3  UNL     1      30.180   5.177  48.816  1.00  0.00    -0.297 OA
ENDBRANCH  26  27
ENDBRANCH  25  26
ENDBRANCH  24  25
ENDBRANCH  23  24
ENDBRANCH  11  23
TORSDOF 8
ENDMDL
MODEL 5
REMARK VINA RESULT:      -8.2      2.833      4.388
REMARK  8 active torsions:
REMARK  status: ('A' for Active; 'I' for Inactive)
REMARK    1  A    between atoms: C6_8  and  N3_9 
REMARK    2  A    between atoms: N3_9  and  C7_10 
REMARK    3  A    between atoms: C11_15  and  O1_16 
REMARK    4  A    between atoms: C15_20  and  O2_21 
REMARK    5  A    between atoms: O2_21  and  C16_22 
REMARK    6  A    between atoms: C16_22  and  C17_23 
REMARK    7  A    between atoms: C17_23  and  C18_24 
REMARK    8  A    between atoms: C18_24  and  C19_25 
ROOT
HETATM    1  C1  UNL     1      18.498  -0.513  52.638  1.00  0.00     0.051 C 
HETATM    2  C2  UNL     1      19.994  -0.342  52.750  1.00  0.00    -0.026 A 
HETATM    3  C3  UNL     1      20.420  -0.976  53.930  1.00  0.00     0.042 A 
HETATM    4  C4  UNL     1      21.760  -0.942  54.241  1.00  0.00     0.072 A 
HETATM    5  N1  UNL     1      22.285  -1.528  55.343  1.00  0.00    -0.241 NA
HETATM    6  C5  UNL     1      23.611  -1.474  55.594  1.00  0.00     0.236 A 
HETATM    7  N2  UNL     1      24.476  -0.841  54.773  1.00  0.00    -0.224 NA
HETATM    8  C6  UNL     1      24.021  -0.236  53.658  1.00  0.00     0.142 A 
HETATM    9  C13 UNL     1      22.670  -0.305  53.425  1.00  0.00     0.041 A 
HETATM   10  C14 UNL     1      22.199   0.290  52.295  1.00  0.00     0.055 A 
HETATM   11  C15 UNL     1      20.888   0.318  51.887  1.00  0.00     0.075 A 
ENDROOT
BRANCH   8  12
HETATM   12  N3  UNL     1      24.992   0.399  52.846  1.00  0.00    -0.340 N 
HETATM   13  H6  UNL     1      24.800   1.060  52.066  1.00  0.00     0.167 HD
BRANCH  12  14
HETATM   14  C7  UNL     1      26.375   0.100  53.133  1.00  0.00     0.036 A 
HETATM   15  C8  UNL     1      26.937  -1.099  52.732  1.00  0.00     0.032 A 
HETATM   16  C9  UNL     1      28.263  -1.346  53.046  1.00  0.00     0.047 A 
HETATM   17  C10 UNL     1      29.063  -0.462  53.737  1.00  0.00     0.149 A 
HETATM   18  F1  UNL     1      30.365  -0.732  54.035  1.00  0.00    -0.203 F 
HETATM   19  C11 UNL     1      28.501   0.727  54.131  1.00  0.00     0.106 A 
HETATM   20  C12 UNL     1      27.176   1.008  53.835  1.00  0.00     0.069 A 
BRANCH  19  21
HETATM   21  O1  UNL     1      29.300   1.613  54.823  1.00  0.00    -0.358 OA
HETATM   22  H9  UNL     1      28.932   2.386  55.323  1.00  0.00     0.217 HD
ENDBRANCH  19  21
ENDBRANCH  12  14
ENDBRANCH   8  12
BRANCH  11  23
HETATM   23  O2  UNL     1      20.151   0.789  50.894  1.00  0.00    -0.351 OA
BRANCH  23  24
HETATM   24  C16 UNL     1      19.952   2.032  50.317  1.00  0.00     0.176 C 
BRANCH  24  25
HETATM   25  C17 UNL     1      18.505   2.424  50.244  1.00  0.00     0.029 C 
BRANCH  25  26
HETATM   26  C18 UNL     1      18.079   3.208  51.413  1.00  0.00     0.037 C 
BRANCH  26  27
HETATM   27  C19 UNL     1      16.652   3.526  51.607  1.00  0.00     0.161 C 
HETATM   28  C20 UNL     1      15.770   2.390  52.065  1.00  0.00     0.154 C 
HETATM   29  N4  UNL     1      15.123   3.457  52.766  1.00  0.00    -0.198 NA
HETATM   30  C21 UNL     1      13.911   3.993  52.244  1.00  0.00     0.143 C 
HETATM   31  O3  UNL     1      16.216   4.197  52.713  1.00  0.00    -0.297 OA
ENDBRANCH  26  27
ENDBRANCH  25  26
ENDBRANCH  24  25
ENDBRANCH  23  24
ENDBRANCH  11  23
TORSDOF 8
ENDMDL
MODEL 6
REMARK VINA RESULT:      -8.0      2.023      2.381
REMARK  8 active torsions:
REMARK  status: ('A' for Active; 'I' for Inactive)
REMARK    1  A    between atoms: C6_8  and  N3_9 
REMARK    2  A    between atoms: N3_9  and  C7_10 
REMARK    3  A    between atoms: C11_15  and  O1_16 
REMARK    4  A    between atoms: C15_20  and  O2_21 
REMARK    5  A    between atoms: O2_21  and  C16_22 
REMARK    6  A    between atoms: C16_22  and  C17_23 
REMARK    7  A    between atoms: C17_23  and  C18_24 
REMARK    8  A    between atoms: C18_24  and  C19_25 
ROOT
HETATM    1  C1  UNL     1      18.938  -0.153  52.465  1.00  0.00     0.051 C 
HETATM    2  C2  UNL     1      20.426  -0.053  52.699  1.00  0.00    -0.026 A 
HETATM    3  C3  UNL     1      20.740  -0.800  53.847  1.00  0.00     0.042 A 
HETATM    4  C4  UNL     1      22.054  -0.847  54.255  1.00  0.00     0.072 A 
HETATM    5  N1  UNL     1      22.474  -1.543  55.338  1.00  0.00    -0.241 NA
HETATM    6  C5  UNL     1      23.779  -1.564  55.686  1.00  0.00     0.236 A 
HETATM    7  N2  UNL     1      24.724  -0.901  54.987  1.00  0.00    -0.224 NA
HETATM    8  C6  UNL     1      24.375  -0.187  53.899  1.00  0.00     0.142 A 
HETATM    9  C13 UNL     1      23.043  -0.182  53.564  1.00  0.00     0.041 A 
HETATM   10  C14 UNL     1      22.679   0.524  52.459  1.00  0.00     0.055 A 
HETATM   11  C15 UNL     1      21.405   0.640  51.962  1.00  0.00     0.075 A 
ENDROOT
BRANCH   8  12
HETATM   12  N3  UNL     1      25.425   0.473  53.216  1.00  0.00    -0.340 N 
HETATM   13  H6  UNL     1      25.327   1.308  52.603  1.00  0.00     0.167 HD
BRANCH  12  14
HETATM   14  C7  UNL     1      26.753  -0.066  53.392  1.00  0.00     0.036 A 
HETATM   15  C8  UNL     1      27.769   0.716  53.912  1.00  0.00     0.032 A 
HETATM   16  C9  UNL     1      29.030   0.158  54.046  1.00  0.00     0.047 A 
HETATM   17  C10 UNL     1      29.335  -1.138  53.691  1.00  0.00     0.149 A 
HETATM   18  F1  UNL     1      30.586  -1.660  53.831  1.00  0.00    -0.203 F 
HETATM   19  C11 UNL     1      28.323  -1.910  53.177  1.00  0.00     0.106 A 
HETATM   20  C12 UNL     1      27.048  -1.385  53.028  1.00  0.00     0.069 A 
BRANCH  19  21
HETATM   21  O1  UNL     1      28.625  -3.207  52.822  1.00  0.00    -0.358 OA
HETATM   22  H9  UNL     1      29.557  -3.533  52.733  1.00  0.00     0.217 HD
ENDBRANCH  19  21
ENDBRANCH  12  14
ENDBRANCH   8  12
BRANCH  11  23
HETATM   23  O2  UNL     1      20.760   1.220  50.963  1.00  0.00    -0.351 OA
BRANCH  23  24
HETATM   24  C16 UNL     1      20.554   2.527  50.549  1.00  0.00     0.176 C 
BRANCH  24  25
HETATM   25  C17 UNL     1      20.482   3.501  51.688  1.00  0.00     0.029 C 
BRANCH  25  26
HETATM   26  C18 UNL     1      21.434   4.611  51.536  1.00  0.00     0.037 C 
BRANCH  26  27
HETATM   27  C19 UNL     1      21.167   5.683  50.559  1.00  0.00     0.161 C 
HETATM   28  C20 UNL     1      21.903   6.982  50.773  1.00  0.00     0.154 C 
HETATM   29  N4  UNL     1      21.891   6.979  49.342  1.00  0.00    -0.198 NA
HETATM   30  C21 UNL     1      20.947   7.797  48.657  1.00  0.00     0.143 C 
HETATM   31  O3  UNL     1      21.729   5.668  49.315  1.00  0.00    -0.297 OA
ENDBRANCH  26  27
ENDBRANCH  25  26
ENDBRANCH  24  25
ENDBRANCH  23  24
ENDBRANCH  11  23
TORSDOF 8
ENDMDL
MODEL 7
REMARK VINA RESULT:      -7.9      3.384      5.809
REMARK  8 active torsions:
REMARK  status: ('A' for Active; 'I' for Inactive)
REMARK    1  A    between atoms: C6_8  and  N3_9 
REMARK    2  A    between atoms: N3_9  and  C7_10 
REMARK    3  A    between atoms: C11_15  and  O1_16 
REMARK    4  A    between atoms: C15_20  and  O2_21 
REMARK    5  A    between atoms: O2_21  and  C16_22 
REMARK    6  A    between atoms: C16_22  and  C17_23 
REMARK    7  A    between atoms: C17_23  and  C18_24 
REMARK    8  A    between atoms: C18_24  and  C19_25 
ROOT
HETATM    1  C1  UNL     1      22.599  -1.031  54.450  1.00  0.00     0.051 C 
HETATM    2  C2  UNL     1      23.233  -0.090  53.454  1.00  0.00    -0.026 A 
HETATM    3  C3  UNL     1      24.581   0.082  53.811  1.00  0.00     0.042 A 
HETATM    4  C4  UNL     1      25.359   0.912  53.037  1.00  0.00     0.072 A 
HETATM    5  N1  UNL     1      26.672   1.143  53.278  1.00  0.00    -0.241 NA
HETATM    6  C5  UNL     1      27.392   1.958  52.478  1.00  0.00     0.236 A 
HETATM    7  N2  UNL     1      26.852   2.582  51.409  1.00  0.00    -0.224 NA
HETATM    8  C6  UNL     1      25.552   2.397  51.112  1.00  0.00     0.142 A 
HETATM    9  C13 UNL     1      24.841   1.563  51.939  1.00  0.00     0.041 A 
HETATM   10  C14 UNL     1      23.529   1.357  51.642  1.00  0.00     0.055 A 
HETATM   11  C15 UNL     1      22.662   0.554  52.341  1.00  0.00     0.075 A 
ENDROOT
BRANCH   8  12
HETATM   12  N3  UNL     1      25.064   3.080  49.971  1.00  0.00    -0.340 N 
HETATM   13  H6  UNL     1      24.581   2.646  49.158  1.00  0.00     0.167 HD
BRANCH  12  14
HETATM   14  C7  UNL     1      25.256   4.510  49.939  1.00  0.00     0.036 A 
HETATM   15  C8  UNL     1      26.177   5.081  49.078  1.00  0.00     0.032 A 
HETATM   16  C9  UNL     1      26.336   6.457  49.097  1.00  0.00     0.047 A 
HETATM   17  C10 UNL     1      25.626   7.297  49.926  1.00  0.00     0.149 A 
HETATM   18  F1  UNL     1      25.805   8.648  49.925  1.00  0.00    -0.203 F 
HETATM   19  C11 UNL     1      24.712   6.727  50.776  1.00  0.00     0.106 A 
HETATM   20  C12 UNL     1      24.526   5.352  50.786  1.00  0.00     0.069 A 
BRANCH  19  21
HETATM   21  O1  UNL     1      24.000   7.566  51.606  1.00  0.00    -0.358 OA
HETATM   22  H9  UNL     1      23.509   8.360  51.271  1.00  0.00     0.217 HD
ENDBRANCH  19  21
ENDBRANCH  12  14
ENDBRANCH   8  12
BRANCH  11  23
HETATM   23  O2  UNL     1      21.397   0.166  52.308  1.00  0.00    -0.351 OA
BRANCH  23  24
HETATM   24  C16 UNL     1      20.172   0.779  52.516  1.00  0.00     0.176 C 
BRANCH  24  25
HETATM   25  C17 UNL     1      19.867   1.844  51.504  1.00  0.00     0.029 C 
BRANCH  25  26
HETATM   26  C18 UNL     1      19.667   1.292  50.156  1.00  0.00     0.037 C 
BRANCH  26  27
HETATM   27  C19 UNL     1      20.484   1.783  49.030  1.00  0.00     0.161 C 
HETATM   28  C20 UNL     1      21.357   2.981  49.309  1.00  0.00     0.154 C 
HETATM   29  N4  UNL     1      22.221   2.297  48.396  1.00  0.00    -0.198 NA
HETATM   30  C21 UNL     1      22.293   2.744  47.046  1.00  0.00     0.143 C 
HETATM   31  O3  UNL     1      21.628   1.144  48.649  1.00  0.00    -0.297 OA
ENDBRANCH  26  27
ENDBRANCH  25  26
ENDBRANCH  24  25
ENDBRANCH  23  24
ENDBRANCH  11  23
TORSDOF 8
ENDMDL
MODEL 8
REMARK VINA RESULT:      -7.9      4.958      7.678
REMARK  8 active torsions:
REMARK  status: ('A' for Active; 'I' for Inactive)
REMARK    1  A    between atoms: C6_8  and  N3_9 
REMARK    2  A    between atoms: N3_9  and  C7_10 
REMARK    3  A    between atoms: C11_15  and  O1_16 
REMARK    4  A    between atoms: C15_20  and  O2_21 
REMARK    5  A    between atoms: O2_21  and  C16_22 
REMARK    6  A    between atoms: C16_22  and  C17_23 
REMARK    7  A    between atoms: C17_23  and  C18_24 
REMARK    8  A    between atoms: C18_24  and  C19_25 
ROOT
HETATM    1  C1  UNL     1      26.928   7.826  48.286  1.00  0.00     0.051 C 
HETATM    2  C2  UNL     1      26.687   6.450  48.859  1.00  0.00    -0.026 A 
HETATM    3  C3  UNL     1      25.508   6.494  49.622  1.00  0.00     0.042 A 
HETATM    4  C4  UNL     1      25.093   5.341  50.248  1.00  0.00     0.072 A 
HETATM    5  N1  UNL     1      23.968   5.262  50.998  1.00  0.00    -0.241 NA
HETATM    6  C5  UNL     1      23.601   4.100  51.581  1.00  0.00     0.236 A 
HETATM    7  N2  UNL     1      24.326   2.968  51.453  1.00  0.00    -0.224 NA
HETATM    8  C6  UNL     1      25.456   2.976  50.720  1.00  0.00     0.142 A 
HETATM    9  C13 UNL     1      25.807   4.168  50.137  1.00  0.00     0.041 A 
HETATM   10  C14 UNL     1      26.941   4.186  49.384  1.00  0.00     0.055 A 
HETATM   11  C15 UNL     1      27.446   5.275  48.717  1.00  0.00     0.075 A 
ENDROOT
BRANCH   8  12
HETATM   12  N3  UNL     1      26.154   1.747  50.628  1.00  0.00    -0.340 N 
HETATM   13  H6  UNL     1      26.225   1.146  49.782  1.00  0.00     0.167 HD
BRANCH  12  14
HETATM   14  C7  UNL     1      26.829   1.292  51.820  1.00  0.00     0.036 A 
HETATM   15  C8  UNL     1      26.627   0.010  52.301  1.00  0.00     0.032 A 
HETATM   16  C9  UNL     1      27.285  -0.373  53.458  1.00  0.00     0.047 A 
HETATM   17  C10 UNL     1      28.136   0.450  54.162  1.00  0.00     0.149 A 
HETATM   18  F1  UNL     1      28.768   0.047  55.301  1.00  0.00    -0.203 F 
HETATM   19  C11 UNL     1      28.335   1.719  53.680  1.00  0.00     0.106 A 
HETATM   20  C12 UNL     1      27.692   2.139  52.525  1.00  0.00     0.069 A 
BRANCH  19  21
HETATM   21  O1  UNL     1      29.186   2.545  54.384  1.00  0.00    -0.358 OA
HETATM   22  H9  UNL     1      29.788   3.195  53.939  1.00  0.00     0.217 HD
ENDBRANCH  19  21
ENDBRANCH  12  14
ENDBRANCH   8  12
BRANCH  11  23
HETATM   23  O2  UNL     1      28.470   5.597  47.943  1.00  0.00    -0.351 OA
BRANCH  23  24
HETATM   24  C16 UNL     1      29.838   5.380  47.975  1.00  0.00     0.176 C 
BRANCH  24  25
HETATM   25  C17 UNL     1      30.639   6.629  47.752  1.00  0.00     0.029 C 
BRANCH  25  26
HETATM   26  C18 UNL     1      31.912   6.615  48.487  1.00  0.00     0.037 C 
BRANCH  26  27
HETATM   27  C19 UNL     1      32.838   5.477  48.335  1.00  0.00     0.161 C 
HETATM   28  C20 UNL     1      33.427   5.273  46.961  1.00  0.00     0.154 C 
HETATM   29  N4  UNL     1      34.555   4.858  47.738  1.00  0.00    -0.198 NA
HETATM   30  C21 UNL     1      34.813   3.466  47.894  1.00  0.00     0.143 C 
HETATM   31  O3  UNL     1      34.126   5.543  48.784  1.00  0.00    -0.297 OA
ENDBRANCH  26  27
ENDBRANCH  25  26
ENDBRANCH  24  25
ENDBRANCH  23  24
ENDBRANCH  11  23
TORSDOF 8
ENDMDL
MODEL 9
REMARK VINA RESULT:      -7.6      2.199      4.802
REMARK  8 active torsions:
REMARK  status: ('A' for Active; 'I' for Inactive)
REMARK    1  A    between atoms: C6_8  and  N3_9 
REMARK    2  A    between atoms: N3_9  and  C7_10 
REMARK    3  A    between atoms: C11_15  and  O1_16 
REMARK    4  A    between atoms: C15_20  and  O2_21 
REMARK    5  A    between atoms: O2_21  and  C16_22 
REMARK    6  A    between atoms: C16_22  and  C17_23 
REMARK    7  A    between atoms: C17_23  and  C18_24 
REMARK    8  A    between atoms: C18_24  and  C19_25 
ROOT
HETATM    1  C1  UNL     1      20.796   1.720  48.980  1.00  0.00     0.051 C 
HETATM    2  C2  UNL     1      22.001   1.786  49.887  1.00  0.00    -0.026 A 
HETATM    3  C3  UNL     1      23.003   2.521  49.231  1.00  0.00     0.042 A 
HETATM    4  C4  UNL     1      24.205   2.705  49.876  1.00  0.00     0.072 A 
HETATM    5  N1  UNL     1      25.236   3.405  49.347  1.00  0.00    -0.241 NA
HETATM    6  C5  UNL     1      26.390   3.565  50.030  1.00  0.00     0.236 A 
HETATM    7  N2  UNL     1      26.579   3.043  51.260  1.00  0.00    -0.224 NA
HETATM    8  C6  UNL     1      25.594   2.335  51.846  1.00  0.00     0.142 A 
HETATM    9  C13 UNL     1      24.431   2.187  51.133  1.00  0.00     0.041 A 
HETATM   10  C14 UNL     1      23.423   1.485  51.719  1.00  0.00     0.055 A 
HETATM   11  C15 UNL     1      22.188   1.240  51.171  1.00  0.00     0.075 A 
ENDROOT
BRANCH   8  12
HETATM   12  N3  UNL     1      25.868   1.828  53.140  1.00  0.00    -0.340 N 
HETATM   13  H6  UNL     1      25.388   2.106  54.020  1.00  0.00     0.167 HD
BRANCH  12  14
HETATM   14  C7  UNL     1      26.908   0.832  53.241  1.00  0.00     0.036 A 
HETATM   15  C8  UNL     1      28.191   1.186  53.617  1.00  0.00     0.032 A 
HETATM   16  C9  UNL     1      29.158   0.196  53.683  1.00  0.00     0.047 A 
HETATM   17  C10 UNL     1      28.916  -1.130  53.396  1.00  0.00     0.149 A 
HETATM   18  F1  UNL     1      29.888  -2.083  53.466  1.00  0.00    -0.203 F 
HETATM   19  C11 UNL     1      27.641  -1.476  53.025  1.00  0.00     0.106 A 
HETATM   20  C12 UNL     1      26.648  -0.511  52.946  1.00  0.00     0.069 A 
BRANCH  19  21
HETATM   21  O1  UNL     1      27.397  -2.802  52.736  1.00  0.00    -0.358 OA
HETATM   22  H9  UNL     1      26.504  -3.218  52.849  1.00  0.00     0.217 HD
ENDBRANCH  19  21
ENDBRANCH  12  14
ENDBRANCH   8  12
BRANCH  11  23
HETATM   23  O2  UNL     1      21.055   0.626  51.471  1.00  0.00    -0.351 OA
BRANCH  23  24
HETATM   24  C16 UNL     1      20.465   0.158  52.633  1.00  0.00     0.176 C 
BRANCH  24  25
HETATM   25  C17 UNL     1      19.044  -0.282  52.437  1.00  0.00     0.029 C 
BRANCH  25  26
HETATM   26  C18 UNL     1      18.403   0.389  51.297  1.00  0.00     0.037 C 
BRANCH  26  27
HETATM   27  C19 UNL     1      17.629   1.626  51.509  1.00  0.00     0.161 C 
HETATM   28  C20 UNL     1      18.423   2.906  51.594  1.00  0.00     0.154 C 
HETATM   29  N4  UNL     1      17.261   3.421  50.938  1.00  0.00    -0.198 NA
HETATM   30  C21 UNL     1      16.298   4.141  51.702  1.00  0.00     0.143 C 
HETATM   31  O3  UNL     1      16.942   2.220  50.490  1.00  0.00    -0.297 OA
ENDBRANCH  26  27
ENDBRANCH  25  26
ENDBRANCH  24  25
ENDBRANCH  23  24
ENDBRANCH  11  23
TORSDOF 8
ENDMDL
