MODEL 1
REMARK VINA RESULT:      -7.9      0.000      0.000
REMARK  0 active torsions:
REMARK  status: ('A' for Active; 'I' for Inactive)
ROOT
HETATM    1  F1  UNL     1      19.625   2.117  49.553  1.00  0.00    -0.374 F 
HETATM    2  C1  UNL     1      19.011   1.155  50.216  1.00  0.00     0.145 A 
HETATM    3  C2  UNL     1      20.239   1.694  50.467  1.00  0.00     0.232 A 
HETATM    4  S1  UNL     1      21.496   2.869  50.034  1.00  0.00    -0.106 SA
HETATM    5  C3  UNL     1      22.159   3.819  51.409  1.00  0.00     0.251 C 
HETATM    6  O1  UNL     1      22.814   2.910  52.293  1.00  0.00    -0.352 OA
HETATM    7  C4  UNL     1      24.071   2.414  52.048  1.00  0.00     0.149 C 
HETATM    8  C5  UNL     1      24.587   1.224  52.428  1.00  0.00     0.014 A 
HETATM    9  C6  UNL     1      25.874   1.222  51.931  1.00  0.00     0.017 A 
HETATM   10  C7  UNL     1      26.823   0.221  52.041  1.00  0.00     0.020 A 
HETATM   11  C8  UNL     1      26.403  -0.878  52.730  1.00  0.00     0.117 A 
HETATM   12  N1  UNL     1      25.170  -0.893  53.215  1.00  0.00    -0.261 NA
HETATM   13  C9  UNL     1      24.269   0.086  53.097  1.00  0.00     0.065 A 
HETATM   14  C10 UNL     1      23.192  -0.352  53.773  1.00  0.00     0.010 C 
HETATM   15  C11 UNL     1      21.877   0.221  54.079  1.00  0.00     0.058 C 
HETATM   16  C12 UNL     1      20.784  -0.726  54.348  1.00  0.00    -0.003 C 
HETATM   17  C13 UNL     1      19.697  -0.892  53.582  1.00  0.00     0.011 A 
HETATM   18 CL1  UNL     1      18.208  -1.798  53.458  1.00  0.00    -0.176 Cl
HETATM   19  C14 UNL     1      18.917  -0.516  52.378  1.00  0.00     0.122 A 
HETATM   20  C15 UNL     1      18.866   0.236  51.326  1.00  0.00     0.061 C 
ENDROOT
TORSDOF 0
ENDMDL
MODEL 2
REMARK VINA RESULT:      -7.6      3.948      5.961
REMARK  0 active torsions:
REMARK  status: ('A' for Active; 'I' for Inactive)
ROOT
HETATM    1  F1  UNL     1      21.805   5.828  51.496  1.00  0.00    -0.374 F 
HETATM    2  C1  UNL     1      22.818   6.442  50.912  1.00  0.00     0.145 A 
HETATM    3  C2  UNL     1      22.730   5.130  51.277  1.00  0.00     0.232 A 
HETATM    4  S1  UNL     1      21.778   3.817  51.995  1.00  0.00    -0.106 SA
HETATM    5  C3  UNL     1      21.763   2.282  51.056  1.00  0.00     0.251 C 
HETATM    6  O1  UNL     1      23.096   1.776  51.024  1.00  0.00    -0.352 OA
HETATM    7  C4  UNL     1      23.660   1.106  52.081  1.00  0.00     0.149 C 
HETATM    8  C5  UNL     1      24.964   1.050  52.434  1.00  0.00     0.014 A 
HETATM    9  C6  UNL     1      24.992   0.252  53.559  1.00  0.00     0.017 A 
HETATM   10  C7  UNL     1      26.093  -0.110  54.313  1.00  0.00     0.020 A 
HETATM   11  C8  UNL     1      27.276   0.399  53.862  1.00  0.00     0.117 A 
HETATM   12  N1  UNL     1      27.267   1.167  52.783  1.00  0.00    -0.261 NA
HETATM   13  C9  UNL     1      26.190   1.504  52.068  1.00  0.00     0.065 A 
HETATM   14  C10 UNL     1      26.667   2.251  51.056  1.00  0.00     0.010 C 
HETATM   15  C11 UNL     1      26.054   2.906  49.896  1.00  0.00     0.058 C 
HETATM   16  C12 UNL     1      26.767   4.063  49.331  1.00  0.00    -0.003 C 
HETATM   17  C13 UNL     1      26.318   5.326  49.334  1.00  0.00     0.011 A 
HETATM   18 CL1  UNL     1      26.725   6.948  48.828  1.00  0.00    -0.176 Cl
HETATM   19  C14 UNL     1      25.260   6.302  49.692  1.00  0.00     0.122 A 
HETATM   20  C15 UNL     1      24.103   6.473  50.248  1.00  0.00     0.061 C 
ENDROOT
TORSDOF 0
ENDMDL
MODEL 3
REMARK VINA RESULT:      -7.4      0.979      1.111
REMARK  0 active torsions:
REMARK  status: ('A' for Active; 'I' for Inactive)
ROOT
HETATM    1  F1  UNL     1      20.367   3.789  49.633  1.00  0.00    -0.374 F 
HETATM    2  C1  UNL     1      19.567   2.786  49.945  1.00  0.00     0.145 A 
HETATM    3  C2  UNL     1      20.793   3.075  50.469  1.00  0.00     0.232 A 
HETATM    4  S1  UNL     1      22.213   4.138  50.509  1.00  0.00    -0.106 SA
HETATM    5  C3  UNL     1      22.759   4.621  52.153  1.00  0.00     0.251 C 
HETATM    6  O1  UNL     1      23.181   3.442  52.838  1.00  0.00    -0.352 OA
HETATM    7  C4  UNL     1      24.402   2.856  52.620  1.00  0.00     0.149 C 
HETATM    8  C5  UNL     1      24.734   1.550  52.733  1.00  0.00     0.014 A 
HETATM    9  C6  UNL     1      26.073   1.496  52.406  1.00  0.00     0.017 A 
HETATM   10  C7  UNL     1      26.889   0.380  52.359  1.00  0.00     0.020 A 
HETATM   11  C8  UNL     1      26.262  -0.788  52.683  1.00  0.00     0.117 A 
HETATM   12  N1  UNL     1      24.977  -0.754  53.000  1.00  0.00    -0.261 NA
HETATM   13  C9  UNL     1      24.207   0.337  53.038  1.00  0.00     0.065 A 
HETATM   14  C10 UNL     1      23.002  -0.103  53.445  1.00  0.00     0.010 C 
HETATM   15  C11 UNL     1      21.722   0.550  53.735  1.00  0.00     0.058 C 
HETATM   16  C12 UNL     1      20.511  -0.277  53.617  1.00  0.00    -0.003 C 
HETATM   17  C13 UNL     1      19.538  -0.100  52.713  1.00  0.00     0.011 A 
HETATM   18 CL1  UNL     1      17.999  -0.737  52.182  1.00  0.00    -0.176 Cl
HETATM   19  C14 UNL     1      18.986   0.663  51.567  1.00  0.00     0.122 A 
HETATM   20  C15 UNL     1      19.168   1.650  50.750  1.00  0.00     0.061 C 
ENDROOT
TORSDOF 0
ENDMDL
MODEL 4
REMARK VINA RESULT:      -7.3      3.452      5.420
REMARK  0 active torsions:
REMARK  status: ('A' for Active; 'I' for Inactive)
ROOT
HETATM    1  F1  UNL     1      26.557   0.381  54.512  1.00  0.00    -0.374 F 
HETATM    2  C1  UNL     1      25.447  -0.296  54.737  1.00  0.00     0.145 A 
HETATM    3  C2  UNL     1      25.655   0.693  53.821  1.00  0.00     0.232 A 
HETATM    4  S1  UNL     1      26.762   1.864  53.079  1.00  0.00    -0.106 SA
HETATM    5  C3  UNL     1      26.751   1.891  51.280  1.00  0.00     0.251 C 
HETATM    6  O1  UNL     1      25.455   2.313  50.858  1.00  0.00    -0.352 OA
HETATM    7  C4  UNL     1      25.065   3.629  50.866  1.00  0.00     0.149 C 
HETATM    8  C5  UNL     1      23.820   4.130  51.028  1.00  0.00     0.014 A 
HETATM    9  C6  UNL     1      23.977   5.499  50.955  1.00  0.00     0.017 A 
HETATM   10  C7  UNL     1      23.000   6.471  51.070  1.00  0.00     0.020 A 
HETATM   11  C8  UNL     1      21.744   5.982  51.280  1.00  0.00     0.117 A 
HETATM   12  N1  UNL     1      21.575   4.671  51.352  1.00  0.00    -0.261 NA
HETATM   13  C9  UNL     1      22.534   3.749  51.237  1.00  0.00     0.065 A 
HETATM   14  C10 UNL     1      21.894   2.569  51.336  1.00  0.00     0.010 C 
HETATM   15  C11 UNL     1      22.321   1.168  51.259  1.00  0.00     0.058 C 
HETATM   16  C12 UNL     1      21.478   0.178  51.947  1.00  0.00    -0.003 C 
HETATM   17  C13 UNL     1      21.850  -0.551  53.009  1.00  0.00     0.011 A 
HETATM   18 CL1  UNL     1      21.290  -1.782  54.117  1.00  0.00    -0.176 Cl
HETATM   19  C14 UNL     1      22.885  -0.914  54.007  1.00  0.00     0.122 A 
HETATM   20  C15 UNL     1      24.089  -0.695  54.429  1.00  0.00     0.061 C 
ENDROOT
TORSDOF 0
ENDMDL
MODEL 5
REMARK VINA RESULT:      -7.0      2.742      3.780
REMARK  0 active torsions:
REMARK  status: ('A' for Active; 'I' for Inactive)
ROOT
HETATM    1  F1  UNL     1      19.332   2.093  49.859  1.00  0.00    -0.374 F 
HETATM    2  C1  UNL     1      19.787   1.042  50.516  1.00  0.00     0.145 A 
HETATM    3  C2  UNL     1      20.401   2.246  50.330  1.00  0.00     0.232 A 
HETATM    4  S1  UNL     1      20.353   3.884  49.651  1.00  0.00    -0.106 SA
HETATM    5  C3  UNL     1      20.848   5.194  50.780  1.00  0.00     0.251 C 
HETATM    6  O1  UNL     1      22.220   4.989  51.113  1.00  0.00    -0.352 OA
HETATM    7  C4  UNL     1      23.247   5.345  50.274  1.00  0.00     0.149 C 
HETATM    8  C5  UNL     1      24.469   4.777  50.163  1.00  0.00     0.014 A 
HETATM    9  C6  UNL     1      25.111   5.506  49.184  1.00  0.00     0.017 A 
HETATM   10  C7  UNL     1      26.389   5.320  48.690  1.00  0.00     0.020 A 
HETATM   11  C8  UNL     1      27.067   4.284  49.262  1.00  0.00     0.117 A 
HETATM   12  N1  UNL     1      26.467   3.574  50.204  1.00  0.00    -0.261 NA
HETATM   13  C9  UNL     1      25.230   3.771  50.667  1.00  0.00     0.065 A 
HETATM   14  C10 UNL     1      25.069   2.846  51.631  1.00  0.00     0.010 C 
HETATM   15  C11 UNL     1      23.984   2.523  52.564  1.00  0.00     0.058 C 
HETATM   16  C12 UNL     1      23.934   1.145  53.074  1.00  0.00    -0.003 C 
HETATM   17  C13 UNL     1      22.963   0.258  52.815  1.00  0.00     0.011 A 
HETATM   18 CL1  UNL     1      22.446  -1.378  53.150  1.00  0.00    -0.176 Cl
HETATM   19  C14 UNL     1      21.680  -0.068  52.147  1.00  0.00     0.122 A 
HETATM   20  C15 UNL     1      20.730   0.366  51.381  1.00  0.00     0.061 C 
ENDROOT
TORSDOF 0
ENDMDL
MODEL 6
REMARK VINA RESULT:      -7.0      8.932     11.308
REMARK  0 active torsions:
REMARK  status: ('A' for Active; 'I' for Inactive)
ROOT
HETATM    1  F1  UNL     1      28.713  11.384  49.272  1.00  0.00    -0.374 F 
HETATM    2  C1  UNL     1      29.932  10.879  49.319  1.00  0.00     0.145 A 
HETATM    3  C2  UNL     1      28.778  10.249  48.958  1.00  0.00     0.232 A 
HETATM    4  S1  UNL     1      27.025  10.330  48.693  1.00  0.00    -0.106 SA
HETATM    5  C3  UNL     1      26.453   9.614  47.146  1.00  0.00     0.251 C 
HETATM    6  O1  UNL     1      26.741   8.217  47.178  1.00  0.00    -0.352 OA
HETATM    7  C4  UNL     1      25.967   7.315  47.864  1.00  0.00     0.149 C 
HETATM    8  C5  UNL     1      26.349   6.150  48.434  1.00  0.00     0.014 A 
HETATM    9  C6  UNL     1      25.197   5.634  48.991  1.00  0.00     0.017 A 
HETATM   10  C7  UNL     1      25.053   4.455  49.699  1.00  0.00     0.020 A 
HETATM   11  C8  UNL     1      26.207   3.743  49.845  1.00  0.00     0.117 A 
HETATM   12  N1  UNL     1      27.322   4.223  49.315  1.00  0.00    -0.261 NA
HETATM   13  C9  UNL     1      27.439   5.365  48.634  1.00  0.00     0.065 A 
HETATM   14  C10 UNL     1      28.731   5.417  48.262  1.00  0.00     0.010 C 
HETATM   15  C11 UNL     1      29.528   6.359  47.471  1.00  0.00     0.058 C 
HETATM   16  C12 UNL     1      30.975   6.390  47.732  1.00  0.00    -0.003 C 
HETATM   17  C13 UNL     1      31.646   7.427  48.253  1.00  0.00     0.011 A 
HETATM   18 CL1  UNL     1      33.244   7.956  48.722  1.00  0.00    -0.176 Cl
HETATM   19  C14 UNL     1      31.639   8.810  48.790  1.00  0.00     0.122 A 
HETATM   20  C15 UNL     1      30.916   9.846  49.073  1.00  0.00     0.061 C 
ENDROOT
TORSDOF 0
ENDMDL
MODEL 7
REMARK VINA RESULT:      -6.9      5.731      6.910
REMARK  0 active torsions:
REMARK  status: ('A' for Active; 'I' for Inactive)
ROOT
HETATM    1  F1  UNL     1      21.656   6.122  45.322  1.00  0.00    -0.374 F 
HETATM    2  C1  UNL     1      21.478   4.883  45.741  1.00  0.00     0.145 A 
HETATM    3  C2  UNL     1      22.399   5.791  46.175  1.00  0.00     0.232 A 
HETATM    4  S1  UNL     1      23.088   7.422  46.066  1.00  0.00    -0.106 SA
HETATM    5  C3  UNL     1      23.345   8.250  47.642  1.00  0.00     0.251 C 
HETATM    6  O1  UNL     1      24.317   7.504  48.374  1.00  0.00    -0.352 OA
HETATM    7  C4  UNL     1      25.663   7.595  48.123  1.00  0.00     0.149 C 
HETATM    8  C5  UNL     1      26.611   6.646  48.298  1.00  0.00     0.014 A 
HETATM    9  C6  UNL     1      27.788   7.244  47.898  1.00  0.00     0.017 A 
HETATM   10  C7  UNL     1      29.055   6.690  47.875  1.00  0.00     0.020 A 
HETATM   11  C8  UNL     1      29.110   5.397  48.306  1.00  0.00     0.117 A 
HETATM   12  N1  UNL     1      27.989   4.807  48.695  1.00  0.00    -0.261 NA
HETATM   13  C9  UNL     1      26.775   5.363  48.709  1.00  0.00     0.065 A 
HETATM   14  C10 UNL     1      25.965   4.413  49.211  1.00  0.00     0.010 C 
HETATM   15  C11 UNL     1      24.536   4.356  49.534  1.00  0.00     0.058 C 
HETATM   16  C12 UNL     1      23.906   3.027  49.538  1.00  0.00    -0.003 C 
HETATM   17  C13 UNL     1      22.961   2.615  48.682  1.00  0.00     0.011 A 
HETATM   18 CL1  UNL     1      21.945   1.250  48.282  1.00  0.00    -0.176 Cl
HETATM   19  C14 UNL     1      22.078   2.899  47.524  1.00  0.00     0.122 A 
HETATM   20  C15 UNL     1      21.721   3.773  46.638  1.00  0.00     0.061 C 
ENDROOT
TORSDOF 0
ENDMDL
MODEL 8
REMARK VINA RESULT:      -6.8      4.183      6.549
REMARK  0 active torsions:
REMARK  status: ('A' for Active; 'I' for Inactive)
ROOT
HETATM    1  F1  UNL     1      27.145   3.143  49.797  1.00  0.00    -0.374 F 
HETATM    2  C1  UNL     1      26.565   4.221  49.302  1.00  0.00     0.145 A 
HETATM    3  C2  UNL     1      26.098   3.390  50.279  1.00  0.00     0.232 A 
HETATM    4  S1  UNL     1      26.344   1.958  51.296  1.00  0.00    -0.106 SA
HETATM    5  C3  UNL     1      26.000   2.195  53.045  1.00  0.00     0.251 C 
HETATM    6  O1  UNL     1      24.611   2.491  53.181  1.00  0.00    -0.352 OA
HETATM    7  C4  UNL     1      23.639   1.522  53.136  1.00  0.00     0.149 C 
HETATM    8  C5  UNL     1      22.359   1.643  52.717  1.00  0.00     0.014 A 
HETATM    9  C6  UNL     1      21.815   0.385  52.876  1.00  0.00     0.017 A 
HETATM   10  C7  UNL     1      20.527  -0.025  52.581  1.00  0.00     0.020 A 
HETATM   11  C8  UNL     1      19.727   0.958  52.076  1.00  0.00     0.117 A 
HETATM   12  N1  UNL     1      20.233   2.172  51.917  1.00  0.00    -0.261 NA
HETATM   13  C9  UNL     1      21.482   2.546  52.209  1.00  0.00     0.065 A 
HETATM   14  C10 UNL     1      21.526   3.860  51.924  1.00  0.00     0.010 C 
HETATM   15  C11 UNL     1      22.558   4.895  52.040  1.00  0.00     0.058 C 
HETATM   16  C12 UNL     1      22.441   6.055  51.143  1.00  0.00    -0.003 C 
HETATM   17  C13 UNL     1      23.303   6.367  50.165  1.00  0.00     0.011 A 
HETATM   18 CL1  UNL     1      23.620   7.545  48.913  1.00  0.00    -0.176 Cl
HETATM   19  C14 UNL     1      24.543   6.058  49.412  1.00  0.00     0.122 A 
HETATM   20  C15 UNL     1      25.543   5.246  49.281  1.00  0.00     0.061 C 
ENDROOT
TORSDOF 0
ENDMDL
MODEL 9
REMARK VINA RESULT:      -6.7      3.978      5.745
REMARK  0 active torsions:
REMARK  status: ('A' for Active; 'I' for Inactive)
ROOT
HETATM    1  F1  UNL     1      24.363   0.993  53.696  1.00  0.00    -0.374 F 
HETATM    2  C1  UNL     1      23.148   0.735  53.250  1.00  0.00     0.145 A 
HETATM    3  C2  UNL     1      24.121   1.479  52.651  1.00  0.00     0.232 A 
HETATM    4  S1  UNL     1      25.769   2.134  52.688  1.00  0.00    -0.106 SA
HETATM    5  C3  UNL     1      26.708   1.927  51.168  1.00  0.00     0.251 C 
HETATM    6  O1  UNL     1      26.054   2.676  50.145  1.00  0.00    -0.352 OA
HETATM    7  C4  UNL     1      26.185   4.037  50.024  1.00  0.00     0.149 C 
HETATM    8  C5  UNL     1      25.292   4.921  49.526  1.00  0.00     0.014 A 
HETATM    9  C6  UNL     1      25.912   6.149  49.632  1.00  0.00     0.017 A 
HETATM   10  C7  UNL     1      25.412   7.385  49.266  1.00  0.00     0.020 A 
HETATM   11  C8  UNL     1      24.153   7.349  48.741  1.00  0.00     0.117 A 
HETATM   12  N1  UNL     1      23.543   6.178  48.631  1.00  0.00    -0.261 NA
HETATM   13  C9  UNL     1      24.046   4.994  48.991  1.00  0.00     0.065 A 
HETATM   14  C10 UNL     1      23.097   4.100  48.660  1.00  0.00     0.010 C 
HETATM   15  C11 UNL     1      23.001   2.639  48.738  1.00  0.00     0.058 C 
HETATM   16  C12 UNL     1      21.649   2.063  48.807  1.00  0.00    -0.003 C 
HETATM   17  C13 UNL     1      21.142   1.401  49.856  1.00  0.00     0.011 A 
HETATM   18 CL1  UNL     1      19.712   0.566  50.415  1.00  0.00    -0.176 Cl
HETATM   19  C14 UNL     1      21.312   0.865  51.228  1.00  0.00     0.122 A 
HETATM   20  C15 UNL     1      22.110   0.747  52.241  1.00  0.00     0.061 C 
ENDROOT
TORSDOF 0
ENDMDL
