MODEL 1
REMARK VINA RESULT:      -7.5      0.000      0.000
REMARK  5 active torsions:
REMARK  status: ('A' for Active; 'I' for Inactive)
REMARK    1  A    between atoms: N1_2  and  C2_3 
REMARK    2  A    between atoms: C5_6  and  O1_7 
REMARK    3  A    between atoms: O1_7  and  C6_8 
REMARK    4  A    between atoms: C9_11  and  N2_12 
REMARK       I    between atoms: N2_12  and  C10_13 
REMARK    5  A    between atoms: C17_23  and  O3_24 
ROOT
HETATM    1  C2  UNL     1      26.072  -0.010  54.233  1.00  0.00     0.062 A 
HETATM    2  C3  UNL     1      25.145   0.881  53.715  1.00  0.00     0.050 A 
HETATM    3  C4  UNL     1      25.395   1.732  52.653  1.00  0.00     0.048 A 
HETATM    4  C5  UNL     1      24.416   2.573  52.214  1.00  0.00     0.183 A 
HETATM    5  N3  UNL     1      24.705   3.387  51.175  1.00  0.00    -0.217 NA
HETATM    6  C14 UNL     1      25.925   3.351  50.608  1.00  0.00     0.236 A 
HETATM    7  N4  UNL     1      26.899   2.516  51.041  1.00  0.00    -0.241 NA
HETATM    8  C15 UNL     1      26.662   1.688  52.072  1.00  0.00     0.075 A 
HETATM    9  C16 UNL     1      27.609   0.815  52.560  1.00  0.00     0.071 A 
HETATM   10  C17 UNL     1      27.321  -0.021  53.622  1.00  0.00     0.096 A 
ENDROOT
BRANCH   4  11
HETATM   11  O1  UNL     1      23.160   2.585  52.826  1.00  0.00    -0.291 OA
BRANCH  11  12
HETATM   12  C6  UNL     1      22.064   2.151  52.066  1.00  0.00     0.078 A 
HETATM   13  C7  UNL     1      22.030   0.949  51.398  1.00  0.00     0.039 A 
HETATM   14  C8  UNL     1      20.908   0.599  50.670  1.00  0.00     0.032 A 
HETATM   15  C9  UNL     1      19.822   1.437  50.605  1.00  0.00     0.034 A 
HETATM   16  C12 UNL     1      19.830   2.648  51.267  1.00  0.00     0.032 A 
HETATM   17  C13 UNL     1      20.952   2.991  51.990  1.00  0.00     0.039 A 
BRANCH  15  18
HETATM   18  N2  UNL     1      18.771   0.877  49.797  1.00  0.00    -0.328 N 
HETATM   19  C10 UNL     1      17.692   0.143  50.349  1.00  0.00     0.218 C 
HETATM   20  C11 UNL     1      16.634  -0.416  49.481  1.00  0.00     0.117 C 
HETATM   21  O2  UNL     1      17.692  -0.000  51.590  1.00  0.00    -0.274 OA
HETATM   22  H8  UNL     1      18.865   1.055  48.764  1.00  0.00     0.169 HD
ENDBRANCH  15  18
ENDBRANCH  11  12
ENDBRANCH   4  11
BRANCH   1  23
HETATM   23  N1  UNL     1      25.744  -0.861  55.332  1.00  0.00    -0.392 N 
HETATM   24  C1  UNL     1      24.361  -1.248  55.520  1.00  0.00     0.146 C 
HETATM   25  H4  UNL     1      26.540  -1.154  55.941  1.00  0.00     0.159 HD
ENDBRANCH   1  23
BRANCH  10  26
HETATM   26  O3  UNL     1      28.234  -0.912  54.149  1.00  0.00    -0.354 OA
HETATM   27  C18 UNL     1      29.585  -0.923  53.749  1.00  0.00     0.210 C 
ENDBRANCH  10  26
TORSDOF 5
ENDMDL
MODEL 2
REMARK VINA RESULT:      -7.4      2.201      8.080
REMARK  5 active torsions:
REMARK  status: ('A' for Active; 'I' for Inactive)
REMARK    1  A    between atoms: N1_2  and  C2_3 
REMARK    2  A    between atoms: C5_6  and  O1_7 
REMARK    3  A    between atoms: O1_7  and  C6_8 
REMARK    4  A    between atoms: C9_11  and  N2_12 
REMARK       I    between atoms: N2_12  and  C10_13 
REMARK    5  A    between atoms: C17_23  and  O3_24 
ROOT
HETATM    1  C2  UNL     1      18.033  -0.763  52.685  1.00  0.00     0.062 A 
HETATM    2  C3  UNL     1      19.263  -0.131  52.788  1.00  0.00     0.050 A 
HETATM    3  C4  UNL     1      19.827   0.639  51.786  1.00  0.00     0.048 A 
HETATM    4  C5  UNL     1      21.044   1.222  51.983  1.00  0.00     0.183 A 
HETATM    5  N3  UNL     1      21.557   1.964  50.977  1.00  0.00    -0.217 NA
HETATM    6  C14 UNL     1      20.871   2.109  49.829  1.00  0.00     0.236 A 
HETATM    7  N4  UNL     1      19.662   1.533  49.630  1.00  0.00    -0.241 NA
HETATM    8  C15 UNL     1      19.110   0.784  50.599  1.00  0.00     0.075 A 
HETATM    9  C16 UNL     1      17.885   0.171  50.460  1.00  0.00     0.071 A 
HETATM   10  C17 UNL     1      17.353  -0.590  51.484  1.00  0.00     0.096 A 
ENDROOT
BRANCH   4  11
HETATM   11  O1  UNL     1      21.729   1.050  53.190  1.00  0.00    -0.291 OA
BRANCH  11  12
HETATM   12  C6  UNL     1      23.104   0.782  53.121  1.00  0.00     0.078 A 
HETATM   13  C7  UNL     1      23.639  -0.480  53.228  1.00  0.00     0.039 A 
HETATM   14  C8  UNL     1      25.009  -0.655  53.151  1.00  0.00     0.032 A 
HETATM   15  C9  UNL     1      25.845   0.418  52.966  1.00  0.00     0.034 A 
HETATM   16  C12 UNL     1      25.334   1.695  52.854  1.00  0.00     0.032 A 
HETATM   17  C13 UNL     1      23.967   1.862  52.934  1.00  0.00     0.039 A 
BRANCH  15  18
HETATM   18  N2  UNL     1      27.224   0.010  52.913  1.00  0.00    -0.328 N 
HETATM   19  C10 UNL     1      28.097   0.123  54.023  1.00  0.00     0.218 C 
HETATM   20  C11 UNL     1      29.508  -0.308  53.924  1.00  0.00     0.117 C 
HETATM   21  O2  UNL     1      27.610   0.602  55.069  1.00  0.00    -0.274 OA
HETATM   22  H8  UNL     1      27.534  -0.380  51.985  1.00  0.00     0.169 HD
ENDBRANCH  15  18
ENDBRANCH  11  12
ENDBRANCH   4  11
BRANCH   1  23
HETATM   23  N1  UNL     1      17.511  -1.543  53.761  1.00  0.00    -0.392 N 
HETATM   24  C1  UNL     1      17.836  -2.953  53.815  1.00  0.00     0.146 C 
HETATM   25  H4  UNL     1      16.917  -1.035  54.453  1.00  0.00     0.159 HD
ENDBRANCH   1  23
BRANCH  10  26
HETATM   26  O3  UNL     1      16.131  -1.226  51.395  1.00  0.00    -0.354 OA
HETATM   27  C18 UNL     1      14.916  -0.515  51.408  1.00  0.00     0.210 C 
ENDBRANCH  10  26
TORSDOF 5
ENDMDL
MODEL 3
REMARK VINA RESULT:      -7.2      3.179      4.372
REMARK  5 active torsions:
REMARK  status: ('A' for Active; 'I' for Inactive)
REMARK    1  A    between atoms: N1_2  and  C2_3 
REMARK    2  A    between atoms: C5_6  and  O1_7 
REMARK    3  A    between atoms: O1_7  and  C6_8 
REMARK    4  A    between atoms: C9_11  and  N2_12 
REMARK       I    between atoms: N2_12  and  C10_13 
REMARK    5  A    between atoms: C17_23  and  O3_24 
ROOT
HETATM    1  C2  UNL     1      26.485   1.581  53.905  1.00  0.00     0.062 A 
HETATM    2  C3  UNL     1      25.298   2.115  53.426  1.00  0.00     0.050 A 
HETATM    3  C4  UNL     1      24.172   1.367  53.136  1.00  0.00     0.048 A 
HETATM    4  C5  UNL     1      23.049   1.985  52.670  1.00  0.00     0.183 A 
HETATM    5  N3  UNL     1      21.973   1.214  52.399  1.00  0.00    -0.217 NA
HETATM    6  C14 UNL     1      22.029  -0.116  52.592  1.00  0.00     0.236 A 
HETATM    7  N4  UNL     1      23.142  -0.733  53.056  1.00  0.00    -0.241 NA
HETATM    8  C15 UNL     1      24.239  -0.011  53.339  1.00  0.00     0.075 A 
HETATM    9  C16 UNL     1      25.402  -0.577  53.813  1.00  0.00     0.071 A 
HETATM   10  C17 UNL     1      26.507   0.204  54.092  1.00  0.00     0.096 A 
ENDROOT
BRANCH   4  11
HETATM   11  O1  UNL     1      23.025   3.370  52.481  1.00  0.00    -0.291 OA
BRANCH  11  12
HETATM   12  C6  UNL     1      22.843   3.842  51.173  1.00  0.00     0.078 A 
HETATM   13  C7  UNL     1      21.676   4.416  50.727  1.00  0.00     0.039 A 
HETATM   14  C8  UNL     1      21.581   4.856  49.419  1.00  0.00     0.032 A 
HETATM   15  C9  UNL     1      22.642   4.728  48.556  1.00  0.00     0.034 A 
HETATM   16  C12 UNL     1      23.826   4.156  48.979  1.00  0.00     0.032 A 
HETATM   17  C13 UNL     1      23.912   3.720  50.284  1.00  0.00     0.039 A 
BRANCH  15  18
HETATM   18  N2  UNL     1      22.327   5.248  47.252  1.00  0.00    -0.328 N 
HETATM   19  C10 UNL     1      21.979   4.416  46.160  1.00  0.00     0.218 C 
HETATM   20  C11 UNL     1      21.664   4.995  44.837  1.00  0.00     0.117 C 
HETATM   21  O2  UNL     1      21.957   3.186  46.382  1.00  0.00    -0.274 OA
HETATM   22  H8  UNL     1      22.376   6.298  47.172  1.00  0.00     0.169 HD
ENDBRANCH  15  18
ENDBRANCH  11  12
ENDBRANCH   4  11
BRANCH   1  23
HETATM   23  N1  UNL     1      27.610   2.415  54.184  1.00  0.00    -0.392 N 
HETATM   24  C1  UNL     1      28.638   2.553  53.172  1.00  0.00     0.146 C 
HETATM   25  H4  UNL     1      27.620   2.880  55.118  1.00  0.00     0.159 HD
ENDBRANCH   1  23
BRANCH  10  26
HETATM   26  O3  UNL     1      27.695  -0.314  54.568  1.00  0.00    -0.354 OA
HETATM   27  C18 UNL     1      28.628  -0.943  53.721  1.00  0.00     0.210 C 
ENDBRANCH  10  26
TORSDOF 5
ENDMDL
MODEL 4
REMARK VINA RESULT:      -7.2      6.118      8.514
REMARK  5 active torsions:
REMARK  status: ('A' for Active; 'I' for Inactive)
REMARK    1  A    between atoms: N1_2  and  C2_3 
REMARK    2  A    between atoms: C5_6  and  O1_7 
REMARK    3  A    between atoms: O1_7  and  C6_8 
REMARK    4  A    between atoms: C9_11  and  N2_12 
REMARK       I    between atoms: N2_12  and  C10_13 
REMARK    5  A    between atoms: C17_23  and  O3_24 
ROOT
HETATM    1  C2  UNL     1      32.009   5.089  47.852  1.00  0.00     0.062 A 
HETATM    2  C3  UNL     1      30.744   5.656  47.829  1.00  0.00     0.050 A 
HETATM    3  C4  UNL     1      30.445   6.908  48.336  1.00  0.00     0.048 A 
HETATM    4  C5  UNL     1      29.167   7.380  48.266  1.00  0.00     0.183 A 
HETATM    5  N3  UNL     1      28.921   8.607  48.774  1.00  0.00    -0.217 NA
HETATM    6  C14 UNL     1      29.919   9.322  49.326  1.00  0.00     0.236 A 
HETATM    7  N4  UNL     1      31.189   8.857  49.396  1.00  0.00    -0.241 NA
HETATM    8  C15 UNL     1      31.485   7.641  48.906  1.00  0.00     0.075 A 
HETATM    9  C16 UNL     1      32.755   7.111  48.946  1.00  0.00     0.071 A 
HETATM   10  C17 UNL     1      33.015   5.856  48.429  1.00  0.00     0.096 A 
ENDROOT
BRANCH   4  11
HETATM   11  O1  UNL     1      28.155   6.610  47.686  1.00  0.00    -0.291 OA
BRANCH  11  12
HETATM   12  C6  UNL     1      27.277   5.939  48.549  1.00  0.00     0.078 A 
HETATM   13  C7  UNL     1      26.212   6.545  49.174  1.00  0.00     0.039 A 
HETATM   14  C8  UNL     1      25.395   5.807  50.011  1.00  0.00     0.032 A 
HETATM   15  C9  UNL     1      25.632   4.472  50.227  1.00  0.00     0.034 A 
HETATM   16  C12 UNL     1      26.693   3.838  49.611  1.00  0.00     0.032 A 
HETATM   17  C13 UNL     1      27.504   4.581  48.779  1.00  0.00     0.039 A 
BRANCH  15  18
HETATM   18  N2  UNL     1      24.664   3.903  51.127  1.00  0.00    -0.328 N 
HETATM   19  C10 UNL     1      23.575   3.116  50.680  1.00  0.00     0.218 C 
HETATM   20  C11 UNL     1      22.603   2.552  51.641  1.00  0.00     0.117 C 
HETATM   21  O2  UNL     1      23.488   2.932  49.447  1.00  0.00    -0.274 OA
HETATM   22  H8  UNL     1      24.828   4.118  52.145  1.00  0.00     0.169 HD
ENDBRANCH  15  18
ENDBRANCH  11  12
ENDBRANCH   4  11
BRANCH   1  23
HETATM   23  N1  UNL     1      32.246   3.790  47.309  1.00  0.00    -0.392 N 
HETATM   24  C1  UNL     1      32.652   3.682  45.922  1.00  0.00     0.146 C 
HETATM   25  H4  UNL     1      32.108   2.986  47.960  1.00  0.00     0.159 HD
ENDBRANCH   1  23
BRANCH  10  26
HETATM   26  O3  UNL     1      34.269   5.279  48.445  1.00  0.00    -0.354 OA
HETATM   27  C18 UNL     1      35.387   5.936  48.993  1.00  0.00     0.210 C 
ENDBRANCH  10  26
TORSDOF 5
ENDMDL
MODEL 5
REMARK VINA RESULT:      -7.2      3.486      7.139
REMARK  5 active torsions:
REMARK  status: ('A' for Active; 'I' for Inactive)
REMARK    1  A    between atoms: N1_2  and  C2_3 
REMARK    2  A    between atoms: C5_6  and  O1_7 
REMARK    3  A    between atoms: O1_7  and  C6_8 
REMARK    4  A    between atoms: C9_11  and  N2_12 
REMARK       I    between atoms: N2_12  and  C10_13 
REMARK    5  A    between atoms: C17_23  and  O3_24 
ROOT
HETATM    1  C2  UNL     1      23.062   1.172  51.676  1.00  0.00     0.062 A 
HETATM    2  C3  UNL     1      24.235   1.665  51.125  1.00  0.00     0.050 A 
HETATM    3  C4  UNL     1      25.399   1.878  51.840  1.00  0.00     0.048 A 
HETATM    4  C5  UNL     1      26.504   2.367  51.206  1.00  0.00     0.183 A 
HETATM    5  N3  UNL     1      27.619   2.560  51.945  1.00  0.00    -0.217 NA
HETATM    6  C14 UNL     1      27.616   2.273  53.259  1.00  0.00     0.236 A 
HETATM    7  N4  UNL     1      26.521   1.788  53.892  1.00  0.00    -0.241 NA
HETATM    8  C15 UNL     1      25.388   1.578  53.202  1.00  0.00     0.075 A 
HETATM    9  C16 UNL     1      24.240   1.087  53.785  1.00  0.00     0.071 A 
HETATM   10  C17 UNL     1      23.096   0.886  53.037  1.00  0.00     0.096 A 
ENDROOT
BRANCH   4  11
HETATM   11  O1  UNL     1      26.471   2.654  49.839  1.00  0.00    -0.291 OA
BRANCH  11  12
HETATM   12  C6  UNL     1      26.406   4.003  49.462  1.00  0.00     0.078 A 
HETATM   13  C7  UNL     1      25.302   4.797  49.663  1.00  0.00     0.039 A 
HETATM   14  C8  UNL     1      25.323   6.120  49.259  1.00  0.00     0.032 A 
HETATM   15  C9  UNL     1      26.436   6.655  48.659  1.00  0.00     0.034 A 
HETATM   16  C12 UNL     1      27.559   5.880  48.447  1.00  0.00     0.032 A 
HETATM   17  C13 UNL     1      27.530   4.562  48.851  1.00  0.00     0.039 A 
BRANCH  15  18
HETATM   18  N2  UNL     1      26.241   8.040  48.323  1.00  0.00    -0.328 N 
HETATM   19  C10 UNL     1      26.619   9.096  49.187  1.00  0.00     0.218 C 
HETATM   20  C11 UNL     1      26.399  10.506  48.801  1.00  0.00     0.117 C 
HETATM   21  O2  UNL     1      27.139   8.768  50.275  1.00  0.00    -0.274 OA
HETATM   22  H8  UNL     1      25.795   8.208  47.384  1.00  0.00     0.169 HD
ENDBRANCH  15  18
ENDBRANCH  11  12
ENDBRANCH   4  11
BRANCH   1  23
HETATM   23  N1  UNL     1      21.895   0.975  50.876  1.00  0.00    -0.392 N 
HETATM   24  C1  UNL     1      21.105   2.132  50.509  1.00  0.00     0.146 C 
HETATM   25  H4  UNL     1      21.684  -0.010  50.603  1.00  0.00     0.159 HD
ENDBRANCH   1  23
BRANCH  10  26
HETATM   26  O3  UNL     1      21.921   0.397  53.572  1.00  0.00    -0.354 OA
HETATM   27  C18 UNL     1      21.909  -0.464  54.686  1.00  0.00     0.210 C 
ENDBRANCH  10  26
TORSDOF 5
ENDMDL
MODEL 6
REMARK VINA RESULT:      -7.1      2.149      2.421
REMARK  5 active torsions:
REMARK  status: ('A' for Active; 'I' for Inactive)
REMARK    1  A    between atoms: N1_2  and  C2_3 
REMARK    2  A    between atoms: C5_6  and  O1_7 
REMARK    3  A    between atoms: O1_7  and  C6_8 
REMARK    4  A    between atoms: C9_11  and  N2_12 
REMARK       I    between atoms: N2_12  and  C10_13 
REMARK    5  A    between atoms: C17_23  and  O3_24 
ROOT
HETATM    1  C2  UNL     1      25.865  -0.095  53.984  1.00  0.00     0.062 A 
HETATM    2  C3  UNL     1      24.946   0.690  53.305  1.00  0.00     0.050 A 
HETATM    3  C4  UNL     1      25.283   1.612  52.329  1.00  0.00     0.048 A 
HETATM    4  C5  UNL     1      24.305   2.338  51.716  1.00  0.00     0.183 A 
HETATM    5  N3  UNL     1      24.680   3.227  50.770  1.00  0.00    -0.217 NA
HETATM    6  C14 UNL     1      25.981   3.373  50.460  1.00  0.00     0.236 A 
HETATM    7  N4  UNL     1      26.955   2.653  51.066  1.00  0.00    -0.241 NA
HETATM    8  C15 UNL     1      26.633   1.757  52.014  1.00  0.00     0.075 A 
HETATM    9  C16 UNL     1      27.575   0.994  52.668  1.00  0.00     0.071 A 
HETATM   10  C17 UNL     1      27.200   0.083  53.637  1.00  0.00     0.096 A 
ENDROOT
BRANCH   4  11
HETATM   11  O1  UNL     1      22.963   2.160  52.064  1.00  0.00    -0.291 OA
BRANCH  11  12
HETATM   12  C6  UNL     1      22.012   2.235  51.036  1.00  0.00     0.078 A 
HETATM   13  C7  UNL     1      21.072   3.234  50.940  1.00  0.00     0.039 A 
HETATM   14  C8  UNL     1      20.169   3.231  49.891  1.00  0.00     0.032 A 
HETATM   15  C9  UNL     1      20.200   2.241  48.940  1.00  0.00     0.034 A 
HETATM   16  C12 UNL     1      21.135   1.228  49.012  1.00  0.00     0.032 A 
HETATM   17  C13 UNL     1      22.031   1.237  50.060  1.00  0.00     0.039 A 
BRANCH  15  18
HETATM   18  N2  UNL     1      19.178   2.433  47.946  1.00  0.00    -0.328 N 
HETATM   19  C10 UNL     1      19.395   3.177  46.760  1.00  0.00     0.218 C 
HETATM   20  C11 UNL     1      18.316   3.350  45.765  1.00  0.00     0.117 C 
HETATM   21  O2  UNL     1      20.535   3.669  46.611  1.00  0.00    -0.274 OA
HETATM   22  H8  UNL     1      18.255   1.978  48.168  1.00  0.00     0.169 HD
ENDBRANCH  15  18
ENDBRANCH  11  12
ENDBRANCH   4  11
BRANCH   1  23
HETATM   23  N1  UNL     1      25.446  -1.027  54.981  1.00  0.00    -0.392 N 
HETATM   24  C1  UNL     1      24.028  -1.172  55.241  1.00  0.00     0.146 C 
HETATM   25  H4  UNL     1      26.204  -1.555  55.467  1.00  0.00     0.159 HD
ENDBRANCH   1  23
BRANCH  10  26
HETATM   26  O3  UNL     1      28.103  -0.704  54.322  1.00  0.00    -0.354 OA
HETATM   27  C18 UNL     1      29.462  -0.772  53.959  1.00  0.00     0.210 C 
ENDBRANCH  10  26
TORSDOF 5
ENDMDL
MODEL 7
REMARK VINA RESULT:      -7.0      3.235      5.494
REMARK  5 active torsions:
REMARK  status: ('A' for Active; 'I' for Inactive)
REMARK    1  A    between atoms: N1_2  and  C2_3 
REMARK    2  A    between atoms: C5_6  and  O1_7 
REMARK    3  A    between atoms: O1_7  and  C6_8 
REMARK    4  A    between atoms: C9_11  and  N2_12 
REMARK       I    between atoms: N2_12  and  C10_13 
REMARK    5  A    between atoms: C17_23  and  O3_24 
ROOT
HETATM    1  C2  UNL     1      26.653   1.389  53.917  1.00  0.00     0.062 A 
HETATM    2  C3  UNL     1      25.593   2.180  53.503  1.00  0.00     0.050 A 
HETATM    3  C4  UNL     1      24.370   1.684  53.088  1.00  0.00     0.048 A 
HETATM    4  C5  UNL     1      23.386   2.545  52.700  1.00  0.00     0.183 A 
HETATM    5  N3  UNL     1      22.208   2.016  52.302  1.00  0.00    -0.217 NA
HETATM    6  C14 UNL     1      22.034   0.682  52.298  1.00  0.00     0.236 A 
HETATM    7  N4  UNL     1      23.009  -0.176  52.683  1.00  0.00    -0.241 NA
HETATM    8  C15 UNL     1      24.198   0.301  53.087  1.00  0.00     0.075 A 
HETATM    9  C16 UNL     1      25.230  -0.518  53.491  1.00  0.00     0.071 A 
HETATM   10  C17 UNL     1      26.438   0.015  53.900  1.00  0.00     0.096 A 
ENDROOT
BRANCH   4  11
HETATM   11  O1  UNL     1      23.601   3.926  52.717  1.00  0.00    -0.291 OA
BRANCH  11  12
HETATM   12  C6  UNL     1      23.640   4.590  51.482  1.00  0.00     0.078 A 
HETATM   13  C7  UNL     1      22.850   5.673  51.176  1.00  0.00     0.039 A 
HETATM   14  C8  UNL     1      22.952   6.270  49.932  1.00  0.00     0.032 A 
HETATM   15  C9  UNL     1      23.837   5.795  48.995  1.00  0.00     0.034 A 
HETATM   16  C12 UNL     1      24.643   4.710  49.278  1.00  0.00     0.032 A 
HETATM   17  C13 UNL     1      24.534   4.120  50.519  1.00  0.00     0.039 A 
BRANCH  15  18
HETATM   18  N2  UNL     1      23.779   6.560  47.778  1.00  0.00    -0.328 N 
HETATM   19  C10 UNL     1      24.728   7.562  47.460  1.00  0.00     0.218 C 
HETATM   20  C11 UNL     1      24.629   8.325  46.198  1.00  0.00     0.117 C 
HETATM   21  O2  UNL     1      25.636   7.756  48.296  1.00  0.00    -0.274 OA
HETATM   22  H8  UNL     1      22.975   6.318  47.142  1.00  0.00     0.169 HD
ENDBRANCH  15  18
ENDBRANCH  11  12
ENDBRANCH   4  11
BRANCH   1  23
HETATM   23  N1  UNL     1      27.890   1.970  54.333  1.00  0.00    -0.392 N 
HETATM   24  C1  UNL     1      28.770   2.522  53.324  1.00  0.00     0.146 C 
HETATM   25  H4  UNL     1      28.082   1.959  55.359  1.00  0.00     0.159 HD
ENDBRANCH   1  23
BRANCH  10  26
HETATM   26  O3  UNL     1      27.503  -0.760  54.313  1.00  0.00    -0.354 OA
HETATM   27  C18 UNL     1      28.450  -1.273  53.406  1.00  0.00     0.210 C 
ENDBRANCH  10  26
TORSDOF 5
ENDMDL
MODEL 8
REMARK VINA RESULT:      -7.0      2.474      4.578
REMARK  5 active torsions:
REMARK  status: ('A' for Active; 'I' for Inactive)
REMARK    1  A    between atoms: N1_2  and  C2_3 
REMARK    2  A    between atoms: C5_6  and  O1_7 
REMARK    3  A    between atoms: O1_7  and  C6_8 
REMARK    4  A    between atoms: C9_11  and  N2_12 
REMARK       I    between atoms: N2_12  and  C10_13 
REMARK    5  A    between atoms: C17_23  and  O3_24 
ROOT
HETATM    1  C2  UNL     1      26.112   0.754  52.647  1.00  0.00     0.062 A 
HETATM    2  C3  UNL     1      24.797   0.346  52.484  1.00  0.00     0.050 A 
HETATM    3  C4  UNL     1      24.068  -0.327  53.448  1.00  0.00     0.048 A 
HETATM    4  C5  UNL     1      22.777  -0.686  53.193  1.00  0.00     0.183 A 
HETATM    5  N3  UNL     1      22.103  -1.343  54.162  1.00  0.00    -0.217 NA
HETATM    6  C14 UNL     1      22.706  -1.623  55.332  1.00  0.00     0.236 A 
HETATM    7  N4  UNL     1      23.987  -1.268  55.589  1.00  0.00    -0.241 NA
HETATM    8  C15 UNL     1      24.700  -0.614  54.657  1.00  0.00     0.075 A 
HETATM    9  C16 UNL     1      26.006  -0.224  54.855  1.00  0.00     0.071 A 
HETATM   10  C17 UNL     1      26.702   0.448  53.869  1.00  0.00     0.096 A 
ENDROOT
BRANCH   4  11
HETATM   11  O1  UNL     1      22.182  -0.379  51.966  1.00  0.00    -0.291 OA
BRANCH  11  12
HETATM   12  C6  UNL     1      21.884   0.967  51.709  1.00  0.00     0.078 A 
HETATM   13  C7  UNL     1      21.258   1.793  52.611  1.00  0.00     0.039 A 
HETATM   14  C8  UNL     1      21.001   3.111  52.275  1.00  0.00     0.032 A 
HETATM   15  C9  UNL     1      21.367   3.607  51.048  1.00  0.00     0.034 A 
HETATM   16  C12 UNL     1      21.999   2.799  50.124  1.00  0.00     0.032 A 
HETATM   17  C13 UNL     1      22.250   1.487  50.466  1.00  0.00     0.039 A 
BRANCH  15  18
HETATM   18  N2  UNL     1      21.007   4.993  50.911  1.00  0.00    -0.328 N 
HETATM   19  C10 UNL     1      21.958   6.040  50.977  1.00  0.00     0.218 C 
HETATM   20  C11 UNL     1      21.544   7.451  50.832  1.00  0.00     0.117 C 
HETATM   21  O2  UNL     1      23.147   5.702  51.163  1.00  0.00    -0.274 OA
HETATM   22  H8  UNL     1      19.980   5.170  50.758  1.00  0.00     0.169 HD
ENDBRANCH  15  18
ENDBRANCH  11  12
ENDBRANCH   4  11
BRANCH   1  23
HETATM   23  N1  UNL     1      26.804   1.447  51.609  1.00  0.00    -0.392 N 
HETATM   24  C1  UNL     1      26.171   2.601  51.004  1.00  0.00     0.146 C 
HETATM   25  H4  UNL     1      27.742   1.069  51.347  1.00  0.00     0.159 HD
ENDBRANCH   1  23
BRANCH  10  26
HETATM   26  O3  UNL     1      28.012   0.859  54.016  1.00  0.00    -0.354 OA
HETATM   27  C18 UNL     1      29.050  -0.046  54.310  1.00  0.00     0.210 C 
ENDBRANCH  10  26
TORSDOF 5
ENDMDL
MODEL 9
REMARK VINA RESULT:      -6.9      2.981      7.232
REMARK  5 active torsions:
REMARK  status: ('A' for Active; 'I' for Inactive)
REMARK    1  A    between atoms: N1_2  and  C2_3 
REMARK    2  A    between atoms: C5_6  and  O1_7 
REMARK    3  A    between atoms: O1_7  and  C6_8 
REMARK    4  A    between atoms: C9_11  and  N2_12 
REMARK       I    between atoms: N2_12  and  C10_13 
REMARK    5  A    between atoms: C17_23  and  O3_24 
ROOT
HETATM    1  C2  UNL     1      19.401   0.244  51.944  1.00  0.00     0.062 A 
HETATM    2  C3  UNL     1      20.626   0.745  51.530  1.00  0.00     0.050 A 
HETATM    3  C4  UNL     1      21.822   0.511  52.185  1.00  0.00     0.048 A 
HETATM    4  C5  UNL     1      22.977   1.048  51.699  1.00  0.00     0.183 A 
HETATM    5  N3  UNL     1      24.121   0.794  52.371  1.00  0.00    -0.217 NA
HETATM    6  C14 UNL     1      24.097   0.033  53.481  1.00  0.00     0.236 A 
HETATM    7  N4  UNL     1      22.952  -0.502  53.967  1.00  0.00    -0.241 NA
HETATM    8  C15 UNL     1      21.788  -0.278  53.334  1.00  0.00     0.075 A 
HETATM    9  C16 UNL     1      20.589  -0.793  53.776  1.00  0.00     0.071 A 
HETATM   10  C17 UNL     1      19.415  -0.538  53.094  1.00  0.00     0.096 A 
ENDROOT
BRANCH   4  11
HETATM   11  O1  UNL     1      22.965   1.834  50.543  1.00  0.00    -0.291 OA
BRANCH  11  12
HETATM   12  C6  UNL     1      23.600   3.083  50.603  1.00  0.00     0.078 A 
HETATM   13  C7  UNL     1      24.744   3.390  49.904  1.00  0.00     0.039 A 
HETATM   14  C8  UNL     1      25.306   4.648  50.021  1.00  0.00     0.032 A 
HETATM   15  C9  UNL     1      24.733   5.601  50.827  1.00  0.00     0.034 A 
HETATM   16  C12 UNL     1      23.584   5.320  51.539  1.00  0.00     0.032 A 
HETATM   17  C13 UNL     1      23.031   4.063  51.418  1.00  0.00     0.039 A 
BRANCH  15  18
HETATM   18  N2  UNL     1      25.478   6.832  50.800  1.00  0.00    -0.328 N 
HETATM   19  C10 UNL     1      25.147   7.906  49.939  1.00  0.00     0.218 C 
HETATM   20  C11 UNL     1      25.941   9.153  49.943  1.00  0.00     0.117 C 
HETATM   21  O2  UNL     1      24.161   7.737  49.189  1.00  0.00    -0.274 OA
HETATM   22  H8  UNL     1      26.289   6.872  51.471  1.00  0.00     0.169 HD
ENDBRANCH  15  18
ENDBRANCH  11  12
ENDBRANCH   4  11
BRANCH   1  23
HETATM   23  N1  UNL     1      18.205   0.526  51.218  1.00  0.00    -0.392 N 
HETATM   24  C1  UNL     1      17.952   1.890  50.802  1.00  0.00     0.146 C 
HETATM   25  H4  UNL     1      17.577  -0.287  51.031  1.00  0.00     0.159 HD
ENDBRANCH   1  23
BRANCH  10  26
HETATM   26  O3  UNL     1      18.188  -1.029  53.495  1.00  0.00    -0.354 OA
HETATM   27  C18 UNL     1      17.917  -2.410  53.549  1.00  0.00     0.210 C 
ENDBRANCH  10  26
TORSDOF 5
ENDMDL
