MODEL 1
REMARK VINA RESULT:      -9.0      0.000      0.000
REMARK  3 active torsions:
REMARK  status: ('A' for Active; 'I' for Inactive)
REMARK    1  A    between atoms: C2_2  and  C3_3 
REMARK    2  A    between atoms: C4_4  and  O1_5 
REMARK    3  A    between atoms: O1_5  and  C5_6 
ROOT
HETATM    1  C5  UNL     1      26.970   2.531  51.506  1.00  0.00     0.086 C 
HETATM    2  C6  UNL     1      26.546   3.415  50.653  1.00  0.00     0.018 C 
HETATM    3  C7  UNL     1      25.500   3.006  49.946  1.00  0.00     0.068 C 
HETATM    4  S1  UNL     1      24.374   3.831  51.024  1.00  0.00    -0.062 SA
HETATM    5  C8  UNL     1      22.885   2.899  51.393  1.00  0.00     0.186 C 
HETATM    6  N1  UNL     1      21.924   3.788  51.713  1.00  0.00    -0.217 NA
HETATM    7  C9  UNL     1      20.609   3.316  52.059  1.00  0.00     0.232 C 
HETATM    8  N2  UNL     1      19.412   2.806  52.223  1.00  0.00    -0.257 NA
HETATM    9  C10 UNL     1      18.734   1.961  51.278  1.00  0.00     0.325 C 
HETATM   10  O2  UNL     1      18.319   0.755  51.955  1.00  0.00    -0.330 OA
HETATM   11  C11 UNL     1      19.309   0.044  52.604  1.00  0.00     0.073 A 
HETATM   12  C12 UNL     1      19.291  -0.913  53.586  1.00  0.00     0.037 A 
HETATM   13  C13 UNL     1      20.430  -1.488  54.110  1.00  0.00     0.005 A 
HETATM   14  C14 UNL     1      21.719  -1.148  53.692  1.00  0.00     0.031 A 
HETATM   15  C15 UNL     1      21.834  -0.199  52.714  1.00  0.00     0.053 A 
HETATM   16  C16 UNL     1      20.618   0.265  52.298  1.00  0.00     0.067 A 
HETATM   17  N3  UNL     1      23.028   0.373  52.262  1.00  0.00    -0.287 N 
HETATM   18  C17 UNL     1      24.185  -0.202  52.947  1.00  0.00     0.176 C 
HETATM   19  C18 UNL     1      25.405   0.607  52.631  1.00  0.00    -0.003 C 
HETATM   20  C19 UNL     1      25.992   1.604  51.983  1.00  0.00     0.036 C 
HETATM   21  N4  UNL     1      22.827   1.425  51.275  1.00  0.00    -0.275 N 
HETATM   22  H18 UNL     1      22.599   1.064  50.305  1.00  0.00     0.189 HD
ENDROOT
BRANCH   1  23
HETATM   23  O1  UNL     1      27.674   1.719  52.383  1.00  0.00    -0.322 OA
BRANCH  23  24
HETATM   24  C4  UNL     1      28.514   2.288  53.330  1.00  0.00     0.142 C 
HETATM   25  C3  UNL     1      29.157   1.531  54.202  1.00  0.00     0.024 C 
BRANCH  25  26
HETATM   26  C2  UNL     1      28.979   0.084  54.168  1.00  0.00    -0.008 C 
HETATM   27  C1  UNL     1      29.935  -0.666  53.595  1.00  0.00     0.011 C 
ENDBRANCH  25  26
ENDBRANCH  23  24
ENDBRANCH   1  23
TORSDOF 3
ENDMDL
MODEL 2
REMARK VINA RESULT:      -8.7      2.565      4.354
REMARK  3 active torsions:
REMARK  status: ('A' for Active; 'I' for Inactive)
REMARK    1  A    between atoms: C2_2  and  C3_3 
REMARK    2  A    between atoms: C4_4  and  O1_5 
REMARK    3  A    between atoms: O1_5  and  C5_6 
ROOT
HETATM    1  C5  UNL     1      24.236   4.344  49.034  1.00  0.00     0.086 C 
HETATM    2  C6  UNL     1      23.015   4.190  48.616  1.00  0.00     0.018 C 
HETATM    3  C7  UNL     1      22.571   2.945  48.734  1.00  0.00     0.068 C 
HETATM    4  S1  UNL     1      21.766   3.316  50.260  1.00  0.00    -0.062 SA
HETATM    5  C8  UNL     1      21.917   2.033  51.506  1.00  0.00     0.186 C 
HETATM    6  N1  UNL     1      20.862   2.155  52.337  1.00  0.00    -0.217 NA
HETATM    7  C9  UNL     1      20.725   1.247  53.445  1.00  0.00     0.232 C 
HETATM    8  N2  UNL     1      20.607   0.293  54.338  1.00  0.00    -0.257 NA
HETATM    9  C10 UNL     1      20.599  -1.116  54.051  1.00  0.00     0.325 C 
HETATM   10  O2  UNL     1      21.602  -1.756  54.869  1.00  0.00    -0.330 OA
HETATM   11  C11 UNL     1      22.886  -1.257  54.769  1.00  0.00     0.073 A 
HETATM   12  C12 UNL     1      23.997  -1.350  55.567  1.00  0.00     0.037 A 
HETATM   13  C13 UNL     1      25.199  -0.742  55.272  1.00  0.00     0.005 A 
HETATM   14  C14 UNL     1      25.403   0.034  54.128  1.00  0.00     0.031 A 
HETATM   15  C15 UNL     1      24.346   0.182  53.271  1.00  0.00     0.053 A 
HETATM   16  C16 UNL     1      23.235  -0.485  53.701  1.00  0.00     0.067 A 
HETATM   17  N3  UNL     1      24.308   1.024  52.155  1.00  0.00    -0.287 N 
HETATM   18  C17 UNL     1      25.578   1.725  51.974  1.00  0.00     0.176 C 
HETATM   19  C18 UNL     1      25.414   2.797  50.940  1.00  0.00    -0.003 C 
HETATM   20  C19 UNL     1      24.671   3.430  50.043  1.00  0.00     0.036 C 
HETATM   21  N4  UNL     1      23.013   1.039  51.489  1.00  0.00    -0.275 N 
HETATM   22  H18 UNL     1      22.832   0.186  50.886  1.00  0.00     0.189 HD
ENDROOT
BRANCH   1  23
HETATM   23  O1  UNL     1      25.545   4.724  49.293  1.00  0.00    -0.322 OA
BRANCH  23  24
HETATM   24  C4  UNL     1      25.982   5.990  48.929  1.00  0.00     0.142 C 
HETATM   25  C3  UNL     1      27.231   6.185  48.540  1.00  0.00     0.024 C 
BRANCH  25  26
HETATM   26  C2  UNL     1      28.156   5.059  48.494  1.00  0.00    -0.008 C 
HETATM   27  C1  UNL     1      29.414   5.279  48.079  1.00  0.00     0.011 C 
ENDBRANCH  25  26
ENDBRANCH  23  24
ENDBRANCH   1  23
TORSDOF 3
ENDMDL
MODEL 3
REMARK VINA RESULT:      -8.2      2.748      4.391
REMARK  3 active torsions:
REMARK  status: ('A' for Active; 'I' for Inactive)
REMARK    1  A    between atoms: C2_2  and  C3_3 
REMARK    2  A    between atoms: C4_4  and  O1_5 
REMARK    3  A    between atoms: O1_5  and  C5_6 
ROOT
HETATM    1  C5  UNL     1      24.832   6.009  48.638  1.00  0.00     0.086 C 
HETATM    2  C6  UNL     1      23.621   6.160  48.191  1.00  0.00     0.018 C 
HETATM    3  C7  UNL     1      22.959   5.017  48.064  1.00  0.00     0.068 C 
HETATM    4  S1  UNL     1      22.172   5.233  49.628  1.00  0.00    -0.062 SA
HETATM    5  C8  UNL     1      22.042   3.733  50.604  1.00  0.00     0.186 C 
HETATM    6  N1  UNL     1      20.994   3.885  51.437  1.00  0.00    -0.217 NA
HETATM    7  C9  UNL     1      20.653   2.824  52.349  1.00  0.00     0.232 C 
HETATM    8  N2  UNL     1      20.332   1.757  53.040  1.00  0.00    -0.257 NA
HETATM    9  C10 UNL     1      20.087   0.453  52.487  1.00  0.00     0.325 C 
HETATM   10  O2  UNL     1      20.927  -0.502  53.171  1.00  0.00    -0.330 OA
HETATM   11  C11 UNL     1      22.281  -0.235  53.176  1.00  0.00     0.073 A 
HETATM   12  C12 UNL     1      23.326  -0.677  53.947  1.00  0.00     0.037 A 
HETATM   13  C13 UNL     1      24.627  -0.252  53.782  1.00  0.00     0.005 A 
HETATM   14  C14 UNL     1      25.011   0.675  52.810  1.00  0.00     0.031 A 
HETATM   15  C15 UNL     1      24.033   1.172  51.993  1.00  0.00     0.053 A 
HETATM   16  C16 UNL     1      22.805   0.649  52.280  1.00  0.00     0.067 A 
HETATM   17  N3  UNL     1      24.189   2.202  51.060  1.00  0.00    -0.287 N 
HETATM   18  C17 UNL     1      25.570   2.683  51.024  1.00  0.00     0.176 C 
HETATM   19  C18 UNL     1      25.640   3.942  50.216  1.00  0.00    -0.003 C 
HETATM   20  C19 UNL     1      25.057   4.857  49.454  1.00  0.00     0.036 C 
HETATM   21  N4  UNL     1      22.945   2.578  50.401  1.00  0.00    -0.275 N 
HETATM   22  H18 UNL     1      22.640   1.901  49.645  1.00  0.00     0.189 HD
ENDROOT
BRANCH   1  23
HETATM   23  O1  UNL     1      26.176   6.089  48.972  1.00  0.00    -0.322 OA
BRANCH  23  24
HETATM   24  C4  UNL     1      26.966   7.090  48.425  1.00  0.00     0.142 C 
HETATM   25  C3  UNL     1      28.211   6.841  48.057  1.00  0.00     0.024 C 
BRANCH  25  26
HETATM   26  C2  UNL     1      28.758   5.500  48.229  1.00  0.00    -0.008 C 
HETATM   27  C1  UNL     1      30.066   5.305  47.992  1.00  0.00     0.011 C 
ENDBRANCH  25  26
ENDBRANCH  23  24
ENDBRANCH   1  23
TORSDOF 3
ENDMDL
MODEL 4
REMARK VINA RESULT:      -8.0      3.079      5.618
REMARK  3 active torsions:
REMARK  status: ('A' for Active; 'I' for Inactive)
REMARK    1  A    between atoms: C2_2  and  C3_3 
REMARK    2  A    between atoms: C4_4  and  O1_5 
REMARK    3  A    between atoms: O1_5  and  C5_6 
ROOT
HETATM    1  C5  UNL     1      25.567  -0.199  52.706  1.00  0.00     0.086 C 
HETATM    2  C6  UNL     1      24.423  -0.135  53.319  1.00  0.00     0.018 C 
HETATM    3  C7  UNL     1      24.073   1.101  53.652  1.00  0.00     0.068 C 
HETATM    4  S1  UNL     1      23.061   1.263  52.216  1.00  0.00    -0.062 SA
HETATM    5  C8  UNL     1      23.165   2.865  51.415  1.00  0.00     0.186 C 
HETATM    6  N1  UNL     1      22.011   3.054  50.745  1.00  0.00    -0.217 NA
HETATM    7  C9  UNL     1      21.816   4.270  49.999  1.00  0.00     0.232 C 
HETATM    8  N2  UNL     1      21.670   5.461  49.467  1.00  0.00    -0.257 NA
HETATM    9  C10 UNL     1      21.814   6.706  50.170  1.00  0.00     0.325 C 
HETATM   10  O2  UNL     1      22.760   7.530  49.455  1.00  0.00    -0.330 OA
HETATM   11  C11 UNL     1      24.001   6.973  49.215  1.00  0.00     0.073 A 
HETATM   12  C12 UNL     1      25.011   7.267  48.336  1.00  0.00     0.037 A 
HETATM   13  C13 UNL     1      26.186   6.548  48.257  1.00  0.00     0.005 A 
HETATM   14  C14 UNL     1      26.461   5.444  49.068  1.00  0.00     0.031 A 
HETATM   15  C15 UNL     1      25.508   5.076  49.978  1.00  0.00     0.053 A 
HETATM   16  C16 UNL     1      24.412   5.890  49.934  1.00  0.00     0.067 A 
HETATM   17  N3  UNL     1      25.535   3.928  50.775  1.00  0.00    -0.287 N 
HETATM   18  C17 UNL     1      26.756   3.154  50.552  1.00  0.00     0.176 C 
HETATM   19  C18 UNL     1      26.630   1.820  51.220  1.00  0.00    -0.003 C 
HETATM   20  C19 UNL     1      25.951   0.967  51.975  1.00  0.00     0.036 C 
HETATM   21  N4  UNL     1      24.334   3.757  51.581  1.00  0.00    -0.275 N 
HETATM   22  H18 UNL     1      24.299   4.384  52.435  1.00  0.00     0.189 HD
ENDROOT
BRANCH   1  23
HETATM   23  O1  UNL     1      26.799  -0.532  52.161  1.00  0.00    -0.322 OA
BRANCH  23  24
HETATM   24  C4  UNL     1      27.500  -1.624  52.653  1.00  0.00     0.142 C 
HETATM   25  C3  UNL     1      28.622  -1.453  53.331  1.00  0.00     0.024 C 
BRANCH  25  26
HETATM   26  C2  UNL     1      29.127  -0.105  53.563  1.00  0.00    -0.008 C 
HETATM   27  C1  UNL     1      28.806   0.512  54.713  1.00  0.00     0.011 C 
ENDBRANCH  25  26
ENDBRANCH  23  24
ENDBRANCH   1  23
TORSDOF 3
ENDMDL
MODEL 5
REMARK VINA RESULT:      -8.0      1.822      2.352
REMARK  3 active torsions:
REMARK  status: ('A' for Active; 'I' for Inactive)
REMARK    1  A    between atoms: C2_2  and  C3_3 
REMARK    2  A    between atoms: C4_4  and  O1_5 
REMARK    3  A    between atoms: O1_5  and  C5_6 
ROOT
HETATM    1  C5  UNL     1      25.055   1.915  52.890  1.00  0.00     0.086 C 
HETATM    2  C6  UNL     1      24.979   2.881  52.025  1.00  0.00     0.018 C 
HETATM    3  C7  UNL     1      24.131   2.636  51.033  1.00  0.00     0.068 C 
HETATM    4  S1  UNL     1      22.846   3.545  51.830  1.00  0.00    -0.062 SA
HETATM    5  C8  UNL     1      21.223   2.789  51.712  1.00  0.00     0.186 C 
HETATM    6  N1  UNL     1      20.311   3.774  51.829  1.00  0.00    -0.217 NA
HETATM    7  C9  UNL     1      18.910   3.453  51.773  1.00  0.00     0.232 C 
HETATM    8  N2  UNL     1      17.666   3.088  51.570  1.00  0.00    -0.257 NA
HETATM    9  C10 UNL     1      17.189   2.376  50.415  1.00  0.00     0.325 C 
HETATM   10  O2  UNL     1      16.477   1.202  50.863  1.00  0.00    -0.330 OA
HETATM   11  C11 UNL     1      17.168   0.346  51.697  1.00  0.00     0.073 A 
HETATM   12  C12 UNL     1      16.778  -0.645  52.562  1.00  0.00     0.037 A 
HETATM   13  C13 UNL     1      17.661  -1.378  53.328  1.00  0.00     0.005 A 
HETATM   14  C14 UNL     1      19.044  -1.182  53.298  1.00  0.00     0.031 A 
HETATM   15  C15 UNL     1      19.524  -0.211  52.462  1.00  0.00     0.053 A 
HETATM   16  C16 UNL     1      18.527   0.417  51.772  1.00  0.00     0.067 A 
HETATM   17  N3  UNL     1      20.850   0.228  52.393  1.00  0.00    -0.287 N 
HETATM   18  C17 UNL     1      21.706  -0.515  53.317  1.00  0.00     0.176 C 
HETATM   19  C18 UNL     1      23.045   0.150  53.403  1.00  0.00    -0.003 C 
HETATM   20  C19 UNL     1      23.890   1.095  53.015  1.00  0.00     0.036 C 
HETATM   21  N4  UNL     1      21.042   1.340  51.472  1.00  0.00    -0.275 N 
HETATM   22  H18 UNL     1      21.054   1.053  50.451  1.00  0.00     0.189 HD
ENDROOT
BRANCH   1  23
HETATM   23  O1  UNL     1      25.399   0.984  53.860  1.00  0.00    -0.322 OA
BRANCH  23  24
HETATM   24  C4  UNL     1      26.736   0.754  54.153  1.00  0.00     0.142 C 
HETATM   25  C3  UNL     1      27.387  -0.246  53.583  1.00  0.00     0.024 C 
BRANCH  25  26
HETATM   26  C2  UNL     1      26.693  -1.114  52.639  1.00  0.00    -0.008 C 
HETATM   27  C1  UNL     1      27.136  -2.372  52.478  1.00  0.00     0.011 C 
ENDBRANCH  25  26
ENDBRANCH  23  24
ENDBRANCH   1  23
TORSDOF 3
ENDMDL
MODEL 6
REMARK VINA RESULT:      -7.8      3.517      6.449
REMARK  3 active torsions:
REMARK  status: ('A' for Active; 'I' for Inactive)
REMARK    1  A    between atoms: C2_2  and  C3_3 
REMARK    2  A    between atoms: C4_4  and  O1_5 
REMARK    3  A    between atoms: O1_5  and  C5_6 
ROOT
HETATM    1  C5  UNL     1      24.008   5.963  48.257  1.00  0.00     0.086 C 
HETATM    2  C6  UNL     1      25.205   6.291  48.644  1.00  0.00     0.018 C 
HETATM    3  C7  UNL     1      25.418   6.079  49.937  1.00  0.00     0.068 C 
HETATM    4  S1  UNL     1      26.189   4.525  49.613  1.00  0.00    -0.062 SA
HETATM    5  C8  UNL     1      25.749   3.226  50.770  1.00  0.00     0.186 C 
HETATM    6  N1  UNL     1      26.760   2.335  50.777  1.00  0.00    -0.217 NA
HETATM    7  C9  UNL     1      26.675   1.174  51.623  1.00  0.00     0.232 C 
HETATM    8  N2  UNL     1      26.575   0.226  52.525  1.00  0.00    -0.257 NA
HETATM    9  C10 UNL     1      26.353   0.437  53.930  1.00  0.00     0.325 C 
HETATM   10  O2  UNL     1      25.210  -0.346  54.336  1.00  0.00    -0.330 OA
HETATM   11  C11 UNL     1      24.041  -0.135  53.633  1.00  0.00     0.073 A 
HETATM   12  C12 UNL     1      22.887  -0.862  53.484  1.00  0.00     0.037 A 
HETATM   13  C13 UNL     1      21.828  -0.458  52.698  1.00  0.00     0.005 A 
HETATM   14  C14 UNL     1      21.827   0.737  51.974  1.00  0.00     0.031 A 
HETATM   15  C15 UNL     1      22.939   1.528  52.062  1.00  0.00     0.053 A 
HETATM   16  C16 UNL     1      23.891   0.992  52.881  1.00  0.00     0.067 A 
HETATM   17  N3  UNL     1      23.186   2.682  51.312  1.00  0.00    -0.287 N 
HETATM   18  C17 UNL     1      22.069   2.984  50.417  1.00  0.00     0.176 C 
HETATM   19  C18 UNL     1      22.474   4.059  49.456  1.00  0.00    -0.003 C 
HETATM   20  C19 UNL     1      23.365   4.938  49.018  1.00  0.00     0.036 C 
HETATM   21  N4  UNL     1      24.498   3.263  51.560  1.00  0.00    -0.275 N 
HETATM   22  H18 UNL     1      24.561   3.806  52.469  1.00  0.00     0.189 HD
ENDROOT
BRANCH   1  23
HETATM   23  O1  UNL     1      22.773   5.811  47.643  1.00  0.00    -0.322 OA
BRANCH  23  24
HETATM   24  C4  UNL     1      22.571   6.311  46.365  1.00  0.00     0.142 C 
HETATM   25  C3  UNL     1      22.148   5.521  45.392  1.00  0.00     0.024 C 
BRANCH  25  26
HETATM   26  C2  UNL     1      21.894   4.112  45.667  1.00  0.00    -0.008 C 
HETATM   27  C1  UNL     1      20.632   3.724  45.915  1.00  0.00     0.011 C 
ENDBRANCH  25  26
ENDBRANCH  23  24
ENDBRANCH   1  23
TORSDOF 3
ENDMDL
MODEL 7
REMARK VINA RESULT:      -7.8      2.893      5.048
REMARK  3 active torsions:
REMARK  status: ('A' for Active; 'I' for Inactive)
REMARK    1  A    between atoms: C2_2  and  C3_3 
REMARK    2  A    between atoms: C4_4  and  O1_5 
REMARK    3  A    between atoms: O1_5  and  C5_6 
ROOT
HETATM    1  C5  UNL     1      23.703  -0.434  53.441  1.00  0.00     0.086 C 
HETATM    2  C6  UNL     1      22.511  -0.923  53.274  1.00  0.00     0.018 C 
HETATM    3  C7  UNL     1      21.545  -0.029  53.447  1.00  0.00     0.068 C 
HETATM    4  S1  UNL     1      21.427   0.263  51.711  1.00  0.00    -0.062 SA
HETATM    5  C8  UNL     1      21.207   1.987  51.264  1.00  0.00     0.186 C 
HETATM    6  N1  UNL     1      20.591   2.016  50.066  1.00  0.00    -0.217 NA
HETATM    7  C9  UNL     1      20.286   3.284  49.456  1.00  0.00     0.232 C 
HETATM    8  N2  UNL     1      19.924   4.476  49.045  1.00  0.00    -0.257 NA
HETATM    9  C10 UNL     1      19.143   5.414  49.806  1.00  0.00     0.325 C 
HETATM   10  O2  UNL     1      19.852   6.671  49.851  1.00  0.00    -0.330 OA
HETATM   11  C11 UNL     1      21.145   6.628  50.333  1.00  0.00     0.073 A 
HETATM   12  C12 UNL     1      22.214   7.482  50.237  1.00  0.00     0.037 A 
HETATM   13  C13 UNL     1      23.448   7.223  50.796  1.00  0.00     0.005 A 
HETATM   14  C14 UNL     1      23.732   6.060  51.515  1.00  0.00     0.031 A 
HETATM   15  C15 UNL     1      22.723   5.148  51.662  1.00  0.00     0.053 A 
HETATM   16  C16 UNL     1      21.567   5.555  51.059  1.00  0.00     0.067 A 
HETATM   17  N3  UNL     1      22.846   3.873  52.222  1.00  0.00    -0.287 N 
HETATM   18  C17 UNL     1      24.210   3.624  52.686  1.00  0.00     0.176 C 
HETATM   19  C18 UNL     1      24.364   2.176  53.036  1.00  0.00    -0.003 C 
HETATM   20  C19 UNL     1      23.848   0.963  53.176  1.00  0.00     0.036 C 
HETATM   21  N4  UNL     1      21.617   3.093  52.158  1.00  0.00    -0.275 N 
HETATM   22  H18 UNL     1      20.894   3.373  52.882  1.00  0.00     0.189 HD
ENDROOT
BRANCH   1  23
HETATM   23  O1  UNL     1      25.044  -0.180  53.690  1.00  0.00    -0.322 OA
BRANCH  23  24
HETATM   24  C4  UNL     1      26.020  -0.922  53.039  1.00  0.00     0.142 C 
HETATM   25  C3  UNL     1      27.295  -0.581  53.127  1.00  0.00     0.024 C 
BRANCH  25  26
HETATM   26  C2  UNL     1      27.676   0.586  53.914  1.00  0.00    -0.008 C 
HETATM   27  C1  UNL     1      28.076   1.694  53.268  1.00  0.00     0.011 C 
ENDBRANCH  25  26
ENDBRANCH  23  24
ENDBRANCH   1  23
TORSDOF 3
ENDMDL
MODEL 8
REMARK VINA RESULT:      -7.7      2.455      4.800
REMARK  3 active torsions:
REMARK  status: ('A' for Active; 'I' for Inactive)
REMARK    1  A    between atoms: C2_2  and  C3_3 
REMARK    2  A    between atoms: C4_4  and  O1_5 
REMARK    3  A    between atoms: O1_5  and  C5_6 
ROOT
HETATM    1  C5  UNL     1      23.537  -0.550  53.968  1.00  0.00     0.086 C 
HETATM    2  C6  UNL     1      22.583  -1.206  54.560  1.00  0.00     0.018 C 
HETATM    3  C7  UNL     1      21.561  -0.439  54.919  1.00  0.00     0.068 C 
HETATM    4  S1  UNL     1      20.655  -0.869  53.468  1.00  0.00    -0.062 SA
HETATM    5  C8  UNL     1      19.776   0.501  52.712  1.00  0.00     0.186 C 
HETATM    6  N1  UNL     1      18.740  -0.018  52.024  1.00  0.00    -0.217 NA
HETATM    7  C9  UNL     1      17.854   0.862  51.307  1.00  0.00     0.232 C 
HETATM    8  N2  UNL     1      17.022   1.743  50.804  1.00  0.00    -0.257 NA
HETATM    9  C10 UNL     1      16.389   2.802  51.543  1.00  0.00     0.325 C 
HETATM   10  O2  UNL     1      16.651   4.052  50.869  1.00  0.00    -0.330 OA
HETATM   11  C11 UNL     1      17.978   4.359  50.640  1.00  0.00     0.073 A 
HETATM   12  C12 UNL     1      18.609   5.229  49.789  1.00  0.00     0.037 A 
HETATM   13  C13 UNL     1      19.980   5.362  49.714  1.00  0.00     0.005 A 
HETATM   14  C14 UNL     1      20.864   4.618  50.501  1.00  0.00     0.031 A 
HETATM   15  C15 UNL     1      20.322   3.722  51.381  1.00  0.00     0.053 A 
HETATM   16  C16 UNL     1      18.957   3.716  51.337  1.00  0.00     0.067 A 
HETATM   17  N3  UNL     1      21.033   2.794  52.148  1.00  0.00    -0.287 N 
HETATM   18  C17 UNL     1      22.474   2.915  51.929  1.00  0.00     0.176 C 
HETATM   19  C18 UNL     1      23.174   1.751  52.558  1.00  0.00    -0.003 C 
HETATM   20  C19 UNL     1      23.143   0.637  53.277  1.00  0.00     0.036 C 
HETATM   21  N4  UNL     1      20.175   1.910  52.925  1.00  0.00    -0.275 N 
HETATM   22  H18 UNL     1      19.770   2.361  53.795  1.00  0.00     0.189 HD
ENDROOT
BRANCH   1  23
HETATM   23  O1  UNL     1      24.722  -0.059  53.440  1.00  0.00    -0.322 OA
BRANCH  23  24
HETATM   24  C4  UNL     1      25.780  -0.922  53.194  1.00  0.00     0.142 C 
HETATM   25  C3  UNL     1      26.814  -0.531  52.469  1.00  0.00     0.024 C 
BRANCH  25  26
HETATM   26  C2  UNL     1      26.841   0.821  51.923  1.00  0.00    -0.008 C 
HETATM   27  C1  UNL     1      27.528   1.767  52.586  1.00  0.00     0.011 C 
ENDBRANCH  25  26
ENDBRANCH  23  24
ENDBRANCH   1  23
TORSDOF 3
ENDMDL
MODEL 9
REMARK VINA RESULT:      -7.7      3.900      7.541
REMARK  3 active torsions:
REMARK  status: ('A' for Active; 'I' for Inactive)
REMARK    1  A    between atoms: C2_2  and  C3_3 
REMARK    2  A    between atoms: C4_4  and  O1_5 
REMARK    3  A    between atoms: O1_5  and  C5_6 
ROOT
HETATM    1  C5  UNL     1      21.850   7.531  49.958  1.00  0.00     0.086 C 
HETATM    2  C6  UNL     1      23.025   8.075  49.850  1.00  0.00     0.018 C 
HETATM    3  C7  UNL     1      23.855   7.736  50.829  1.00  0.00     0.068 C 
HETATM    4  S1  UNL     1      24.594   6.474  49.843  1.00  0.00    -0.062 SA
HETATM    5  C8  UNL     1      24.948   4.955  50.731  1.00  0.00     0.186 C 
HETATM    6  N1  UNL     1      25.957   4.338  50.085  1.00  0.00    -0.217 NA
HETATM    7  C9  UNL     1      26.453   3.081  50.581  1.00  0.00     0.232 C 
HETATM    8  N2  UNL     1      26.930   2.017  51.182  1.00  0.00    -0.257 NA
HETATM    9  C10 UNL     1      27.374   1.966  52.549  1.00  0.00     0.325 C 
HETATM   10  O2  UNL     1      26.687   0.883  53.214  1.00  0.00    -0.330 OA
HETATM   11  C11 UNL     1      25.308   0.909  53.163  1.00  0.00     0.073 A 
HETATM   12  C12 UNL     1      24.340  -0.042  53.363  1.00  0.00     0.037 A 
HETATM   13  C13 UNL     1      22.989   0.208  53.239  1.00  0.00     0.005 A 
HETATM   14  C14 UNL     1      22.472   1.459  52.894  1.00  0.00     0.031 A 
HETATM   15  C15 UNL     1      23.366   2.471  52.674  1.00  0.00     0.053 A 
HETATM   16  C16 UNL     1      24.659   2.064  52.843  1.00  0.00     0.067 A 
HETATM   17  N3  UNL     1      23.058   3.746  52.189  1.00  0.00    -0.287 N 
HETATM   18  C17 UNL     1      21.620   3.898  51.970  1.00  0.00     0.176 C 
HETATM   19  C18 UNL     1      21.362   5.166  51.215  1.00  0.00    -0.003 C 
HETATM   20  C19 UNL     1      21.801   6.284  50.655  1.00  0.00     0.036 C 
HETATM   21  N4  UNL     1      24.232   4.580  51.971  1.00  0.00    -0.275 N 
HETATM   22  H18 UNL     1      24.640   4.986  52.861  1.00  0.00     0.189 HD
ENDROOT
BRANCH   1  23
HETATM   23  O1  UNL     1      20.508   7.180  49.926  1.00  0.00    -0.322 OA
BRANCH  23  24
HETATM   24  C4  UNL     1      19.755   7.431  48.789  1.00  0.00     0.142 C 
HETATM   25  C3  UNL     1      19.093   8.568  48.656  1.00  0.00     0.024 C 
BRANCH  25  26
HETATM   26  C2  UNL     1      19.158   9.567  49.717  1.00  0.00    -0.008 C 
HETATM   27  C1  UNL     1      19.863  10.689  49.500  1.00  0.00     0.011 C 
ENDBRANCH  25  26
ENDBRANCH  23  24
ENDBRANCH   1  23
TORSDOF 3
ENDMDL
