MODEL 1
REMARK VINA RESULT:      -8.4      0.000      0.000
REMARK  8 active torsions:
REMARK  status: ('A' for Active; 'I' for Inactive)
REMARK    1  A    between atoms: O1_2  and  C2_3 
REMARK    2  A    between atoms: C6_9  and  N3_10 
REMARK    3  A    between atoms: N3_10  and  C7_11 
REMARK    4  A    between atoms: C15_21  and  O2_22 
REMARK    5  A    between atoms: O2_22  and  C16_23 
REMARK    6  A    between atoms: C16_23  and  C17_24 
REMARK    7  A    between atoms: C17_24  and  C18_25 
REMARK    8  A    between atoms: C18_25  and  N4_26 
ROOT
HETATM    1  C2  UNL     1      20.209   0.195  52.008  1.00  0.00     0.103 A 
HETATM    2  C3  UNL     1      20.284  -0.450  53.222  1.00  0.00     0.072 A 
HETATM    3  C4  UNL     1      21.548  -0.643  53.797  1.00  0.00     0.075 A 
HETATM    4  N1  UNL     1      21.734  -1.252  54.971  1.00  0.00    -0.241 NA
HETATM    5  C5  UNL     1      22.977  -1.399  55.465  1.00  0.00     0.236 A 
HETATM    6  N2  UNL     1      24.062  -0.933  54.777  1.00  0.00    -0.224 NA
HETATM    7  C6  UNL     1      23.936  -0.315  53.595  1.00  0.00     0.142 A 
HETATM    8  C13 UNL     1      22.641  -0.173  53.104  1.00  0.00     0.042 A 
HETATM    9  C14 UNL     1      22.537   0.468  51.892  1.00  0.00     0.057 A 
HETATM   10  C15 UNL     1      21.311   0.677  51.296  1.00  0.00     0.103 A 
ENDROOT
BRANCH   7  11
HETATM   11  N3  UNL     1      25.124   0.119  53.000  1.00  0.00    -0.340 N 
HETATM   12  H6  UNL     1      24.691   0.715  52.270  1.00  0.00     0.167 HD
BRANCH  11  13
HETATM   13  C7  UNL     1      26.516  -0.080  53.186  1.00  0.00     0.035 A 
HETATM   14  C8  UNL     1      27.072  -1.295  52.848  1.00  0.00     0.032 A 
HETATM   15  C9  UNL     1      28.419  -1.416  53.060  1.00  0.00     0.046 A 
HETATM   16  C10 UNL     1      29.210  -0.396  53.581  1.00  0.00     0.138 A 
HETATM   17  F1  UNL     1      30.543  -0.572  53.769  1.00  0.00    -0.204 F 
HETATM   18  C11 UNL     1      28.560   0.767  53.880  1.00  0.00     0.074 A 
HETATM   19 CL1  UNL     1      29.558   2.056  54.539  1.00  0.00    -0.081 Cl
HETATM   20  C12 UNL     1      27.204   0.991  53.705  1.00  0.00     0.056 A 
ENDBRANCH  11  13
ENDBRANCH   7  11
BRANCH  10  21
HETATM   21  O2  UNL     1      20.948   1.265  50.142  1.00  0.00    -0.348 OA
BRANCH  21  22
HETATM   22  C16 UNL     1      21.423   1.180  48.854  1.00  0.00     0.177 C 
BRANCH  22  23
HETATM   23  C17 UNL     1      22.162   2.361  48.316  1.00  0.00     0.057 C 
BRANCH  23  24
HETATM   24  C18 UNL     1      21.585   3.673  48.801  1.00  0.00     0.274 C 
BRANCH  24  25
HETATM   25  N4  UNL     1      22.461   4.404  49.684  1.00  0.00     0.092 N 
HETATM   26  C19 UNL     1      23.772   3.886  49.793  1.00  0.00     0.298 C 
HETATM   27  C20 UNL     1      24.232   3.589  51.187  1.00  0.00     0.198 C 
HETATM   28  O3  UNL     1      23.729   4.481  52.128  1.00  0.00    -0.388 OA
HETATM   29  C21 UNL     1      22.352   4.265  52.160  1.00  0.00     0.198 C 
HETATM   30  C22 UNL     1      21.775   4.739  50.869  1.00  0.00     0.298 C 
ENDBRANCH  24  25
ENDBRANCH  23  24
ENDBRANCH  22  23
ENDBRANCH  21  22
ENDBRANCH  10  21
BRANCH   1  31
HETATM   31  O1  UNL     1      18.907   0.317  51.564  1.00  0.00    -0.353 OA
HETATM   32  C1  UNL     1      17.865  -0.537  51.941  1.00  0.00     0.210 C 
ENDBRANCH   1  31
TORSDOF 8
ENDMDL
MODEL 2
REMARK VINA RESULT:      -8.0      3.113      5.924
REMARK  8 active torsions:
REMARK  status: ('A' for Active; 'I' for Inactive)
REMARK    1  A    between atoms: O1_2  and  C2_3 
REMARK    2  A    between atoms: C6_9  and  N3_10 
REMARK    3  A    between atoms: N3_10  and  C7_11 
REMARK    4  A    between atoms: C15_21  and  O2_22 
REMARK    5  A    between atoms: O2_22  and  C16_23 
REMARK    6  A    between atoms: C16_23  and  C17_24 
REMARK    7  A    between atoms: C17_24  and  C18_25 
REMARK    8  A    between atoms: C18_25  and  N4_26 
ROOT
HETATM    1  C2  UNL     1      20.494   0.968  52.772  1.00  0.00     0.103 A 
HETATM    2  C3  UNL     1      19.664   1.854  52.124  1.00  0.00     0.072 A 
HETATM    3  C4  UNL     1      20.221   3.033  51.608  1.00  0.00     0.075 A 
HETATM    4  N1  UNL     1      19.508   3.957  50.959  1.00  0.00    -0.241 NA
HETATM    5  C5  UNL     1      20.111   5.064  50.487  1.00  0.00     0.236 A 
HETATM    6  N2  UNL     1      21.451   5.259  50.663  1.00  0.00    -0.224 NA
HETATM    7  C6  UNL     1      22.217   4.366  51.306  1.00  0.00     0.142 A 
HETATM    8  C13 UNL     1      21.572   3.229  51.785  1.00  0.00     0.042 A 
HETATM    9  C14 UNL     1      22.378   2.326  52.438  1.00  0.00     0.057 A 
HETATM   10  C15 UNL     1      21.866   1.156  52.957  1.00  0.00     0.103 A 
ENDROOT
BRANCH   7  11
HETATM   11  N3  UNL     1      23.573   4.684  51.412  1.00  0.00    -0.340 N 
HETATM   12  H6  UNL     1      23.547   5.032  52.388  1.00  0.00     0.167 HD
BRANCH  11  13
HETATM   13  C7  UNL     1      24.725   4.625  50.586  1.00  0.00     0.035 A 
HETATM   14  C8  UNL     1      25.376   3.420  50.426  1.00  0.00     0.032 A 
HETATM   15  C9  UNL     1      26.481   3.439  49.619  1.00  0.00     0.046 A 
HETATM   16  C10 UNL     1      26.947   4.586  48.982  1.00  0.00     0.138 A 
HETATM   17  F1  UNL     1      28.051   4.546  48.192  1.00  0.00    -0.204 F 
HETATM   18  C11 UNL     1      26.230   5.725  49.206  1.00  0.00     0.074 A 
HETATM   19 CL1  UNL     1      26.819   7.174  48.403  1.00  0.00    -0.081 Cl
HETATM   20  C12 UNL     1      25.100   5.812  50.004  1.00  0.00     0.056 A 
ENDBRANCH  11  13
ENDBRANCH   7  11
BRANCH  10  21
HETATM   21  O2  UNL     1      22.430   0.131  53.623  1.00  0.00    -0.348 OA
BRANCH  21  22
HETATM   22  C16 UNL     1      23.556  -0.627  53.401  1.00  0.00     0.177 C 
BRANCH  22  23
HETATM   23  C17 UNL     1      24.848  -0.111  53.940  1.00  0.00     0.057 C 
BRANCH  23  24
HETATM   24  C18 UNL     1      25.599   0.734  52.934  1.00  0.00     0.274 C 
BRANCH  24  25
HETATM   25  N4  UNL     1      27.027   0.529  52.951  1.00  0.00     0.092 N 
HETATM   26  C19 UNL     1      27.503  -0.300  53.991  1.00  0.00     0.298 C 
HETATM   27  C20 UNL     1      28.571   0.299  54.854  1.00  0.00     0.198 C 
HETATM   28  O3  UNL     1      29.429   1.139  54.153  1.00  0.00    -0.388 OA
HETATM   29  C21 UNL     1      28.654   2.225  53.749  1.00  0.00     0.198 C 
HETATM   30  C22 UNL     1      27.688   1.753  52.716  1.00  0.00     0.298 C 
ENDBRANCH  24  25
ENDBRANCH  23  24
ENDBRANCH  22  23
ENDBRANCH  21  22
ENDBRANCH  10  21
BRANCH   1  31
HETATM   31  O1  UNL     1      19.814  -0.146  53.225  1.00  0.00    -0.353 OA
HETATM   32  C1  UNL     1      18.594  -0.588  52.701  1.00  0.00     0.210 C 
ENDBRANCH   1  31
TORSDOF 8
ENDMDL
MODEL 3
REMARK VINA RESULT:      -7.8      3.758      6.475
REMARK  8 active torsions:
REMARK  status: ('A' for Active; 'I' for Inactive)
REMARK    1  A    between atoms: O1_2  and  C2_3 
REMARK    2  A    between atoms: C6_9  and  N3_10 
REMARK    3  A    between atoms: N3_10  and  C7_11 
REMARK    4  A    between atoms: C15_21  and  O2_22 
REMARK    5  A    between atoms: O2_22  and  C16_23 
REMARK    6  A    between atoms: C16_23  and  C17_24 
REMARK    7  A    between atoms: C17_24  and  C18_25 
REMARK    8  A    between atoms: C18_25  and  N4_26 
ROOT
HETATM    1  C2  UNL     1      27.487   1.607  53.130  1.00  0.00     0.103 A 
HETATM    2  C3  UNL     1      27.272   0.774  54.205  1.00  0.00     0.072 A 
HETATM    3  C4  UNL     1      26.018   0.161  54.333  1.00  0.00     0.075 A 
HETATM    4  N1  UNL     1      25.706  -0.667  55.333  1.00  0.00    -0.241 NA
HETATM    5  C5  UNL     1      24.481  -1.223  55.391  1.00  0.00     0.236 A 
HETATM    6  N2  UNL     1      23.544  -0.951  54.434  1.00  0.00    -0.224 NA
HETATM    7  C6  UNL     1      23.801  -0.127  53.408  1.00  0.00     0.142 A 
HETATM    8  C13 UNL     1      25.075   0.435  53.369  1.00  0.00     0.042 A 
HETATM    9  C14 UNL     1      25.316   1.273  52.305  1.00  0.00     0.057 A 
HETATM   10  C15 UNL     1      26.537   1.892  52.146  1.00  0.00     0.103 A 
ENDROOT
BRANCH   7  11
HETATM   11  N3  UNL     1      22.759   0.061  52.497  1.00  0.00    -0.340 N 
HETATM   12  H6  UNL     1      23.341   0.381  51.701  1.00  0.00     0.167 HD
BRANCH  11  13
HETATM   13  C7  UNL     1      21.348  -0.079  52.484  1.00  0.00     0.035 A 
HETATM   14  C8  UNL     1      20.721  -0.658  53.567  1.00  0.00     0.032 A 
HETATM   15  C9  UNL     1      19.358  -0.764  53.483  1.00  0.00     0.046 A 
HETATM   16  C10 UNL     1      18.620  -0.326  52.387  1.00  0.00     0.138 A 
HETATM   17  F1  UNL     1      17.269  -0.458  52.358  1.00  0.00    -0.204 F 
HETATM   18  C11 UNL     1      19.338   0.232  51.369  1.00  0.00     0.074 A 
HETATM   19 CL1  UNL     1      18.405   0.784  49.985  1.00  0.00    -0.081 Cl
HETATM   20  C12 UNL     1      20.715   0.386  51.356  1.00  0.00     0.056 A 
ENDBRANCH  11  13
ENDBRANCH   7  11
BRANCH  10  21
HETATM   21  O2  UNL     1      27.015   2.736  51.213  1.00  0.00    -0.348 OA
BRANCH  21  22
HETATM   22  C16 UNL     1      26.503   3.219  50.031  1.00  0.00     0.177 C 
BRANCH  22  23
HETATM   23  C17 UNL     1      25.479   4.301  50.119  1.00  0.00     0.057 C 
BRANCH  23  24
HETATM   24  C18 UNL     1      24.365   4.125  49.111  1.00  0.00     0.274 C 
BRANCH  24  25
HETATM   25  N4  UNL     1      23.045   4.317  49.662  1.00  0.00     0.092 N 
HETATM   26  C19 UNL     1      22.733   5.647  50.025  1.00  0.00     0.298 C 
HETATM   27  C20 UNL     1      22.278   5.837  51.439  1.00  0.00     0.198 C 
HETATM   28  O3  UNL     1      21.534   4.766  51.921  1.00  0.00    -0.388 OA
HETATM   29  C21 UNL     1      22.414   3.686  51.978  1.00  0.00     0.198 C 
HETATM   30  C22 UNL     1      22.758   3.288  50.583  1.00  0.00     0.298 C 
ENDBRANCH  24  25
ENDBRANCH  23  24
ENDBRANCH  22  23
ENDBRANCH  21  22
ENDBRANCH  10  21
BRANCH   1  31
HETATM   31  O1  UNL     1      28.762   2.137  53.130  1.00  0.00    -0.353 OA
HETATM   32  C1  UNL     1      29.583   2.211  54.261  1.00  0.00     0.210 C 
ENDBRANCH   1  31
TORSDOF 8
ENDMDL
MODEL 4
REMARK VINA RESULT:      -7.7      3.911      6.480
REMARK  8 active torsions:
REMARK  status: ('A' for Active; 'I' for Inactive)
REMARK    1  A    between atoms: O1_2  and  C2_3 
REMARK    2  A    between atoms: C6_9  and  N3_10 
REMARK    3  A    between atoms: N3_10  and  C7_11 
REMARK    4  A    between atoms: C15_21  and  O2_22 
REMARK    5  A    between atoms: O2_22  and  C16_23 
REMARK    6  A    between atoms: C16_23  and  C17_24 
REMARK    7  A    between atoms: C17_24  and  C18_25 
REMARK    8  A    between atoms: C18_25  and  N4_26 
ROOT
HETATM    1  C2  UNL     1      26.983   0.641  53.269  1.00  0.00     0.103 A 
HETATM    2  C3  UNL     1      26.607  -0.063  54.391  1.00  0.00     0.072 A 
HETATM    3  C4  UNL     1      25.271  -0.471  54.504  1.00  0.00     0.075 A 
HETATM    4  N1  UNL     1      24.801  -1.161  55.546  1.00  0.00    -0.241 NA
HETATM    5  C5  UNL     1      23.505  -1.524  55.587  1.00  0.00     0.236 A 
HETATM    6  N2  UNL     1      22.655  -1.192  54.570  1.00  0.00    -0.224 NA
HETATM    7  C6  UNL     1      23.070  -0.501  53.500  1.00  0.00     0.142 A 
HETATM    8  C13 UNL     1      24.414  -0.138  53.479  1.00  0.00     0.042 A 
HETATM    9  C14 UNL     1      24.817   0.567  52.369  1.00  0.00     0.057 A 
HETATM   10  C15 UNL     1      26.123   0.984  52.222  1.00  0.00     0.103 A 
ENDROOT
BRANCH   7  11
HETATM   11  N3  UNL     1      22.101  -0.233  52.529  1.00  0.00    -0.340 N 
HETATM   12  H6  UNL     1      22.329  -1.025  51.900  1.00  0.00     0.167 HD
BRANCH  11  13
HETATM   13  C7  UNL     1      21.085   0.731  52.309  1.00  0.00     0.035 A 
HETATM   14  C8  UNL     1      21.371   2.065  52.506  1.00  0.00     0.032 A 
HETATM   15  C9  UNL     1      20.341   2.938  52.279  1.00  0.00     0.046 A 
HETATM   16  C10 UNL     1      19.071   2.538  51.873  1.00  0.00     0.138 A 
HETATM   17  F1  UNL     1      18.086   3.450  51.663  1.00  0.00    -0.204 F 
HETATM   18  C11 UNL     1      18.894   1.195  51.706  1.00  0.00     0.074 A 
HETATM   19 CL1  UNL     1      17.289   0.690  51.195  1.00  0.00    -0.081 Cl
HETATM   20  C12 UNL     1      19.868   0.232  51.910  1.00  0.00     0.056 A 
ENDBRANCH  11  13
ENDBRANCH   7  11
BRANCH  10  21
HETATM   21  O2  UNL     1      26.756   1.670  51.254  1.00  0.00    -0.348 OA
BRANCH  21  22
HETATM   22  C16 UNL     1      26.723   2.988  50.861  1.00  0.00     0.177 C 
BRANCH  22  23
HETATM   23  C17 UNL     1      25.976   3.313  49.611  1.00  0.00     0.057 C 
BRANCH  23  24
HETATM   24  C18 UNL     1      26.000   4.791  49.289  1.00  0.00     0.274 C 
BRANCH  24  25
HETATM   25  N4  UNL     1      24.713   5.434  49.406  1.00  0.00     0.092 N 
HETATM   26  C19 UNL     1      24.429   5.983  50.677  1.00  0.00     0.298 C 
HETATM   27  C20 UNL     1      23.153   5.517  51.308  1.00  0.00     0.198 C 
HETATM   28  O3  UNL     1      22.142   5.283  50.383  1.00  0.00    -0.388 OA
HETATM   29  C21 UNL     1      22.570   4.200  49.617  1.00  0.00     0.198 C 
HETATM   30  C22 UNL     1      23.725   4.642  48.785  1.00  0.00     0.298 C 
ENDBRANCH  24  25
ENDBRANCH  23  24
ENDBRANCH  22  23
ENDBRANCH  21  22
ENDBRANCH  10  21
BRANCH   1  31
HETATM   31  O1  UNL     1      28.323   0.974  53.289  1.00  0.00    -0.353 OA
HETATM   32  C1  UNL     1      29.337   0.127  53.750  1.00  0.00     0.210 C 
ENDBRANCH   1  31
TORSDOF 8
ENDMDL
MODEL 5
REMARK VINA RESULT:      -7.7      1.483      2.138
REMARK  8 active torsions:
REMARK  status: ('A' for Active; 'I' for Inactive)
REMARK    1  A    between atoms: O1_2  and  C2_3 
REMARK    2  A    between atoms: C6_9  and  N3_10 
REMARK    3  A    between atoms: N3_10  and  C7_11 
REMARK    4  A    between atoms: C15_21  and  O2_22 
REMARK    5  A    between atoms: O2_22  and  C16_23 
REMARK    6  A    between atoms: C16_23  and  C17_24 
REMARK    7  A    between atoms: C17_24  and  C18_25 
REMARK    8  A    between atoms: C18_25  and  N4_26 
ROOT
HETATM    1  C2  UNL     1      19.844   0.272  52.322  1.00  0.00     0.103 A 
HETATM    2  C3  UNL     1      20.028  -0.488  53.455  1.00  0.00     0.072 A 
HETATM    3  C4  UNL     1      21.335  -0.677  53.925  1.00  0.00     0.075 A 
HETATM    4  N1  UNL     1      21.626  -1.391  55.015  1.00  0.00    -0.241 NA
HETATM    5  C5  UNL     1      22.906  -1.528  55.410  1.00  0.00     0.236 A 
HETATM    6  N2  UNL     1      23.921  -0.943  54.706  1.00  0.00    -0.224 NA
HETATM    7  C6  UNL     1      23.689  -0.216  53.604  1.00  0.00     0.142 A 
HETATM    8  C13 UNL     1      22.358  -0.088  53.216  1.00  0.00     0.042 A 
HETATM    9  C14 UNL     1      22.144   0.666  52.085  1.00  0.00     0.057 A 
HETATM   10  C15 UNL     1      20.873   0.875  51.595  1.00  0.00     0.103 A 
ENDROOT
BRANCH   7  11
HETATM   11  N3  UNL     1      24.814   0.332  52.982  1.00  0.00    -0.340 N 
HETATM   12  H6  UNL     1      24.313   0.809  52.210  1.00  0.00     0.167 HD
BRANCH  11  13
HETATM   13  C7  UNL     1      26.217   0.339  53.186  1.00  0.00     0.035 A 
HETATM   14  C8  UNL     1      26.846   1.528  53.489  1.00  0.00     0.032 A 
HETATM   15  C9  UNL     1      28.202   1.459  53.668  1.00  0.00     0.046 A 
HETATM   16  C10 UNL     1      28.932   0.279  53.558  1.00  0.00     0.138 A 
HETATM   17  F1  UNL     1      30.277   0.270  53.746  1.00  0.00    -0.204 F 
HETATM   18  C11 UNL     1      28.213  -0.841  53.256  1.00  0.00     0.074 A 
HETATM   19 CL1  UNL     1      29.135  -2.331  53.116  1.00  0.00    -0.081 Cl
HETATM   20  C12 UNL     1      26.842  -0.878  53.056  1.00  0.00     0.056 A 
ENDBRANCH  11  13
ENDBRANCH   7  11
BRANCH  10  21
HETATM   21  O2  UNL     1      20.407   1.558  50.533  1.00  0.00    -0.348 OA
BRANCH  21  22
HETATM   22  C16 UNL     1      20.600   2.844  50.085  1.00  0.00     0.177 C 
BRANCH  22  23
HETATM   23  C17 UNL     1      20.295   3.955  51.034  1.00  0.00     0.057 C 
BRANCH  23  24
HETATM   24  C18 UNL     1      21.491   4.340  51.877  1.00  0.00     0.274 C 
BRANCH  24  25
HETATM   25  N4  UNL     1      22.148   5.547  51.437  1.00  0.00     0.092 N 
HETATM   26  C19 UNL     1      21.357   6.408  50.644  1.00  0.00     0.298 C 
HETATM   27  C20 UNL     1      21.941   6.779  49.316  1.00  0.00     0.198 C 
HETATM   28  O3  UNL     1      23.326   6.898  49.346  1.00  0.00    -0.388 OA
HETATM   29  C21 UNL     1      23.814   5.617  49.598  1.00  0.00     0.198 C 
HETATM   30  C22 UNL     1      23.454   5.246  50.996  1.00  0.00     0.298 C 
ENDBRANCH  24  25
ENDBRANCH  23  24
ENDBRANCH  22  23
ENDBRANCH  21  22
ENDBRANCH  10  21
BRANCH   1  31
HETATM   31  O1  UNL     1      18.510   0.376  51.977  1.00  0.00    -0.353 OA
HETATM   32  C1  UNL     1      17.537  -0.575  52.306  1.00  0.00     0.210 C 
ENDBRANCH   1  31
TORSDOF 8
ENDMDL
MODEL 6
REMARK VINA RESULT:      -7.6      3.832      6.082
REMARK  8 active torsions:
REMARK  status: ('A' for Active; 'I' for Inactive)
REMARK    1  A    between atoms: O1_2  and  C2_3 
REMARK    2  A    between atoms: C6_9  and  N3_10 
REMARK    3  A    between atoms: N3_10  and  C7_11 
REMARK    4  A    between atoms: C15_21  and  O2_22 
REMARK    5  A    between atoms: O2_22  and  C16_23 
REMARK    6  A    between atoms: C16_23  and  C17_24 
REMARK    7  A    between atoms: C17_24  and  C18_25 
REMARK    8  A    between atoms: C18_25  and  N4_26 
ROOT
HETATM    1  C2  UNL     1      25.918  -0.168  53.523  1.00  0.00     0.103 A 
HETATM    2  C3  UNL     1      25.031  -0.861  54.316  1.00  0.00     0.072 A 
HETATM    3  C4  UNL     1      23.665  -0.571  54.197  1.00  0.00     0.075 A 
HETATM    4  N1  UNL     1      22.720  -1.186  54.913  1.00  0.00    -0.241 NA
HETATM    5  C5  UNL     1      21.426  -0.859  54.744  1.00  0.00     0.236 A 
HETATM    6  N2  UNL     1      21.059   0.101  53.844  1.00  0.00    -0.224 NA
HETATM    7  C6  UNL     1      21.964   0.752  53.098  1.00  0.00     0.142 A 
HETATM    8  C13 UNL     1      23.296   0.396  53.290  1.00  0.00     0.042 A 
HETATM    9  C14 UNL     1      24.205   1.073  52.510  1.00  0.00     0.057 A 
HETATM   10  C15 UNL     1      25.556   0.815  52.598  1.00  0.00     0.103 A 
ENDROOT
BRANCH   7  11
HETATM   11  N3  UNL     1      21.456   1.706  52.211  1.00  0.00    -0.340 N 
HETATM   12  H6  UNL     1      20.961   2.283  52.915  1.00  0.00     0.167 HD
BRANCH  11  13
HETATM   13  C7  UNL     1      21.496   1.957  50.816  1.00  0.00     0.035 A 
HETATM   14  C8  UNL     1      21.544   0.891  49.943  1.00  0.00     0.032 A 
HETATM   15  C9  UNL     1      21.584   1.209  48.612  1.00  0.00     0.046 A 
HETATM   16  C10 UNL     1      21.579   2.516  48.134  1.00  0.00     0.138 A 
HETATM   17  F1  UNL     1      21.621   2.772  46.801  1.00  0.00    -0.204 F 
HETATM   18  C11 UNL     1      21.529   3.497  49.082  1.00  0.00     0.074 A 
HETATM   19 CL1  UNL     1      21.523   5.148  48.479  1.00  0.00    -0.081 Cl
HETATM   20  C12 UNL     1      21.485   3.281  50.450  1.00  0.00     0.056 A 
ENDBRANCH  11  13
ENDBRANCH   7  11
BRANCH  10  21
HETATM   21  O2  UNL     1      26.625   1.326  51.962  1.00  0.00    -0.348 OA
BRANCH  21  22
HETATM   22  C16 UNL     1      26.889   2.558  51.408  1.00  0.00     0.177 C 
BRANCH  22  23
HETATM   23  C17 UNL     1      26.184   2.904  50.138  1.00  0.00     0.057 C 
BRANCH  23  24
HETATM   24  C18 UNL     1      26.887   4.001  49.368  1.00  0.00     0.274 C 
BRANCH  24  25
HETATM   25  N4  UNL     1      26.035   5.116  49.035  1.00  0.00     0.092 N 
HETATM   26  C19 UNL     1      26.694   6.360  48.907  1.00  0.00     0.298 C 
HETATM   27  C20 UNL     1      26.150   7.467  49.756  1.00  0.00     0.198 C 
HETATM   28  O3  UNL     1      24.771   7.397  49.922  1.00  0.00    -0.388 OA
HETATM   29  C21 UNL     1      24.535   6.240  50.662  1.00  0.00     0.198 C 
HETATM   30  C22 UNL     1      24.854   5.063  49.805  1.00  0.00     0.298 C 
ENDBRANCH  24  25
ENDBRANCH  23  24
ENDBRANCH  22  23
ENDBRANCH  21  22
ENDBRANCH  10  21
BRANCH   1  31
HETATM   31  O1  UNL     1      27.225  -0.557  53.743  1.00  0.00    -0.353 OA
HETATM   32  C1  UNL     1      28.065   0.020  54.703  1.00  0.00     0.210 C 
ENDBRANCH   1  31
TORSDOF 8
ENDMDL
MODEL 7
REMARK VINA RESULT:      -7.5      2.347      5.427
REMARK  8 active torsions:
REMARK  status: ('A' for Active; 'I' for Inactive)
REMARK    1  A    between atoms: O1_2  and  C2_3 
REMARK    2  A    between atoms: C6_9  and  N3_10 
REMARK    3  A    between atoms: N3_10  and  C7_11 
REMARK    4  A    between atoms: C15_21  and  O2_22 
REMARK    5  A    between atoms: O2_22  and  C16_23 
REMARK    6  A    between atoms: C16_23  and  C17_24 
REMARK    7  A    between atoms: C17_24  and  C18_25 
REMARK    8  A    between atoms: C18_25  and  N4_26 
ROOT
HETATM    1  C2  UNL     1      22.341   5.284  50.006  1.00  0.00     0.103 A 
HETATM    2  C3  UNL     1      23.469   5.555  49.264  1.00  0.00     0.072 A 
HETATM    3  C4  UNL     1      24.645   4.852  49.559  1.00  0.00     0.075 A 
HETATM    4  N1  UNL     1      25.792   5.033  48.900  1.00  0.00    -0.241 NA
HETATM    5  C5  UNL     1      26.883   4.320  49.235  1.00  0.00     0.236 A 
HETATM    6  N2  UNL     1      26.836   3.406  50.250  1.00  0.00    -0.224 NA
HETATM    7  C6  UNL     1      25.713   3.182  50.947  1.00  0.00     0.142 A 
HETATM    8  C13 UNL     1      24.597   3.931  50.581  1.00  0.00     0.042 A 
HETATM    9  C14 UNL     1      23.456   3.681  51.307  1.00  0.00     0.057 A 
HETATM   10  C15 UNL     1      22.280   4.351  51.045  1.00  0.00     0.103 A 
ENDROOT
BRANCH   7  11
HETATM   11  N3  UNL     1      25.797   2.217  51.954  1.00  0.00    -0.340 N 
HETATM   12  H6  UNL     1      24.816   2.289  52.282  1.00  0.00     0.167 HD
BRANCH  11  13
HETATM   13  C7  UNL     1      26.786   1.350  52.486  1.00  0.00     0.035 A 
HETATM   14  C8  UNL     1      27.856   1.889  53.166  1.00  0.00     0.032 A 
HETATM   15  C9  UNL     1      28.772   0.993  53.647  1.00  0.00     0.046 A 
HETATM   16  C10 UNL     1      28.661  -0.384  53.478  1.00  0.00     0.138 A 
HETATM   17  F1  UNL     1      29.602  -1.227  53.978  1.00  0.00    -0.204 F 
HETATM   18  C11 UNL     1      27.563  -0.814  52.791  1.00  0.00     0.074 A 
HETATM   19 CL1  UNL     1      27.423  -2.553  52.576  1.00  0.00    -0.081 Cl
HETATM   20  C12 UNL     1      26.581   0.009  52.264  1.00  0.00     0.056 A 
ENDBRANCH  11  13
ENDBRANCH   7  11
BRANCH  10  21
HETATM   21  O2  UNL     1      21.055   4.291  51.596  1.00  0.00    -0.348 OA
BRANCH  21  22
HETATM   22  C16 UNL     1      19.874   3.707  51.201  1.00  0.00     0.177 C 
BRANCH  22  23
HETATM   23  C17 UNL     1      19.442   2.475  51.925  1.00  0.00     0.057 C 
BRANCH  23  24
HETATM   24  C18 UNL     1      20.502   1.959  52.872  1.00  0.00     0.274 C 
BRANCH  24  25
HETATM   25  N4  UNL     1      20.857   0.578  52.653  1.00  0.00     0.092 N 
HETATM   26  C19 UNL     1      20.070  -0.364  53.354  1.00  0.00     0.298 C 
HETATM   27  C20 UNL     1      20.832  -1.329  54.210  1.00  0.00     0.198 C 
HETATM   28  O3  UNL     1      22.063  -1.681  53.668  1.00  0.00    -0.388 OA
HETATM   29  C21 UNL     1      22.832  -0.519  53.681  1.00  0.00     0.198 C 
HETATM   30  C22 UNL     1      22.260   0.433  52.687  1.00  0.00     0.298 C 
ENDBRANCH  24  25
ENDBRANCH  23  24
ENDBRANCH  22  23
ENDBRANCH  21  22
ENDBRANCH  10  21
BRANCH   1  31
HETATM   31  O1  UNL     1      21.260   6.045  49.606  1.00  0.00    -0.353 OA
HETATM   32  C1  UNL     1      21.067   7.384  49.962  1.00  0.00     0.210 C 
ENDBRANCH   1  31
TORSDOF 8
ENDMDL
MODEL 8
REMARK VINA RESULT:      -7.5      6.146      9.160
REMARK  8 active torsions:
REMARK  status: ('A' for Active; 'I' for Inactive)
REMARK    1  A    between atoms: O1_2  and  C2_3 
REMARK    2  A    between atoms: C6_9  and  N3_10 
REMARK    3  A    between atoms: N3_10  and  C7_11 
REMARK    4  A    between atoms: C15_21  and  O2_22 
REMARK    5  A    between atoms: O2_22  and  C16_23 
REMARK    6  A    between atoms: C16_23  and  C17_24 
REMARK    7  A    between atoms: C17_24  and  C18_25 
REMARK    8  A    between atoms: C18_25  and  N4_26 
ROOT
HETATM    1  C2  UNL     1      26.095   6.724  49.553  1.00  0.00     0.103 A 
HETATM    2  C3  UNL     1      26.616   7.993  49.667  1.00  0.00     0.072 A 
HETATM    3  C4  UNL     1      27.882   8.245  49.119  1.00  0.00     0.075 A 
HETATM    4  N1  UNL     1      28.478   9.439  49.171  1.00  0.00    -0.241 NA
HETATM    5  C5  UNL     1      29.694   9.610  48.619  1.00  0.00     0.236 A 
HETATM    6  N2  UNL     1      30.334   8.572  48.003  1.00  0.00    -0.224 NA
HETATM    7  C6  UNL     1      29.785   7.352  47.922  1.00  0.00     0.142 A 
HETATM    8  C13 UNL     1      28.526   7.200  48.499  1.00  0.00     0.042 A 
HETATM    9  C14 UNL     1      27.981   5.941  48.399  1.00  0.00     0.057 A 
HETATM   10  C15 UNL     1      26.739   5.655  48.925  1.00  0.00     0.103 A 
ENDROOT
BRANCH   7  11
HETATM   11  N3  UNL     1      30.541   6.381  47.261  1.00  0.00    -0.340 N 
HETATM   12  H6  UNL     1      29.952   6.317  46.410  1.00  0.00     0.167 HD
BRANCH  11  13
HETATM   13  C7  UNL     1      31.720   5.632  47.508  1.00  0.00     0.035 A 
HETATM   14  C8  UNL     1      32.843   6.281  47.975  1.00  0.00     0.032 A 
HETATM   15  C9  UNL     1      33.944   5.496  48.186  1.00  0.00     0.046 A 
HETATM   16  C10 UNL     1      33.964   4.123  47.954  1.00  0.00     0.138 A 
HETATM   17  F1  UNL     1      35.087   3.393  48.181  1.00  0.00    -0.204 F 
HETATM   18  C11 UNL     1      32.800   3.579  47.494  1.00  0.00     0.074 A 
HETATM   19 CL1  UNL     1      32.825   1.846  47.200  1.00  0.00    -0.081 Cl
HETATM   20  C12 UNL     1      31.633   4.285  47.248  1.00  0.00     0.056 A 
ENDBRANCH  11  13
ENDBRANCH   7  11
BRANCH  10  21
HETATM   21  O2  UNL     1      26.001   4.531  48.958  1.00  0.00    -0.348 OA
BRANCH  21  22
HETATM   22  C16 UNL     1      26.205   3.289  49.511  1.00  0.00     0.177 C 
BRANCH  22  23
HETATM   23  C17 UNL     1      26.117   3.177  50.997  1.00  0.00     0.057 C 
BRANCH  23  24
HETATM   24  C18 UNL     1      26.979   2.061  51.545  1.00  0.00     0.274 C 
BRANCH  24  25
HETATM   25  N4  UNL     1      27.216   2.151  52.965  1.00  0.00     0.092 N 
HETATM   26  C19 UNL     1      28.561   2.370  53.338  1.00  0.00     0.298 C 
HETATM   27  C20 UNL     1      29.131   1.376  54.303  1.00  0.00     0.198 C 
HETATM   28  O3  UNL     1      28.197   0.912  55.222  1.00  0.00    -0.388 OA
HETATM   29  C21 UNL     1      27.264   0.187  54.482  1.00  0.00     0.198 C 
HETATM   30  C22 UNL     1      26.493   1.141  53.635  1.00  0.00     0.298 C 
ENDBRANCH  24  25
ENDBRANCH  23  24
ENDBRANCH  22  23
ENDBRANCH  21  22
ENDBRANCH  10  21
BRANCH   1  31
HETATM   31  O1  UNL     1      24.846   6.621  50.133  1.00  0.00    -0.353 OA
HETATM   32  C1  UNL     1      23.655   7.014  49.511  1.00  0.00     0.210 C 
ENDBRANCH   1  31
TORSDOF 8
ENDMDL
MODEL 9
REMARK VINA RESULT:      -7.4      3.594      5.383
REMARK  8 active torsions:
REMARK  status: ('A' for Active; 'I' for Inactive)
REMARK    1  A    between atoms: O1_2  and  C2_3 
REMARK    2  A    between atoms: C6_9  and  N3_10 
REMARK    3  A    between atoms: N3_10  and  C7_11 
REMARK    4  A    between atoms: C15_21  and  O2_22 
REMARK    5  A    between atoms: O2_22  and  C16_23 
REMARK    6  A    between atoms: C16_23  and  C17_24 
REMARK    7  A    between atoms: C17_24  and  C18_25 
REMARK    8  A    between atoms: C18_25  and  N4_26 
ROOT
HETATM    1  C2  UNL     1      23.053   0.517  52.588  1.00  0.00     0.103 A 
HETATM    2  C3  UNL     1      24.219   0.451  53.316  1.00  0.00     0.072 A 
HETATM    3  C4  UNL     1      25.346   1.128  52.832  1.00  0.00     0.075 A 
HETATM    4  N1  UNL     1      26.525   1.133  53.461  1.00  0.00    -0.241 NA
HETATM    5  C5  UNL     1      27.565   1.808  52.938  1.00  0.00     0.236 A 
HETATM    6  N2  UNL     1      27.434   2.494  51.763  1.00  0.00    -0.224 NA
HETATM    7  C6  UNL     1      26.277   2.523  51.088  1.00  0.00     0.142 A 
HETATM    8  C13 UNL     1      25.214   1.818  51.648  1.00  0.00     0.042 A 
HETATM    9  C14 UNL     1      24.036   1.867  50.940  1.00  0.00     0.057 A 
HETATM   10  C15 UNL     1      22.906   1.215  51.386  1.00  0.00     0.103 A 
ENDROOT
BRANCH   7  11
HETATM   11  N3  UNL     1      26.276   3.266  49.904  1.00  0.00    -0.340 N 
HETATM   12  H6  UNL     1      26.093   2.476  49.258  1.00  0.00     0.167 HD
BRANCH  11  13
HETATM   13  C7  UNL     1      26.448   4.622  49.524  1.00  0.00     0.035 A 
HETATM   14  C8  UNL     1      27.511   4.963  48.716  1.00  0.00     0.032 A 
HETATM   15  C9  UNL     1      27.616   6.289  48.394  1.00  0.00     0.046 A 
HETATM   16  C10 UNL     1      26.723   7.260  48.837  1.00  0.00     0.138 A 
HETATM   17  F1  UNL     1      26.877   8.563  48.486  1.00  0.00    -0.204 F 
HETATM   18  C11 UNL     1      25.706   6.816  49.632  1.00  0.00     0.074 A 
HETATM   19 CL1  UNL     1      24.578   8.043  50.193  1.00  0.00    -0.081 Cl
HETATM   20  C12 UNL     1      25.511   5.499  50.015  1.00  0.00     0.056 A 
ENDBRANCH  11  13
ENDBRANCH   7  11
BRANCH  10  21
HETATM   21  O2  UNL     1      21.660   1.111  50.890  1.00  0.00    -0.348 OA
BRANCH  21  22
HETATM   22  C16 UNL     1      21.162   0.677  49.684  1.00  0.00     0.177 C 
BRANCH  22  23
HETATM   23  C17 UNL     1      20.929   1.707  48.628  1.00  0.00     0.057 C 
BRANCH  23  24
HETATM   24  C18 UNL     1      20.664   3.079  49.208  1.00  0.00     0.274 C 
BRANCH  24  25
HETATM   25  N4  UNL     1      21.767   3.997  49.060  1.00  0.00     0.092 N 
HETATM   26  C19 UNL     1      21.544   5.293  49.578  1.00  0.00     0.298 C 
HETATM   27  C20 UNL     1      21.762   6.418  48.614  1.00  0.00     0.198 C 
HETATM   28  O3  UNL     1      22.792   6.170  47.713  1.00  0.00    -0.388 OA
HETATM   29  C21 UNL     1      22.358   5.109  46.921  1.00  0.00     0.198 C 
HETATM   30  C22 UNL     1      22.315   3.881  47.766  1.00  0.00     0.298 C 
ENDBRANCH  24  25
ENDBRANCH  23  24
ENDBRANCH  22  23
ENDBRANCH  21  22
ENDBRANCH  10  21
BRANCH   1  31
HETATM   31  O1  UNL     1      22.027  -0.191  53.182  1.00  0.00    -0.353 OA
HETATM   32  C1  UNL     1      21.400   0.187  54.375  1.00  0.00     0.210 C 
ENDBRANCH   1  31
TORSDOF 8
ENDMDL
