MODEL 1
REMARK VINA RESULT:      -8.5      0.000      0.000
REMARK  1 active torsions:
REMARK  status: ('A' for Active; 'I' for Inactive)
REMARK    1  A    between atoms: C5_5  and  O1_6 
ROOT
HETATM    1  C1  UNL     1      27.189  -1.914  52.589  1.00  0.00     0.048 C 
HETATM    2  C2  UNL     1      26.375  -0.651  52.606  1.00  0.00    -0.062 C 
HETATM    3  C3  UNL     1      26.639   0.466  51.991  1.00  0.00     0.009 C 
HETATM    4  C4  UNL     1      26.818   1.756  51.360  1.00  0.00     0.032 C 
HETATM    5  C5  UNL     1      26.024   2.779  51.406  1.00  0.00     0.044 C 
HETATM    6  C6  UNL     1      24.777   2.529  52.226  1.00  0.00     0.084 C 
HETATM    7  C7  UNL     1      23.705   2.363  51.213  1.00  0.00     0.133 C 
HETATM    8  N1  UNL     1      22.393   2.008  51.671  1.00  0.00    -0.336 N 
HETATM    9  C8  UNL     1      21.254   2.905  51.968  1.00  0.00     0.397 C 
HETATM   10  N2  UNL     1      20.151   2.574  51.076  1.00  0.00     0.104 N 
HETATM   11  C9  UNL     1      20.530   1.432  50.235  1.00  0.00     0.303 C 
HETATM   12  C10 UNL     1      20.949   0.286  51.117  1.00  0.00     0.058 C 
HETATM   13  C11 UNL     1      21.978   0.635  51.898  1.00  0.00     0.139 C 
HETATM   14  O2  UNL     1      22.498  -0.294  52.782  1.00  0.00    -0.336 OA
HETATM   15  C12 UNL     1      21.665  -1.225  53.463  1.00  0.00     0.177 C 
HETATM   16  C13 UNL     1      21.908  -0.940  54.937  1.00  0.00     0.030 C 
HETATM   17  C14 UNL     1      23.318  -1.196  55.350  1.00  0.00     0.029 C 
HETATM   18  C15 UNL     1      24.295  -0.623  54.363  1.00  0.00    -0.026 C 
HETATM   19  C16 UNL     1      25.321  -0.879  53.570  1.00  0.00     0.003 C 
HETATM   20  H13 UNL     1      20.026   3.379  50.432  1.00  0.00     0.318 HD
ENDROOT
BRANCH   5  21
HETATM   21  O1  UNL     1      26.131   4.009  50.844  1.00  0.00    -0.365 OA
HETATM   22  H6  UNL     1      26.180   4.104  49.829  1.00  0.00     0.217 HD
ENDBRANCH   5  21
TORSDOF 1
ENDMDL
MODEL 2
REMARK VINA RESULT:      -8.0      2.165      6.058
REMARK  1 active torsions:
REMARK  status: ('A' for Active; 'I' for Inactive)
REMARK    1  A    between atoms: C5_5  and  O1_6 
ROOT
HETATM    1  C1  UNL     1      21.076   0.995  49.046  1.00  0.00     0.048 C 
HETATM    2  C2  UNL     1      21.675   0.969  50.424  1.00  0.00    -0.062 C 
HETATM    3  C3  UNL     1      21.264   0.280  51.450  1.00  0.00     0.009 C 
HETATM    4  C4  UNL     1      20.910  -0.431  52.659  1.00  0.00     0.032 C 
HETATM    5  C5  UNL     1      21.527  -0.416  53.799  1.00  0.00     0.044 C 
HETATM    6  C6  UNL     1      22.758   0.464  53.798  1.00  0.00     0.084 C 
HETATM    7  C7  UNL     1      23.888  -0.496  53.756  1.00  0.00     0.133 C 
HETATM    8  N1  UNL     1      25.217   0.031  53.644  1.00  0.00    -0.336 N 
HETATM    9  C8  UNL     1      26.183   0.318  54.729  1.00  0.00     0.397 C 
HETATM   10  N2  UNL     1      27.365  -0.511  54.536  1.00  0.00     0.104 N 
HETATM   11  C9  UNL     1      27.214  -1.297  53.306  1.00  0.00     0.303 C 
HETATM   12  C10 UNL     1      26.944  -0.366  52.154  1.00  0.00     0.058 C 
HETATM   13  C11 UNL     1      25.837   0.354  52.371  1.00  0.00     0.139 C 
HETATM   14  O2  UNL     1      25.432   1.271  51.416  1.00  0.00    -0.336 OA
HETATM   15  C12 UNL     1      26.370   2.035  50.669  1.00  0.00     0.177 C 
HETATM   16  C13 UNL     1      26.017   3.480  50.988  1.00  0.00     0.030 C 
HETATM   17  C14 UNL     1      24.647   3.854  50.526  1.00  0.00     0.029 C 
HETATM   18  C15 UNL     1      23.639   2.798  50.881  1.00  0.00    -0.026 C 
HETATM   19  C16 UNL     1      22.706   1.984  50.420  1.00  0.00     0.003 C 
HETATM   20  H13 UNL     1      27.389  -1.196  55.316  1.00  0.00     0.318 HD
ENDROOT
BRANCH   5  21
HETATM   21  O1  UNL     1      21.250  -1.052  54.964  1.00  0.00    -0.365 OA
HETATM   22  H6  UNL     1      20.788  -1.962  54.951  1.00  0.00     0.217 HD
ENDBRANCH   5  21
TORSDOF 1
ENDMDL
MODEL 3
REMARK VINA RESULT:      -7.6      1.809      4.664
REMARK  1 active torsions:
REMARK  status: ('A' for Active; 'I' for Inactive)
REMARK    1  A    between atoms: C5_5  and  O1_6 
ROOT
HETATM    1  C1  UNL     1      23.389  -1.500  55.750  1.00  0.00     0.048 C 
HETATM    2  C2  UNL     1      22.898  -0.876  54.475  1.00  0.00    -0.062 C 
HETATM    3  C3  UNL     1      21.664  -0.779  54.068  1.00  0.00     0.009 C 
HETATM    4  C4  UNL     1      20.342  -0.608  53.506  1.00  0.00     0.032 C 
HETATM    5  C5  UNL     1      20.019  -0.008  52.404  1.00  0.00     0.044 C 
HETATM    6  C6  UNL     1      21.209   0.564  51.666  1.00  0.00     0.084 C 
HETATM    7  C7  UNL     1      21.118   2.025  51.911  1.00  0.00     0.133 C 
HETATM    8  N1  UNL     1      22.177   2.859  51.420  1.00  0.00    -0.336 N 
HETATM    9  C8  UNL     1      22.236   3.605  50.142  1.00  0.00     0.397 C 
HETATM   10  N2  UNL     1      22.343   5.028  50.434  1.00  0.00     0.104 N 
HETATM   11  C9  UNL     1      22.412   5.223  51.887  1.00  0.00     0.303 C 
HETATM   12  C10 UNL     1      23.555   4.413  52.441  1.00  0.00     0.058 C 
HETATM   13  C11 UNL     1      23.396   3.114  52.166  1.00  0.00     0.139 C 
HETATM   14  O2  UNL     1      24.356   2.212  52.595  1.00  0.00    -0.336 OA
HETATM   15  C12 UNL     1      25.739   2.542  52.605  1.00  0.00     0.177 C 
HETATM   16  C13 UNL     1      26.380   1.501  51.700  1.00  0.00     0.030 C 
HETATM   17  C14 UNL     1      26.234   0.112  52.224  1.00  0.00     0.029 C 
HETATM   18  C15 UNL     1      24.835  -0.153  52.703  1.00  0.00    -0.026 C 
HETATM   19  C16 UNL     1      24.086  -0.544  53.720  1.00  0.00     0.003 C 
HETATM   20  H13 UNL     1      21.456   5.471  50.125  1.00  0.00     0.318 HD
ENDROOT
BRANCH   5  21
HETATM   21  O1  UNL     1      18.809   0.185  51.823  1.00  0.00    -0.365 OA
HETATM   22  H6  UNL     1      18.753   0.480  50.847  1.00  0.00     0.217 HD
ENDBRANCH   5  21
TORSDOF 1
ENDMDL
MODEL 4
REMARK VINA RESULT:      -7.5      3.020      5.730
REMARK  1 active torsions:
REMARK  status: ('A' for Active; 'I' for Inactive)
REMARK    1  A    between atoms: C5_5  and  O1_6 
ROOT
HETATM    1  C1  UNL     1      22.539   6.560  48.141  1.00  0.00     0.048 C 
HETATM    2  C2  UNL     1      23.592   5.536  48.457  1.00  0.00    -0.062 C 
HETATM    3  C3  UNL     1      24.876   5.731  48.564  1.00  0.00     0.009 C 
HETATM    4  C4  UNL     1      26.313   5.815  48.711  1.00  0.00     0.032 C 
HETATM    5  C5  UNL     1      27.135   4.867  49.031  1.00  0.00     0.044 C 
HETATM    6  C6  UNL     1      26.449   3.540  49.274  1.00  0.00     0.084 C 
HETATM    7  C7  UNL     1      26.470   3.387  50.749  1.00  0.00     0.133 C 
HETATM    8  N1  UNL     1      25.795   2.257  51.320  1.00  0.00    -0.336 N 
HETATM    9  C8  UNL     1      26.367   0.945  51.698  1.00  0.00     0.397 C 
HETATM   10  N2  UNL     1      26.190   0.752  53.131  1.00  0.00     0.104 N 
HETATM   11  C9  UNL     1      25.457   1.894  53.690  1.00  0.00     0.303 C 
HETATM   12  C10 UNL     1      24.159   2.061  52.945  1.00  0.00     0.058 C 
HETATM   13  C11 UNL     1      24.379   2.259  51.641  1.00  0.00     0.139 C 
HETATM   14  O2  UNL     1      23.297   2.430  50.793  1.00  0.00    -0.336 OA
HETATM   15  C12 UNL     1      22.083   1.714  50.979  1.00  0.00     0.177 C 
HETATM   16  C13 UNL     1      21.900   0.941  49.681  1.00  0.00     0.030 C 
HETATM   17  C14 UNL     1      21.732   1.834  48.497  1.00  0.00     0.029 C 
HETATM   18  C15 UNL     1      22.735   2.952  48.503  1.00  0.00    -0.026 C 
HETATM   19  C16 UNL     1      22.907   4.262  48.464  1.00  0.00     0.003 C 
HETATM   20  H13 UNL     1      27.134   0.775  53.562  1.00  0.00     0.318 HD
ENDROOT
BRANCH   5  21
HETATM   21  O1  UNL     1      28.482   4.877  49.182  1.00  0.00    -0.365 OA
HETATM   22  H6  UNL     1      29.081   4.483  48.455  1.00  0.00     0.217 HD
ENDBRANCH   5  21
TORSDOF 1
ENDMDL
MODEL 5
REMARK VINA RESULT:      -7.4      1.822      4.706
REMARK  1 active torsions:
REMARK  status: ('A' for Active; 'I' for Inactive)
REMARK    1  A    between atoms: C5_5  and  O1_6 
ROOT
HETATM    1  C1  UNL     1      28.554   2.432  53.697  1.00  0.00     0.048 C 
HETATM    2  C2  UNL     1      27.233   1.945  53.173  1.00  0.00    -0.062 C 
HETATM    3  C3  UNL     1      26.449   1.055  53.713  1.00  0.00     0.009 C 
HETATM    4  C4  UNL     1      25.496   0.086  54.207  1.00  0.00     0.032 C 
HETATM    5  C5  UNL     1      24.350  -0.233  53.693  1.00  0.00     0.044 C 
HETATM    6  C6  UNL     1      24.026   0.538  52.432  1.00  0.00     0.084 C 
HETATM    7  C7  UNL     1      23.004   1.523  52.863  1.00  0.00     0.133 C 
HETATM    8  N1  UNL     1      22.554   2.491  51.905  1.00  0.00    -0.336 N 
HETATM    9  C8  UNL     1      21.364   2.424  51.027  1.00  0.00     0.397 C 
HETATM   10  N2  UNL     1      20.475   3.530  51.356  1.00  0.00     0.104 N 
HETATM   11  C9  UNL     1      21.092   4.357  52.399  1.00  0.00     0.303 C 
HETATM   12  C10 UNL     1      22.454   4.803  51.936  1.00  0.00     0.058 C 
HETATM   13  C11 UNL     1      23.236   3.751  51.670  1.00  0.00     0.139 C 
HETATM   14  O2  UNL     1      24.529   3.968  51.226  1.00  0.00    -0.336 OA
HETATM   15  C12 UNL     1      24.848   5.044  50.352  1.00  0.00     0.177 C 
HETATM   16  C13 UNL     1      25.440   4.368  49.125  1.00  0.00     0.030 C 
HETATM   17  C14 UNL     1      26.702   3.630  49.425  1.00  0.00     0.029 C 
HETATM   18  C15 UNL     1      26.575   2.808  50.676  1.00  0.00    -0.026 C 
HETATM   19  C16 UNL     1      27.082   2.554  51.870  1.00  0.00     0.003 C 
HETATM   20  H13 UNL     1      19.620   3.120  51.779  1.00  0.00     0.318 HD
ENDROOT
BRANCH   5  21
HETATM   21  O1  UNL     1      23.415  -1.127  54.101  1.00  0.00    -0.365 OA
HETATM   22  H6  UNL     1      23.503  -2.111  53.844  1.00  0.00     0.217 HD
ENDBRANCH   5  21
TORSDOF 1
ENDMDL
MODEL 6
REMARK VINA RESULT:      -7.3      2.636      5.512
REMARK  1 active torsions:
REMARK  status: ('A' for Active; 'I' for Inactive)
REMARK    1  A    between atoms: C5_5  and  O1_6 
ROOT
HETATM    1  C1  UNL     1      27.649   2.023  53.062  1.00  0.00     0.048 C 
HETATM    2  C2  UNL     1      26.398   2.105  52.235  1.00  0.00    -0.062 C 
HETATM    3  C3  UNL     1      25.283   1.458  52.424  1.00  0.00     0.009 C 
HETATM    4  C4  UNL     1      23.997   0.803  52.524  1.00  0.00     0.032 C 
HETATM    5  C5  UNL     1      22.956   0.979  51.774  1.00  0.00     0.044 C 
HETATM    6  C6  UNL     1      23.172   2.008  50.686  1.00  0.00     0.084 C 
HETATM    7  C7  UNL     1      22.423   3.198  51.159  1.00  0.00     0.133 C 
HETATM    8  N1  UNL     1      22.511   4.402  50.386  1.00  0.00    -0.336 N 
HETATM    9  C8  UNL     1      21.587   4.886  49.336  1.00  0.00     0.397 C 
HETATM   10  N2  UNL     1      21.020   6.159  49.759  1.00  0.00     0.104 N 
HETATM   11  C9  UNL     1      21.604   6.547  51.048  1.00  0.00     0.303 C 
HETATM   12  C10 UNL     1      23.104   6.574  50.924  1.00  0.00     0.058 C 
HETATM   13  C11 UNL     1      23.574   5.377  50.556  1.00  0.00     0.139 C 
HETATM   14  O2  UNL     1      24.938   5.212  50.388  1.00  0.00    -0.336 OA
HETATM   15  C12 UNL     1      25.754   6.243  49.845  1.00  0.00     0.177 C 
HETATM   16  C13 UNL     1      26.379   5.615  48.608  1.00  0.00     0.030 C 
HETATM   17  C14 UNL     1      27.259   4.454  48.932  1.00  0.00     0.029 C 
HETATM   18  C15 UNL     1      26.612   3.533  49.926  1.00  0.00    -0.026 C 
HETATM   19  C16 UNL     1      26.736   2.932  51.097  1.00  0.00     0.003 C 
HETATM   20  H13 UNL     1      20.009   6.000  49.935  1.00  0.00     0.318 HD
ENDROOT
BRANCH   5  21
HETATM   21  O1  UNL     1      21.729   0.401  51.812  1.00  0.00    -0.365 OA
HETATM   22  H6  UNL     1      21.104   0.478  51.009  1.00  0.00     0.217 HD
ENDBRANCH   5  21
TORSDOF 1
ENDMDL
MODEL 7
REMARK VINA RESULT:      -6.8      7.801     10.947
REMARK  1 active torsions:
REMARK  status: ('A' for Active; 'I' for Inactive)
REMARK    1  A    between atoms: C5_5  and  O1_6 
ROOT
HETATM    1  C1  UNL     1      26.584   4.565  49.568  1.00  0.00     0.048 C 
HETATM    2  C2  UNL     1      27.026   5.685  48.670  1.00  0.00    -0.062 C 
HETATM    3  C3  UNL     1      26.278   6.600  48.122  1.00  0.00     0.009 C 
HETATM    4  C4  UNL     1      25.560   7.666  47.458  1.00  0.00     0.032 C 
HETATM    5  C5  UNL     1      26.049   8.620  46.730  1.00  0.00     0.044 C 
HETATM    6  C6  UNL     1      27.556   8.559  46.602  1.00  0.00     0.084 C 
HETATM    7  C7  UNL     1      28.038   9.650  47.483  1.00  0.00     0.133 C 
HETATM    8  N1  UNL     1      29.453   9.797  47.664  1.00  0.00    -0.336 N 
HETATM    9  C8  UNL     1      30.382  10.685  46.931  1.00  0.00     0.397 C 
HETATM   10  N2  UNL     1      30.982  11.619  47.874  1.00  0.00     0.104 N 
HETATM   11  C9  UNL     1      30.503  11.318  49.229  1.00  0.00     0.303 C 
HETATM   12  C10 UNL     1      30.795   9.876  49.549  1.00  0.00     0.058 C 
HETATM   13  C11 UNL     1      30.203   9.062  48.667  1.00  0.00     0.139 C 
HETATM   14  O2  UNL     1      30.365   7.694  48.801  1.00  0.00    -0.336 OA
HETATM   15  C12 UNL     1      31.592   7.125  49.239  1.00  0.00     0.177 C 
HETATM   16  C13 UNL     1      32.013   6.213  48.098  1.00  0.00     0.030 C 
HETATM   17  C14 UNL     1      31.048   5.099  47.864  1.00  0.00     0.029 C 
HETATM   18  C15 UNL     1      29.629   5.588  47.873  1.00  0.00    -0.026 C 
HETATM   19  C16 UNL     1      28.430   5.448  48.413  1.00  0.00     0.003 C 
HETATM   20  H13 UNL     1      30.620  12.563  47.642  1.00  0.00     0.318 HD
ENDROOT
BRANCH   5  21
HETATM   21  O1  UNL     1      25.437   9.642  46.082  1.00  0.00    -0.365 OA
HETATM   22  H6  UNL     1      24.599   9.465  45.527  1.00  0.00     0.217 HD
ENDBRANCH   5  21
TORSDOF 1
ENDMDL
MODEL 8
REMARK VINA RESULT:      -6.8      2.130      3.967
REMARK  1 active torsions:
REMARK  status: ('A' for Active; 'I' for Inactive)
REMARK    1  A    between atoms: C5_5  and  O1_6 
ROOT
HETATM    1  C1  UNL     1      26.279   3.015  49.541  1.00  0.00     0.048 C 
HETATM    2  C2  UNL     1      25.172   3.016  50.556  1.00  0.00    -0.062 C 
HETATM    3  C3  UNL     1      23.986   3.540  50.430  1.00  0.00     0.009 C 
HETATM    4  C4  UNL     1      22.643   4.078  50.415  1.00  0.00     0.032 C 
HETATM    5  C5  UNL     1      21.740   3.986  51.340  1.00  0.00     0.044 C 
HETATM    6  C6  UNL     1      22.206   3.207  52.551  1.00  0.00     0.084 C 
HETATM    7  C7  UNL     1      21.511   1.902  52.430  1.00  0.00     0.133 C 
HETATM    8  N1  UNL     1      21.822   0.881  53.388  1.00  0.00    -0.336 N 
HETATM    9  C8  UNL     1      21.106   0.555  54.642  1.00  0.00     0.397 C 
HETATM   10  N2  UNL     1      20.606  -0.811  54.556  1.00  0.00     0.104 N 
HETATM   11  C9  UNL     1      21.034  -1.406  53.285  1.00  0.00     0.303 C 
HETATM   12  C10 UNL     1      22.532  -1.312  53.173  1.00  0.00     0.058 C 
HETATM   13  C11 UNL     1      22.936  -0.038  53.234  1.00  0.00     0.139 C 
HETATM   14  O2  UNL     1      24.289   0.245  53.152  1.00  0.00    -0.336 OA
HETATM   15  C12 UNL     1      25.267  -0.604  53.740  1.00  0.00     0.177 C 
HETATM   16  C13 UNL     1      26.000   0.294  54.725  1.00  0.00     0.030 C 
HETATM   17  C14 UNL     1      26.712   1.422  54.057  1.00  0.00     0.029 C 
HETATM   18  C15 UNL     1      25.846   2.087  53.025  1.00  0.00    -0.026 C 
HETATM   19  C16 UNL     1      25.745   2.453  51.759  1.00  0.00     0.003 C 
HETATM   20  H13 UNL     1      19.571  -0.755  54.516  1.00  0.00     0.318 HD
ENDROOT
BRANCH   5  21
HETATM   21  O1  UNL     1      20.473   4.465  51.391  1.00  0.00    -0.365 OA
HETATM   22  H6  UNL     1      19.912   4.516  50.539  1.00  0.00     0.217 HD
ENDBRANCH   5  21
TORSDOF 1
ENDMDL
MODEL 9
REMARK VINA RESULT:      -6.7      2.467      6.089
REMARK  1 active torsions:
REMARK  status: ('A' for Active; 'I' for Inactive)
REMARK    1  A    between atoms: C5_5  and  O1_6 
ROOT
HETATM    1  C1  UNL     1      17.781  -0.248  50.810  1.00  0.00     0.048 C 
HETATM    2  C2  UNL     1      18.879   0.206  51.730  1.00  0.00    -0.062 C 
HETATM    3  C3  UNL     1      19.498  -0.502  52.631  1.00  0.00     0.009 C 
HETATM    4  C4  UNL     1      20.258  -1.178  53.659  1.00  0.00     0.032 C 
HETATM    5  C5  UNL     1      21.227  -0.700  54.375  1.00  0.00     0.044 C 
HETATM    6  C6  UNL     1      21.557   0.739  54.044  1.00  0.00     0.084 C 
HETATM    7  C7  UNL     1      22.824   0.652  53.276  1.00  0.00     0.133 C 
HETATM    8  N1  UNL     1      23.361   1.860  52.720  1.00  0.00    -0.336 N 
HETATM    9  C8  UNL     1      24.383   2.759  53.300  1.00  0.00     0.397 C 
HETATM   10  N2  UNL     1      25.536   2.794  52.411  1.00  0.00     0.104 N 
HETATM   11  C9  UNL     1      25.262   1.975  51.225  1.00  0.00     0.303 C 
HETATM   12  C10 UNL     1      23.992   2.456  50.574  1.00  0.00     0.058 C 
HETATM   13  C11 UNL     1      22.962   2.381  51.424  1.00  0.00     0.139 C 
HETATM   14  O2  UNL     1      21.708   2.787  51.001  1.00  0.00    -0.336 OA
HETATM   15  C12 UNL     1      21.537   3.896  50.127  1.00  0.00     0.177 C 
HETATM   16  C13 UNL     1      20.656   4.859  50.908  1.00  0.00     0.030 C 
HETATM   17  C14 UNL     1      19.307   4.294  51.205  1.00  0.00     0.029 C 
HETATM   18  C15 UNL     1      19.398   2.879  51.700  1.00  0.00    -0.026 C 
HETATM   19  C16 UNL     1      19.000   1.632  51.517  1.00  0.00     0.003 C 
HETATM   20  H13 UNL     1      26.320   2.330  52.908  1.00  0.00     0.318 HD
ENDROOT
BRANCH   5  21
HETATM   21  O1  UNL     1      21.975  -1.273  55.349  1.00  0.00    -0.365 OA
HETATM   22  H6  UNL     1      21.533  -1.879  56.042  1.00  0.00     0.217 HD
ENDBRANCH   5  21
TORSDOF 1
ENDMDL
