MODEL 1
REMARK VINA RESULT:      -8.0      0.000      0.000
REMARK  2 active torsions:
REMARK  status: ('A' for Active; 'I' for Inactive)
REMARK    1  A    between atoms: C3_3  and  C4_4 
REMARK       I    between atoms: C4_4  and  N1_6 
REMARK    2  A    between atoms: N1_6  and  C5_7 
ROOT
HETATM    1  C1  UNL     1      29.937   6.414  47.242  1.00  0.00     0.112 C 
HETATM    2  C2  UNL     1      28.816   5.816  47.977  1.00  0.00    -0.101 C 
HETATM    3  C3  UNL     1      27.904   5.312  48.591  1.00  0.00    -0.006 C 
ENDROOT
BRANCH   3   4
HETATM    4  C4  UNL     1      26.815   4.733  49.333  1.00  0.00     0.300 C 
HETATM    5  O1  UNL     1      27.158   3.816  50.141  1.00  0.00    -0.258 OA
HETATM    6  N1  UNL     1      25.462   5.138  49.187  1.00  0.00    -0.323 N 
HETATM    7  H4  UNL     1      25.226   5.888  48.518  1.00  0.00     0.169 HD
BRANCH   6   8
HETATM    8  C5  UNL     1      24.563   4.412  50.034  1.00  0.00     0.001 C 
HETATM    9  C6  UNL     1      24.173   5.087  51.179  1.00  0.00     0.071 C 
HETATM   10  C7  UNL     1      23.352   5.028  52.437  1.00  0.00     0.132 C 
HETATM   11  C8  UNL     1      21.971   4.528  52.223  1.00  0.00     0.109 C 
HETATM   12  N3  UNL     1      24.092   4.117  53.347  1.00  0.00    -0.379 N 
HETATM   13  N2  UNL     1      21.027   3.623  52.093  1.00  0.00    -0.299 NA
HETATM   14  C9  UNL     1      21.159   2.206  51.685  1.00  0.00     0.187 C 
HETATM   15  C10 UNL     1      22.645   2.130  51.394  1.00  0.00    -0.029 C 
HETATM   16  C11 UNL     1      22.839   2.761  50.248  1.00  0.00    -0.011 C 
HETATM   17  C13 UNL     1      23.817   1.660  52.114  1.00  0.00    -0.002 A 
HETATM   18  C12 UNL     1      24.115   3.003  49.480  1.00  0.00     0.081 C 
HETATM   19  C14 UNL     1      24.346   0.430  52.016  1.00  0.00     0.015 A 
HETATM   20  C18 UNL     1      24.294   2.728  52.930  1.00  0.00     0.040 A 
HETATM   21  C15 UNL     1      25.448   0.146  52.759  1.00  0.00     0.020 A 
HETATM   22  C16 UNL     1      25.999   1.081  53.578  1.00  0.00     0.013 A 
HETATM   23 BR1  UNL     1      27.536   0.560  54.562  1.00  0.00    -0.051 Br
HETATM   24  C17 UNL     1      25.424   2.314  53.640  1.00  0.00     0.049 A 
HETATM   25  H16 UNL     1      24.536   4.219  54.271  1.00  0.00     0.160 HD
ENDBRANCH   6   8
ENDBRANCH   3   4
TORSDOF 2
ENDMDL
MODEL 2
REMARK VINA RESULT:      -7.8      2.628      5.226
REMARK  2 active torsions:
REMARK  status: ('A' for Active; 'I' for Inactive)
REMARK    1  A    between atoms: C3_3  and  C4_4 
REMARK       I    between atoms: C4_4  and  N1_6 
REMARK    2  A    between atoms: N1_6  and  C5_7 
ROOT
HETATM    1  C1  UNL     1      29.571  -0.866  53.849  1.00  0.00     0.112 C 
HETATM    2  C2  UNL     1      28.519   0.027  53.351  1.00  0.00    -0.101 C 
HETATM    3  C3  UNL     1      27.656   0.760  52.925  1.00  0.00    -0.006 C 
ENDROOT
BRANCH   3   4
HETATM    4  C4  UNL     1      26.612   1.617  52.427  1.00  0.00     0.300 C 
HETATM    5  O1  UNL     1      27.007   2.506  51.611  1.00  0.00    -0.258 OA
HETATM    6  N1  UNL     1      25.250   1.497  52.806  1.00  0.00    -0.323 N 
HETATM    7  H4  UNL     1      24.971   0.759  53.472  1.00  0.00     0.169 HD
BRANCH   6   8
HETATM    8  C5  UNL     1      24.402   2.466  52.176  1.00  0.00     0.001 C 
HETATM    9  C6  UNL     1      23.889   2.077  50.949  1.00  0.00     0.071 C 
HETATM   10  C7  UNL     1      23.027   2.472  49.783  1.00  0.00     0.132 C 
HETATM   11  C8  UNL     1      21.722   3.058  50.179  1.00  0.00     0.109 C 
HETATM   12  N3  UNL     1      23.825   3.465  49.021  1.00  0.00    -0.379 N 
HETATM   13  N2  UNL     1      20.894   4.011  50.544  1.00  0.00    -0.299 NA
HETATM   14  C9  UNL     1      21.203   5.296  51.210  1.00  0.00     0.187 C 
HETATM   15  C10 UNL     1      22.700   5.159  51.413  1.00  0.00    -0.029 C 
HETATM   16  C11 UNL     1      22.870   4.295  52.399  1.00  0.00    -0.011 C 
HETATM   17  C13 UNL     1      23.885   5.640  50.723  1.00  0.00    -0.002 A 
HETATM   18  C12 UNL     1      24.143   3.775  53.021  1.00  0.00     0.081 C 
HETATM   19  C14 UNL     1      24.555   6.765  51.023  1.00  0.00     0.015 A 
HETATM   20  C18 UNL     1      24.202   4.714  49.685  1.00  0.00     0.040 A 
HETATM   21  C15 UNL     1      25.648   7.076  50.279  1.00  0.00     0.020 A 
HETATM   22  C16 UNL     1      26.053   6.272  49.260  1.00  0.00     0.013 A 
HETATM   23 BR1  UNL     1      27.596   6.819  48.298  1.00  0.00    -0.051 Br
HETATM   24  C17 UNL     1      25.339   5.142  48.997  1.00  0.00     0.049 A 
HETATM   25  H16 UNL     1      24.214   3.504  48.068  1.00  0.00     0.160 HD
ENDBRANCH   6   8
ENDBRANCH   3   4
TORSDOF 2
ENDMDL
MODEL 3
REMARK VINA RESULT:      -7.3      4.512     10.012
REMARK  2 active torsions:
REMARK  status: ('A' for Active; 'I' for Inactive)
REMARK    1  A    between atoms: C3_3  and  C4_4 
REMARK       I    between atoms: C4_4  and  N1_6 
REMARK    2  A    between atoms: N1_6  and  C5_7 
ROOT
HETATM    1  C1  UNL     1      25.441   3.269  49.689  1.00  0.00     0.112 C 
HETATM    2  C2  UNL     1      26.554   4.124  49.260  1.00  0.00    -0.101 C 
HETATM    3  C3  UNL     1      27.483   4.814  48.906  1.00  0.00    -0.006 C 
ENDROOT
BRANCH   3   4
HETATM    4  C4  UNL     1      28.576   5.639  48.464  1.00  0.00     0.300 C 
HETATM    5  O1  UNL     1      29.574   4.994  48.016  1.00  0.00    -0.258 OA
HETATM    6  N1  UNL     1      28.561   7.057  48.518  1.00  0.00    -0.323 N 
HETATM    7  H4  UNL     1      27.729   7.543  48.890  1.00  0.00     0.169 HD
BRANCH   6   8
HETATM    8  C5  UNL     1      29.766   7.653  48.021  1.00  0.00     0.001 C 
HETATM    9  C6  UNL     1      29.804   7.824  46.646  1.00  0.00     0.071 C 
HETATM   10  C7  UNL     1      30.614   8.311  45.478  1.00  0.00     0.132 C 
HETATM   11  C8  UNL     1      31.225   9.647  45.694  1.00  0.00     0.109 C 
HETATM   12  N3  UNL     1      31.672   7.289  45.279  1.00  0.00    -0.379 N 
HETATM   13  N2  UNL     1      32.134  10.499  46.111  1.00  0.00    -0.299 NA
HETATM   14  C9  UNL     1      33.132  10.328  47.190  1.00  0.00     0.187 C 
HETATM   15  C10 UNL     1      32.757   8.954  47.710  1.00  0.00    -0.029 C 
HETATM   16  C11 UNL     1      31.637   9.102  48.397  1.00  0.00    -0.011 C 
HETATM   17  C13 UNL     1      33.259   7.604  47.519  1.00  0.00    -0.002 A 
HETATM   18  C12 UNL     1      30.807   8.076  49.130  1.00  0.00     0.081 C 
HETATM   19  C14 UNL     1      34.162   6.993  48.303  1.00  0.00     0.015 A 
HETATM   20  C18 UNL     1      32.628   7.055  46.363  1.00  0.00     0.040 A 
HETATM   21  C15 UNL     1      34.529   5.723  47.989  1.00  0.00     0.020 A 
HETATM   22  C16 UNL     1      33.998   5.090  46.909  1.00  0.00     0.013 A 
HETATM   23 BR1  UNL     1      34.594   3.318  46.577  1.00  0.00    -0.051 Br
HETATM   24  C17 UNL     1      33.086   5.753  46.146  1.00  0.00     0.049 A 
HETATM   25  H16 UNL     1      31.928   6.650  44.512  1.00  0.00     0.160 HD
ENDBRANCH   6   8
ENDBRANCH   3   4
TORSDOF 2
ENDMDL
MODEL 4
REMARK VINA RESULT:      -7.3      2.171      2.604
REMARK  2 active torsions:
REMARK  status: ('A' for Active; 'I' for Inactive)
REMARK    1  A    between atoms: C3_3  and  C4_4 
REMARK       I    between atoms: C4_4  and  N1_6 
REMARK    2  A    between atoms: N1_6  and  C5_7 
ROOT
HETATM    1  C1  UNL     1      30.361   5.872  47.845  1.00  0.00     0.112 C 
HETATM    2  C2  UNL     1      28.962   5.630  48.216  1.00  0.00    -0.101 C 
HETATM    3  C3  UNL     1      27.811   5.443  48.536  1.00  0.00    -0.006 C 
ENDROOT
BRANCH   3   4
HETATM    4  C4  UNL     1      26.433   5.228  48.894  1.00  0.00     0.300 C 
HETATM    5  O1  UNL     1      25.640   6.136  48.497  1.00  0.00    -0.258 OA
HETATM    6  N1  UNL     1      25.979   4.102  49.630  1.00  0.00    -0.323 N 
HETATM    7  H4  UNL     1      26.659   3.386  49.933  1.00  0.00     0.169 HD
BRANCH   6   8
HETATM    8  C5  UNL     1      24.565   4.114  49.861  1.00  0.00     0.001 C 
HETATM    9  C6  UNL     1      24.168   4.816  50.987  1.00  0.00     0.071 C 
HETATM   10  C7  UNL     1      23.003   5.251  51.833  1.00  0.00     0.132 C 
HETATM   11  C8  UNL     1      21.872   5.805  51.048  1.00  0.00     0.109 C 
HETATM   12  N3  UNL     1      22.572   4.033  52.564  1.00  0.00    -0.379 N 
HETATM   13  N2  UNL     1      20.769   5.763  50.336  1.00  0.00    -0.299 NA
HETATM   14  C9  UNL     1      20.230   4.639  49.537  1.00  0.00     0.187 C 
HETATM   15  C10 UNL     1      21.331   3.612  49.711  1.00  0.00    -0.029 C 
HETATM   16  C11 UNL     1      22.345   4.014  48.964  1.00  0.00    -0.011 C 
HETATM   17  C13 UNL     1      21.533   2.446  50.555  1.00  0.00    -0.002 A 
HETATM   18  C12 UNL     1      23.703   3.387  48.756  1.00  0.00     0.081 C 
HETATM   19  C14 UNL     1      21.232   1.182  50.218  1.00  0.00     0.015 A 
HETATM   20  C18 UNL     1      22.102   2.884  51.788  1.00  0.00     0.040 A 
HETATM   21  C15 UNL     1      21.483   0.200  51.123  1.00  0.00     0.020 A 
HETATM   22  C16 UNL     1      22.024   0.490  52.336  1.00  0.00     0.013 A 
HETATM   23 BR1  UNL     1      22.326  -0.970  53.511  1.00  0.00    -0.051 Br
HETATM   24  C17 UNL     1      22.312   1.789  52.629  1.00  0.00     0.049 A 
HETATM   25  H16 UNL     1      22.514   3.766  53.557  1.00  0.00     0.160 HD
ENDBRANCH   6   8
ENDBRANCH   3   4
TORSDOF 2
ENDMDL
MODEL 5
REMARK VINA RESULT:      -7.0      7.577     10.716
REMARK  2 active torsions:
REMARK  status: ('A' for Active; 'I' for Inactive)
REMARK    1  A    between atoms: C3_3  and  C4_4 
REMARK       I    between atoms: C4_4  and  N1_6 
REMARK    2  A    between atoms: N1_6  and  C5_7 
ROOT
HETATM    1  C1  UNL     1      34.282   3.215  38.998  1.00  0.00     0.112 C 
HETATM    2  C2  UNL     1      34.181   3.752  40.360  1.00  0.00    -0.101 C 
HETATM    3  C3  UNL     1      34.110   4.183  41.488  1.00  0.00    -0.006 C 
ENDROOT
BRANCH   3   4
HETATM    4  C4  UNL     1      34.034   4.717  42.823  1.00  0.00     0.300 C 
HETATM    5  O1  UNL     1      35.064   5.362  43.190  1.00  0.00    -0.258 OA
HETATM    6  N1  UNL     1      32.911   4.547  43.674  1.00  0.00    -0.323 N 
HETATM    7  H4  UNL     1      32.093   4.015  43.336  1.00  0.00     0.169 HD
BRANCH   6   8
HETATM    8  C5  UNL     1      33.074   5.171  44.953  1.00  0.00     0.001 C 
HETATM    9  C6  UNL     1      33.417   4.308  45.981  1.00  0.00     0.071 C 
HETATM   10  C7  UNL     1      33.729   4.183  47.446  1.00  0.00     0.132 C 
HETATM   11  C8  UNL     1      34.689   5.202  47.939  1.00  0.00     0.109 C 
HETATM   12  N3  UNL     1      32.424   4.329  48.139  1.00  0.00    -0.379 N 
HETATM   13  N2  UNL     1      35.066   6.368  48.412  1.00  0.00    -0.299 NA
HETATM   14  C9  UNL     1      34.375   7.673  48.304  1.00  0.00     0.187 C 
HETATM   15  C10 UNL     1      33.184   7.295  47.446  1.00  0.00    -0.029 C 
HETATM   16  C11 UNL     1      33.641   7.127  46.216  1.00  0.00    -0.011 C 
HETATM   17  C13 UNL     1      31.788   6.981  47.696  1.00  0.00    -0.002 A 
HETATM   18  C12 UNL     1      32.908   6.742  44.955  1.00  0.00     0.081 C 
HETATM   19  C14 UNL     1      30.774   7.861  47.657  1.00  0.00     0.015 A 
HETATM   20  C18 UNL     1      31.691   5.587  47.988  1.00  0.00     0.040 A 
HETATM   21  C15 UNL     1      29.520   7.406  47.916  1.00  0.00     0.020 A 
HETATM   22  C16 UNL     1      29.298   6.098  48.208  1.00  0.00     0.013 A 
HETATM   23 BR1  UNL     1      27.501   5.589  48.552  1.00  0.00    -0.051 Br
HETATM   24  C17 UNL     1      30.360   5.245  48.235  1.00  0.00     0.049 A 
HETATM   25  H16 UNL     1      31.855   3.724  48.749  1.00  0.00     0.160 HD
ENDBRANCH   6   8
ENDBRANCH   3   4
TORSDOF 2
ENDMDL
MODEL 6
REMARK VINA RESULT:      -7.0      2.083      2.163
REMARK  2 active torsions:
REMARK  status: ('A' for Active; 'I' for Inactive)
REMARK    1  A    between atoms: C3_3  and  C4_4 
REMARK       I    between atoms: C4_4  and  N1_6 
REMARK    2  A    between atoms: N1_6  and  C5_7 
ROOT
HETATM    1  C1  UNL     1      26.340  10.030  47.128  1.00  0.00     0.112 C 
HETATM    2  C2  UNL     1      25.869   8.811  47.796  1.00  0.00    -0.101 C 
HETATM    3  C3  UNL     1      25.490   7.811  48.360  1.00  0.00    -0.006 C 
ENDROOT
BRANCH   3   4
HETATM    4  C4  UNL     1      25.017   6.629  49.032  1.00  0.00     0.300 C 
HETATM    5  O1  UNL     1      23.844   6.270  48.701  1.00  0.00    -0.258 OA
HETATM    6  N1  UNL     1      25.780   5.910  49.989  1.00  0.00    -0.323 N 
HETATM    7  H4  UNL     1      26.730   6.236  50.229  1.00  0.00     0.169 HD
BRANCH   6   8
HETATM    8  C5  UNL     1      25.092   4.769  50.517  1.00  0.00     0.001 C 
HETATM    9  C6  UNL     1      24.392   5.005  51.689  1.00  0.00     0.071 C 
HETATM   10  C7  UNL     1      23.519   4.406  52.756  1.00  0.00     0.132 C 
HETATM   11  C8  UNL     1      22.408   3.580  52.220  1.00  0.00     0.109 C 
HETATM   12  N3  UNL     1      24.426   3.571  53.583  1.00  0.00    -0.379 N 
HETATM   13  N2  UNL     1      21.833   2.492  51.761  1.00  0.00    -0.299 NA
HETATM   14  C9  UNL     1      22.463   1.319  51.115  1.00  0.00     0.187 C 
HETATM   15  C10 UNL     1      23.911   1.763  51.068  1.00  0.00    -0.029 C 
HETATM   16  C11 UNL     1      23.997   2.676  50.115  1.00  0.00    -0.011 C 
HETATM   17  C13 UNL     1      25.097   1.510  51.870  1.00  0.00    -0.002 A 
HETATM   18  C12 UNL     1      25.191   3.464  49.633  1.00  0.00     0.081 C 
HETATM   19  C14 UNL     1      26.009   0.555  51.626  1.00  0.00     0.015 A 
HETATM   20  C18 UNL     1      25.114   2.447  52.946  1.00  0.00     0.040 A 
HETATM   21  C15 UNL     1      27.065   0.447  52.474  1.00  0.00     0.020 A 
HETATM   22  C16 UNL     1      27.195   1.282  53.539  1.00  0.00     0.013 A 
HETATM   23 BR1  UNL     1      28.715   1.029  54.647  1.00  0.00    -0.051 Br
HETATM   24  C17 UNL     1      26.242   2.235  53.741  1.00  0.00     0.049 A 
HETATM   25  H16 UNL     1      24.720   3.579  54.570  1.00  0.00     0.160 HD
ENDBRANCH   6   8
ENDBRANCH   3   4
TORSDOF 2
ENDMDL
MODEL 7
REMARK VINA RESULT:      -6.8      3.594      6.713
REMARK  2 active torsions:
REMARK  status: ('A' for Active; 'I' for Inactive)
REMARK    1  A    between atoms: C3_3  and  C4_4 
REMARK       I    between atoms: C4_4  and  N1_6 
REMARK    2  A    between atoms: N1_6  and  C5_7 
ROOT
HETATM    1  C1  UNL     1      17.417  -3.141  53.833  1.00  0.00     0.112 C 
HETATM    2  C2  UNL     1      18.236  -2.013  53.373  1.00  0.00    -0.101 C 
HETATM    3  C3  UNL     1      18.913  -1.078  53.011  1.00  0.00    -0.006 C 
ENDROOT
BRANCH   3   4
HETATM    4  C4  UNL     1      19.734   0.019  52.572  1.00  0.00     0.300 C 
HETATM    5  O1  UNL     1      20.970  -0.113  52.833  1.00  0.00    -0.258 OA
HETATM    6  N1  UNL     1      19.226   1.162  51.901  1.00  0.00    -0.323 N 
HETATM    7  H4  UNL     1      18.214   1.229  51.708  1.00  0.00     0.169 HD
BRANCH   6   8
HETATM    8  C5  UNL     1      20.241   2.116  51.566  1.00  0.00     0.001 C 
HETATM    9  C6  UNL     1      20.717   2.024  50.268  1.00  0.00     0.071 C 
HETATM   10  C7  UNL     1      21.675   2.585  49.254  1.00  0.00     0.132 C 
HETATM   11  C8  UNL     1      21.659   4.068  49.178  1.00  0.00     0.109 C 
HETATM   12  N3  UNL     1      23.016   2.108  49.674  1.00  0.00    -0.379 N 
HETATM   13  N2  UNL     1      21.994   5.292  49.516  1.00  0.00    -0.299 NA
HETATM   14  C9  UNL     1      22.520   5.779  50.811  1.00  0.00     0.187 C 
HETATM   15  C10 UNL     1      22.484   4.504  51.631  1.00  0.00    -0.029 C 
HETATM   16  C11 UNL     1      21.214   4.277  51.922  1.00  0.00    -0.011 C 
HETATM   17  C13 UNL     1      23.457   3.498  52.020  1.00  0.00    -0.002 A 
HETATM   18  C12 UNL     1      20.587   3.151  52.708  1.00  0.00     0.081 C 
HETATM   19  C14 UNL     1      24.161   3.500  53.164  1.00  0.00     0.015 A 
HETATM   20  C18 UNL     1      23.526   2.521  50.982  1.00  0.00     0.040 A 
HETATM   21  C15 UNL     1      25.035   2.482  53.380  1.00  0.00     0.020 A 
HETATM   22  C16 UNL     1      25.192   1.490  52.464  1.00  0.00     0.013 A 
HETATM   23 BR1  UNL     1      26.444   0.126  52.885  1.00  0.00    -0.051 Br
HETATM   24  C17 UNL     1      24.453   1.533  51.321  1.00  0.00     0.049 A 
HETATM   25  H16 UNL     1      23.740   1.512  49.246  1.00  0.00     0.160 HD
ENDBRANCH   6   8
ENDBRANCH   3   4
TORSDOF 2
ENDMDL
MODEL 8
REMARK VINA RESULT:      -6.7      3.758      5.987
REMARK  2 active torsions:
REMARK  status: ('A' for Active; 'I' for Inactive)
REMARK    1  A    between atoms: C3_3  and  C4_4 
REMARK       I    between atoms: C4_4  and  N1_6 
REMARK    2  A    between atoms: N1_6  and  C5_7 
ROOT
HETATM    1  C1  UNL     1      17.264   3.168  45.167  1.00  0.00     0.112 C 
HETATM    2  C2  UNL     1      18.359   3.237  46.142  1.00  0.00    -0.101 C 
HETATM    3  C3  UNL     1      19.273   3.296  46.932  1.00  0.00    -0.006 C 
ENDROOT
BRANCH   3   4
HETATM    4  C4  UNL     1      20.350   3.386  47.882  1.00  0.00     0.300 C 
HETATM    5  O1  UNL     1      20.227   2.625  48.891  1.00  0.00    -0.258 OA
HETATM    6  N1  UNL     1      21.466   4.249  47.724  1.00  0.00    -0.323 N 
HETATM    7  H4  UNL     1      21.528   4.852  46.888  1.00  0.00     0.169 HD
BRANCH   6   8
HETATM    8  C5  UNL     1      22.405   4.158  48.803  1.00  0.00     0.001 C 
HETATM    9  C6  UNL     1      22.288   5.154  49.759  1.00  0.00     0.071 C 
HETATM   10  C7  UNL     1      22.831   5.709  51.046  1.00  0.00     0.132 C 
HETATM   11  C8  UNL     1      23.042   4.681  52.095  1.00  0.00     0.109 C 
HETATM   12  N3  UNL     1      24.121   6.348  50.685  1.00  0.00    -0.379 N 
HETATM   13  N2  UNL     1      23.694   3.741  52.743  1.00  0.00    -0.299 NA
HETATM   14  C9  UNL     1      24.777   2.863  52.248  1.00  0.00     0.187 C 
HETATM   15  C10 UNL     1      24.857   3.298  50.798  1.00  0.00    -0.029 C 
HETATM   16  C11 UNL     1      23.798   2.790  50.192  1.00  0.00    -0.011 C 
HETATM   17  C13 UNL     1      25.714   4.187  50.031  1.00  0.00    -0.002 A 
HETATM   18  C12 UNL     1      23.360   2.901  48.751  1.00  0.00     0.081 C 
HETATM   19  C14 UNL     1      26.812   3.814  49.354  1.00  0.00     0.015 A 
HETATM   20  C18 UNL     1      25.183   5.508  50.129  1.00  0.00     0.040 A 
HETATM   21  C15 UNL     1      27.506   4.771  48.684  1.00  0.00     0.020 A 
HETATM   22  C16 UNL     1      27.102   6.068  48.700  1.00  0.00     0.013 A 
HETATM   23 BR1  UNL     1      28.159   7.308  47.724  1.00  0.00    -0.051 Br
HETATM   24  C17 UNL     1      25.981   6.395  49.402  1.00  0.00     0.049 A 
HETATM   25  H16 UNL     1      24.493   7.308  50.730  1.00  0.00     0.160 HD
ENDBRANCH   6   8
ENDBRANCH   3   4
TORSDOF 2
ENDMDL
MODEL 9
REMARK VINA RESULT:      -6.6      6.392      8.717
REMARK  2 active torsions:
REMARK  status: ('A' for Active; 'I' for Inactive)
REMARK    1  A    between atoms: C3_3  and  C4_4 
REMARK       I    between atoms: C4_4  and  N1_6 
REMARK    2  A    between atoms: N1_6  and  C5_7 
ROOT
HETATM    1  C1  UNL     1      32.858   2.126  47.077  1.00  0.00     0.112 C 
HETATM    2  C2  UNL     1      32.220   3.440  47.215  1.00  0.00    -0.101 C 
HETATM    3  C3  UNL     1      31.678   4.515  47.324  1.00  0.00    -0.006 C 
ENDROOT
BRANCH   3   4
HETATM    4  C4  UNL     1      31.038   5.796  47.478  1.00  0.00     0.300 C 
HETATM    5  O1  UNL     1      29.864   5.742  47.959  1.00  0.00    -0.258 OA
HETATM    6  N1  UNL     1      31.650   7.027  47.125  1.00  0.00    -0.323 N 
HETATM    7  H4  UNL     1      32.607   7.026  46.736  1.00  0.00     0.169 HD
BRANCH   6   8
HETATM    8  C5  UNL     1      30.813   8.163  47.371  1.00  0.00     0.001 C 
HETATM    9  C6  UNL     1      31.020   8.783  48.593  1.00  0.00     0.071 C 
HETATM   10  C7  UNL     1      30.598   9.900  49.506  1.00  0.00     0.132 C 
HETATM   11  C8  UNL     1      30.479  11.213  48.824  1.00  0.00     0.109 C 
HETATM   12  N3  UNL     1      29.282   9.484  50.053  1.00  0.00    -0.379 N 
HETATM   13  N2  UNL     1      29.886  12.155  48.126  1.00  0.00    -0.299 NA
HETATM   14  C9  UNL     1      28.759  12.026  47.175  1.00  0.00     0.187 C 
HETATM   15  C10 UNL     1      28.549  10.525  47.183  1.00  0.00    -0.029 C 
HETATM   16  C11 UNL     1      29.547   9.999  46.493  1.00  0.00    -0.011 C 
HETATM   17  C13 UNL     1      27.630   9.613  47.843  1.00  0.00    -0.002 A 
HETATM   18  C12 UNL     1      29.853   8.555  46.179  1.00  0.00     0.081 C 
HETATM   19  C14 UNL     1      26.474   9.167  47.325  1.00  0.00     0.015 A 
HETATM   20  C18 UNL     1      28.171   9.284  49.121  1.00  0.00     0.040 A 
HETATM   21  C15 UNL     1      25.724   8.315  48.072  1.00  0.00     0.020 A 
HETATM   22  C16 UNL     1      26.132   7.925  49.309  1.00  0.00     0.013 A 
HETATM   23 BR1  UNL     1      24.995   6.732  50.251  1.00  0.00    -0.051 Br
HETATM   24  C17 UNL     1      27.313   8.406  49.788  1.00  0.00     0.049 A 
HETATM   25  H16 UNL     1      28.919   9.285  50.997  1.00  0.00     0.160 HD
ENDBRANCH   6   8
ENDBRANCH   3   4
TORSDOF 2
ENDMDL
