MODEL 1
REMARK VINA RESULT:      -7.9      0.000      0.000
REMARK  7 active torsions:
REMARK  status: ('A' for Active; 'I' for Inactive)
REMARK    1  A    between atoms: C2_2  and  O1_3 
REMARK    2  A    between atoms: O1_3  and  C3_4 
REMARK    3  A    between atoms: C12_15  and  N3_16 
REMARK       I    between atoms: N3_16  and  C13_17 
REMARK    4  A    between atoms: C13_17  and  C14_19 
REMARK    5  A    between atoms: C15_20  and  C16_21 
REMARK    6  A    between atoms: C16_21  and  C17_22 
REMARK    7  A    between atoms: C17_22  and  N4_23 
ROOT
HETATM    1  C3  UNL     1      26.884   1.494  52.632  1.00  0.00     0.097 A 
HETATM    2  C4  UNL     1      26.247   0.505  53.389  1.00  0.00     0.071 A 
HETATM    3  C5  UNL     1      24.873   0.345  53.345  1.00  0.00     0.069 A 
HETATM    4  N1  UNL     1      24.281  -0.610  54.077  1.00  0.00    -0.259 NA
HETATM    5  C6  UNL     1      22.945  -0.769  54.036  1.00  0.00     0.140 A 
HETATM    6  C7  UNL     1      22.157   0.052  53.239  1.00  0.00     0.063 A 
HETATM    7  C8  UNL     1      20.734  -0.134  53.210  1.00  0.00     0.101 C 
HETATM    8  N2  UNL     1      19.581  -0.270  53.182  1.00  0.00    -0.191 NA
HETATM    9  C9  UNL     1      22.774   1.047  52.476  1.00  0.00     0.038 A 
HETATM   10  C10 UNL     1      24.160   1.190  52.535  1.00  0.00    -0.004 A 
HETATM   11  C11 UNL     1      24.771   2.175  51.779  1.00  0.00     0.046 A 
HETATM   12  C12 UNL     1      26.140   2.336  51.822  1.00  0.00     0.069 A 
ENDROOT
BRANCH  12  13
HETATM   13  N3  UNL     1      26.867   3.312  51.089  1.00  0.00    -0.321 N 
HETATM   14  C13 UNL     1      26.510   3.656  49.747  1.00  0.00     0.245 C 
HETATM   15  O2  UNL     1      25.516   2.991  49.361  1.00  0.00    -0.268 OA
HETATM   16  H10 UNL     1      27.691   3.794  51.553  1.00  0.00     0.169 HD
BRANCH  14  17
HETATM   17  C14 UNL     1      27.234   4.650  48.971  1.00  0.00     0.070 C 
HETATM   18  C15 UNL     1      26.792   5.835  48.649  1.00  0.00    -0.019 C 
BRANCH  18  19
HETATM   19  C16 UNL     1      25.536   6.560  48.906  1.00  0.00     0.057 C 
BRANCH  19  20
HETATM   20  C17 UNL     1      25.662   7.513  50.083  1.00  0.00     0.272 C 
BRANCH  20  21
HETATM   21  N4  UNL     1      25.059   6.915  51.237  1.00  0.00     0.079 N 
HETATM   22  C18 UNL     1      23.907   6.091  50.914  1.00  0.00     0.306 C 
HETATM   23  H17 UNL     1      24.861   7.583  52.021  1.00  0.00     0.315 HD
ENDBRANCH  20  21
ENDBRANCH  19  20
ENDBRANCH  18  19
ENDBRANCH  14  17
ENDBRANCH  12  13
BRANCH   1  24
HETATM   24  O1  UNL     1      28.262   1.582  52.739  1.00  0.00    -0.349 OA
BRANCH  24  25
HETATM   25  C2  UNL     1      28.969   1.121  53.896  1.00  0.00     0.171 C 
HETATM   26  C1  UNL     1      29.871  -0.015  53.532  1.00  0.00     0.034 C 
ENDBRANCH  24  25
ENDBRANCH   1  24
TORSDOF 7
ENDMDL
MODEL 2
REMARK VINA RESULT:      -7.7      1.676      2.386
REMARK  7 active torsions:
REMARK  status: ('A' for Active; 'I' for Inactive)
REMARK    1  A    between atoms: C2_2  and  O1_3 
REMARK    2  A    between atoms: O1_3  and  C3_4 
REMARK    3  A    between atoms: C12_15  and  N3_16 
REMARK       I    between atoms: N3_16  and  C13_17 
REMARK    4  A    between atoms: C13_17  and  C14_19 
REMARK    5  A    between atoms: C15_20  and  C16_21 
REMARK    6  A    between atoms: C16_21  and  C17_22 
REMARK    7  A    between atoms: C17_22  and  N4_23 
ROOT
HETATM    1  C3  UNL     1      25.571   2.055  52.244  1.00  0.00     0.097 A 
HETATM    2  C4  UNL     1      25.199   0.823  52.792  1.00  0.00     0.071 A 
HETATM    3  C5  UNL     1      23.866   0.472  52.924  1.00  0.00     0.069 A 
HETATM    4  N1  UNL     1      23.531  -0.714  53.452  1.00  0.00    -0.259 NA
HETATM    5  C6  UNL     1      22.236  -1.058  53.582  1.00  0.00     0.140 A 
HETATM    6  C7  UNL     1      21.227  -0.194  53.175  1.00  0.00     0.063 A 
HETATM    7  C8  UNL     1      19.853  -0.580  53.323  1.00  0.00     0.101 C 
HETATM    8  N2  UNL     1      18.737  -0.879  53.442  1.00  0.00    -0.191 NA
HETATM    9  C9  UNL     1      21.578   1.042  52.625  1.00  0.00     0.038 A 
HETATM   10  C10 UNL     1      22.926   1.375  52.500  1.00  0.00    -0.004 A 
HETATM   11  C11 UNL     1      23.274   2.598  51.956  1.00  0.00     0.046 A 
HETATM   12  C12 UNL     1      24.600   2.949  51.823  1.00  0.00     0.069 A 
ENDROOT
BRANCH  12  13
HETATM   13  N3  UNL     1      25.066   4.177  51.279  1.00  0.00    -0.321 N 
HETATM   14  C13 UNL     1      25.155   4.381  49.866  1.00  0.00     0.245 C 
HETATM   15  O2  UNL     1      24.777   3.358  49.240  1.00  0.00    -0.268 OA
HETATM   16  H10 UNL     1      25.351   4.956  51.941  1.00  0.00     0.169 HD
BRANCH  14  17
HETATM   17  C14 UNL     1      25.627   5.624  49.280  1.00  0.00     0.070 C 
HETATM   18  C15 UNL     1      26.794   5.811  48.727  1.00  0.00    -0.019 C 
BRANCH  18  19
HETATM   19  C16 UNL     1      27.965   4.948  48.499  1.00  0.00     0.057 C 
BRANCH  19  20
HETATM   20  C17 UNL     1      29.248   5.754  48.371  1.00  0.00     0.272 C 
BRANCH  20  21
HETATM   21  N4  UNL     1      29.057   7.036  48.983  1.00  0.00     0.079 N 
HETATM   22  C18 UNL     1      30.033   8.022  48.552  1.00  0.00     0.306 C 
HETATM   23  H17 UNL     1      28.955   7.010  50.027  1.00  0.00     0.315 HD
ENDBRANCH  20  21
ENDBRANCH  19  20
ENDBRANCH  18  19
ENDBRANCH  14  17
ENDBRANCH  12  13
BRANCH   1  24
HETATM   24  O1  UNL     1      26.927   2.321  52.149  1.00  0.00    -0.349 OA
BRANCH  24  25
HETATM   25  C2  UNL     1      27.906   1.555  52.860  1.00  0.00     0.171 C 
HETATM   26  C1  UNL     1      28.723   2.448  53.739  1.00  0.00     0.034 C 
ENDBRANCH  24  25
ENDBRANCH   1  24
TORSDOF 7
ENDMDL
MODEL 3
REMARK VINA RESULT:      -7.6      1.866      5.460
REMARK  7 active torsions:
REMARK  status: ('A' for Active; 'I' for Inactive)
REMARK    1  A    between atoms: C2_2  and  O1_3 
REMARK    2  A    between atoms: O1_3  and  C3_4 
REMARK    3  A    between atoms: C12_15  and  N3_16 
REMARK       I    between atoms: N3_16  and  C13_17 
REMARK    4  A    between atoms: C13_17  and  C14_19 
REMARK    5  A    between atoms: C15_20  and  C16_21 
REMARK    6  A    between atoms: C16_21  and  C17_22 
REMARK    7  A    between atoms: C17_22  and  N4_23 
ROOT
HETATM    1  C3  UNL     1      24.582   2.754  50.908  1.00  0.00     0.097 A 
HETATM    2  C4  UNL     1      23.415   2.394  50.226  1.00  0.00     0.071 A 
HETATM    3  C5  UNL     1      22.400   1.700  50.863  1.00  0.00     0.069 A 
HETATM    4  N1  UNL     1      21.289   1.364  50.191  1.00  0.00    -0.259 NA
HETATM    5  C6  UNL     1      20.300   0.690  50.807  1.00  0.00     0.140 A 
HETATM    6  C7  UNL     1      20.412   0.330  52.144  1.00  0.00     0.063 A 
HETATM    7  C8  UNL     1      19.346  -0.389  52.782  1.00  0.00     0.101 C 
HETATM    8  N2  UNL     1      18.493  -0.974  53.308  1.00  0.00    -0.191 NA
HETATM    9  C9  UNL     1      21.570   0.681  52.843  1.00  0.00     0.038 A 
HETATM   10  C10 UNL     1      22.580   1.380  52.183  1.00  0.00    -0.004 A 
HETATM   11  C11 UNL     1      23.726   1.727  52.875  1.00  0.00     0.046 A 
HETATM   12  C12 UNL     1      24.738   2.418  52.242  1.00  0.00     0.069 A 
ENDROOT
BRANCH  12  13
HETATM   13  N3  UNL     1      25.954   2.823  52.858  1.00  0.00    -0.321 N 
HETATM   14  C13 UNL     1      27.134   2.018  52.779  1.00  0.00     0.245 C 
HETATM   15  O2  UNL     1      26.920   0.969  52.120  1.00  0.00    -0.268 OA
HETATM   16  H10 UNL     1      25.980   3.744  53.385  1.00  0.00     0.169 HD
BRANCH  14  17
HETATM   17  C14 UNL     1      28.392   2.405  53.398  1.00  0.00     0.070 C 
HETATM   18  C15 UNL     1      29.082   1.682  54.236  1.00  0.00    -0.019 C 
BRANCH  18  19
HETATM   19  C16 UNL     1      28.895   0.346  54.826  1.00  0.00     0.057 C 
BRANCH  19  20
HETATM   20  C17 UNL     1      29.437  -0.753  53.927  1.00  0.00     0.272 C 
BRANCH  20  21
HETATM   21  N4  UNL     1      28.339  -1.472  53.353  1.00  0.00     0.079 N 
HETATM   22  C18 UNL     1      28.649  -2.866  53.086  1.00  0.00     0.306 C 
HETATM   23  H17 UNL     1      27.893  -1.000  52.528  1.00  0.00     0.315 HD
ENDBRANCH  20  21
ENDBRANCH  19  20
ENDBRANCH  18  19
ENDBRANCH  14  17
ENDBRANCH  12  13
BRANCH   1  24
HETATM   24  O1  UNL     1      25.544   3.446  50.192  1.00  0.00    -0.349 OA
BRANCH  24  25
HETATM   25  C2  UNL     1      25.408   4.836  49.876  1.00  0.00     0.171 C 
HETATM   26  C1  UNL     1      26.516   5.272  48.970  1.00  0.00     0.034 C 
ENDBRANCH  24  25
ENDBRANCH   1  24
TORSDOF 7
ENDMDL
MODEL 4
REMARK VINA RESULT:      -7.5      2.496      4.489
REMARK  7 active torsions:
REMARK  status: ('A' for Active; 'I' for Inactive)
REMARK    1  A    between atoms: C2_2  and  O1_3 
REMARK    2  A    between atoms: O1_3  and  C3_4 
REMARK    3  A    between atoms: C12_15  and  N3_16 
REMARK       I    between atoms: N3_16  and  C13_17 
REMARK    4  A    between atoms: C13_17  and  C14_19 
REMARK    5  A    between atoms: C15_20  and  C16_21 
REMARK    6  A    between atoms: C16_21  and  C17_22 
REMARK    7  A    between atoms: C17_22  and  N4_23 
ROOT
HETATM    1  C3  UNL     1      23.977   3.506  52.216  1.00  0.00     0.097 A 
HETATM    2  C4  UNL     1      23.741   2.346  52.962  1.00  0.00     0.071 A 
HETATM    3  C5  UNL     1      24.613   1.271  52.906  1.00  0.00     0.069 A 
HETATM    4  N1  UNL     1      24.369   0.168  53.629  1.00  0.00    -0.259 NA
HETATM    5  C6  UNL     1      25.214  -0.878  53.578  1.00  0.00     0.140 A 
HETATM    6  C7  UNL     1      26.349  -0.836  52.778  1.00  0.00     0.063 A 
HETATM    7  C8  UNL     1      27.237  -1.963  52.738  1.00  0.00     0.101 C 
HETATM    8  N2  UNL     1      27.961  -2.869  52.693  1.00  0.00    -0.191 NA
HETATM    9  C9  UNL     1      26.602   0.314  52.025  1.00  0.00     0.038 A 
HETATM   10  C10 UNL     1      25.712   1.385  52.096  1.00  0.00    -0.004 A 
HETATM   11  C11 UNL     1      25.962   2.523  51.351  1.00  0.00     0.046 A 
HETATM   12  C12 UNL     1      25.096   3.595  51.405  1.00  0.00     0.069 A 
ENDROOT
BRANCH  12  13
HETATM   13  N3  UNL     1      25.258   4.808  50.682  1.00  0.00    -0.321 N 
HETATM   14  C13 UNL     1      24.719   4.971  49.368  1.00  0.00     0.245 C 
HETATM   15  O2  UNL     1      24.122   3.930  48.994  1.00  0.00    -0.268 OA
HETATM   16  H10 UNL     1      25.791   5.607  51.135  1.00  0.00     0.169 HD
BRANCH  14  17
HETATM   17  C14 UNL     1      24.868   6.200  48.604  1.00  0.00     0.070 C 
HETATM   18  C15 UNL     1      25.996   6.706  48.188  1.00  0.00    -0.019 C 
BRANCH  18  19
HETATM   19  C16 UNL     1      27.405   6.293  48.306  1.00  0.00     0.057 C 
BRANCH  19  20
HETATM   20  C17 UNL     1      28.317   7.471  48.610  1.00  0.00     0.272 C 
BRANCH  20  21
HETATM   21  N4  UNL     1      27.788   8.197  49.727  1.00  0.00     0.079 N 
HETATM   22  C18 UNL     1      27.900   9.637  49.573  1.00  0.00     0.306 C 
HETATM   23  H17 UNL     1      28.133   7.870  50.662  1.00  0.00     0.315 HD
ENDBRANCH  20  21
ENDBRANCH  19  20
ENDBRANCH  18  19
ENDBRANCH  14  17
ENDBRANCH  12  13
BRANCH   1  24
HETATM   24  O1  UNL     1      23.053   4.530  52.333  1.00  0.00    -0.349 OA
BRANCH  24  25
HETATM   25  C2  UNL     1      21.672   4.355  51.996  1.00  0.00     0.171 C 
HETATM   26  C1  UNL     1      21.291   5.274  50.879  1.00  0.00     0.034 C 
ENDBRANCH  24  25
ENDBRANCH   1  24
TORSDOF 7
ENDMDL
MODEL 5
REMARK VINA RESULT:      -7.5      2.348      7.735
REMARK  7 active torsions:
REMARK  status: ('A' for Active; 'I' for Inactive)
REMARK    1  A    between atoms: C2_2  and  O1_3 
REMARK    2  A    between atoms: O1_3  and  C3_4 
REMARK    3  A    between atoms: C12_15  and  N3_16 
REMARK       I    between atoms: N3_16  and  C13_17 
REMARK    4  A    between atoms: C13_17  and  C14_19 
REMARK    5  A    between atoms: C15_20  and  C16_21 
REMARK    6  A    between atoms: C16_21  and  C17_22 
REMARK    7  A    between atoms: C17_22  and  N4_23 
ROOT
HETATM    1  C3  UNL     1      23.653   4.067  50.004  1.00  0.00     0.097 A 
HETATM    2  C4  UNL     1      24.037   5.264  49.389  1.00  0.00     0.071 A 
HETATM    3  C5  UNL     1      25.352   5.485  49.015  1.00  0.00     0.069 A 
HETATM    4  N1  UNL     1      25.700   6.639  48.426  1.00  0.00    -0.259 NA
HETATM    5  C6  UNL     1      26.976   6.857  48.061  1.00  0.00     0.140 A 
HETATM    6  C7  UNL     1      27.954   5.896  48.287  1.00  0.00     0.063 A 
HETATM    7  C8  UNL     1      29.310   6.150  47.890  1.00  0.00     0.101 C 
HETATM    8  N2  UNL     1      30.411   6.344  47.577  1.00  0.00    -0.191 NA
HETATM    9  C9  UNL     1      27.591   4.694  48.900  1.00  0.00     0.038 A 
HETATM   10  C10 UNL     1      26.261   4.492  49.269  1.00  0.00    -0.004 A 
HETATM   11  C11 UNL     1      25.901   3.302  49.876  1.00  0.00     0.046 A 
HETATM   12  C12 UNL     1      24.593   3.080  50.249  1.00  0.00     0.069 A 
ENDROOT
BRANCH  12  13
HETATM   13  N3  UNL     1      24.117   1.897  50.878  1.00  0.00    -0.321 N 
HETATM   14  C13 UNL     1      24.334   1.652  52.270  1.00  0.00     0.245 C 
HETATM   15  O2  UNL     1      24.973   2.598  52.798  1.00  0.00    -0.268 OA
HETATM   16  H10 UNL     1      23.588   1.184  50.296  1.00  0.00     0.169 HD
BRANCH  14  17
HETATM   17  C14 UNL     1      23.860   0.453  52.941  1.00  0.00     0.070 C 
HETATM   18  C15 UNL     1      24.613  -0.467  53.479  1.00  0.00    -0.019 C 
BRANCH  18  19
HETATM   19  C16 UNL     1      26.068  -0.647  53.610  1.00  0.00     0.057 C 
BRANCH  19  20
HETATM   20  C17 UNL     1      26.627   0.103  54.809  1.00  0.00     0.272 C 
BRANCH  20  21
HETATM   21  N4  UNL     1      27.369   1.238  54.346  1.00  0.00     0.079 N 
HETATM   22  C18 UNL     1      28.807   1.038  54.403  1.00  0.00     0.306 C 
HETATM   23  H17 UNL     1      27.078   2.151  54.772  1.00  0.00     0.315 HD
ENDBRANCH  20  21
ENDBRANCH  19  20
ENDBRANCH  18  19
ENDBRANCH  14  17
ENDBRANCH  12  13
BRANCH   1  24
HETATM   24  O1  UNL     1      22.318   3.933  50.344  1.00  0.00    -0.349 OA
BRANCH  24  25
HETATM   25  C2  UNL     1      21.658   4.847  51.227  1.00  0.00     0.171 C 
HETATM   26  C1  UNL     1      22.338   4.861  52.560  1.00  0.00     0.034 C 
ENDBRANCH  24  25
ENDBRANCH   1  24
TORSDOF 7
ENDMDL
MODEL 6
REMARK VINA RESULT:      -7.3      3.203      6.126
REMARK  7 active torsions:
REMARK  status: ('A' for Active; 'I' for Inactive)
REMARK    1  A    between atoms: C2_2  and  O1_3 
REMARK    2  A    between atoms: O1_3  and  C3_4 
REMARK    3  A    between atoms: C12_15  and  N3_16 
REMARK       I    between atoms: N3_16  and  C13_17 
REMARK    4  A    between atoms: C13_17  and  C14_19 
REMARK    5  A    between atoms: C15_20  and  C16_21 
REMARK    6  A    between atoms: C16_21  and  C17_22 
REMARK    7  A    between atoms: C17_22  and  N4_23 
ROOT
HETATM    1  C3  UNL     1      23.559   1.568  51.892  1.00  0.00     0.097 A 
HETATM    2  C4  UNL     1      22.481   1.238  51.064  1.00  0.00     0.071 A 
HETATM    3  C5  UNL     1      22.334   1.821  49.817  1.00  0.00     0.069 A 
HETATM    4  N1  UNL     1      21.294   1.491  49.037  1.00  0.00    -0.259 NA
HETATM    5  C6  UNL     1      21.148   2.055  47.824  1.00  0.00     0.140 A 
HETATM    6  C7  UNL     1      22.068   2.986  47.358  1.00  0.00     0.063 A 
HETATM    7  C8  UNL     1      21.894   3.575  46.062  1.00  0.00     0.101 C 
HETATM    8  N2  UNL     1      21.762   4.063  45.016  1.00  0.00    -0.191 NA
HETATM    9  C9  UNL     1      23.152   3.328  48.171  1.00  0.00     0.038 A 
HETATM   10  C10 UNL     1      23.282   2.730  49.424  1.00  0.00    -0.004 A 
HETATM   11  C11 UNL     1      24.354   3.069  50.228  1.00  0.00     0.046 A 
HETATM   12  C12 UNL     1      24.503   2.490  51.471  1.00  0.00     0.069 A 
ENDROOT
BRANCH  12  13
HETATM   13  N3  UNL     1      25.564   2.766  52.375  1.00  0.00    -0.321 N 
HETATM   14  C13 UNL     1      26.830   2.111  52.261  1.00  0.00     0.245 C 
HETATM   15  O2  UNL     1      26.836   1.309  51.292  1.00  0.00    -0.268 OA
HETATM   16  H10 UNL     1      25.408   3.475  53.149  1.00  0.00     0.169 HD
BRANCH  14  17
HETATM   17  C14 UNL     1      27.935   2.372  53.169  1.00  0.00     0.070 C 
HETATM   18  C15 UNL     1      28.513   1.490  53.939  1.00  0.00    -0.019 C 
BRANCH  18  19
HETATM   19  C16 UNL     1      28.308   0.051  54.174  1.00  0.00     0.057 C 
BRANCH  19  20
HETATM   20  C17 UNL     1      26.917  -0.244  54.711  1.00  0.00     0.272 C 
BRANCH  20  21
HETATM   21  N4  UNL     1      26.161  -0.924  53.701  1.00  0.00     0.079 N 
HETATM   22  C18 UNL     1      26.984  -1.741  52.828  1.00  0.00     0.306 C 
HETATM   23  H17 UNL     1      25.501  -0.309  53.164  1.00  0.00     0.315 HD
ENDBRANCH  20  21
ENDBRANCH  19  20
ENDBRANCH  18  19
ENDBRANCH  14  17
ENDBRANCH  12  13
BRANCH   1  24
HETATM   24  O1  UNL     1      23.626   0.936  53.123  1.00  0.00    -0.349 OA
BRANCH  24  25
HETATM   25  C2  UNL     1      22.461   0.436  53.789  1.00  0.00     0.171 C 
HETATM   26  C1  UNL     1      22.629  -1.016  54.105  1.00  0.00     0.034 C 
ENDBRANCH  24  25
ENDBRANCH   1  24
TORSDOF 7
ENDMDL
MODEL 7
REMARK VINA RESULT:      -7.1      2.112      6.951
REMARK  7 active torsions:
REMARK  status: ('A' for Active; 'I' for Inactive)
REMARK    1  A    between atoms: C2_2  and  O1_3 
REMARK    2  A    between atoms: O1_3  and  C3_4 
REMARK    3  A    between atoms: C12_15  and  N3_16 
REMARK       I    between atoms: N3_16  and  C13_17 
REMARK    4  A    between atoms: C13_17  and  C14_19 
REMARK    5  A    between atoms: C15_20  and  C16_21 
REMARK    6  A    between atoms: C16_21  and  C17_22 
REMARK    7  A    between atoms: C17_22  and  N4_23 
ROOT
HETATM    1  C3  UNL     1      25.349   1.952  51.611  1.00  0.00     0.097 A 
HETATM    2  C4  UNL     1      26.405   2.325  50.773  1.00  0.00     0.071 A 
HETATM    3  C5  UNL     1      26.387   3.531  50.094  1.00  0.00     0.069 A 
HETATM    4  N1  UNL     1      27.410   3.871  49.296  1.00  0.00    -0.259 NA
HETATM    5  C6  UNL     1      27.395   5.042  48.634  1.00  0.00     0.140 A 
HETATM    6  C7  UNL     1      26.324   5.918  48.764  1.00  0.00     0.063 A 
HETATM    7  C8  UNL     1      26.328   7.162  48.049  1.00  0.00     0.101 C 
HETATM    8  N2  UNL     1      26.317   8.170  47.472  1.00  0.00    -0.191 NA
HETATM    9  C9  UNL     1      25.259   5.563  49.596  1.00  0.00     0.038 A 
HETATM   10  C10 UNL     1      25.298   4.344  50.272  1.00  0.00    -0.004 A 
HETATM   11  C11 UNL     1      24.244   3.993  51.095  1.00  0.00     0.046 A 
HETATM   12  C12 UNL     1      24.260   2.792  51.773  1.00  0.00     0.069 A 
ENDROOT
BRANCH  12  13
HETATM   13  N3  UNL     1      23.233   2.335  52.642  1.00  0.00    -0.321 N 
HETATM   14  C13 UNL     1      21.986   1.853  52.134  1.00  0.00     0.245 C 
HETATM   15  O2  UNL     1      21.963   1.901  50.878  1.00  0.00    -0.268 OA
HETATM   16  H10 UNL     1      23.401   2.354  53.690  1.00  0.00     0.169 HD
BRANCH  14  17
HETATM   17  C14 UNL     1      20.916   1.379  52.997  1.00  0.00     0.070 C 
HETATM   18  C15 UNL     1      20.837   0.190  53.529  1.00  0.00    -0.019 C 
BRANCH  18  19
HETATM   19  C16 UNL     1      21.691  -1.008  53.482  1.00  0.00     0.057 C 
BRANCH  19  20
HETATM   20  C17 UNL     1      22.502  -1.178  54.756  1.00  0.00     0.272 C 
BRANCH  20  21
HETATM   21  N4  UNL     1      23.860  -0.801  54.501  1.00  0.00     0.079 N 
HETATM   22  C18 UNL     1      24.754  -1.112  55.603  1.00  0.00     0.306 C 
HETATM   23  H17 UNL     1      23.982   0.183  54.158  1.00  0.00     0.315 HD
ENDBRANCH  20  21
ENDBRANCH  19  20
ENDBRANCH  18  19
ENDBRANCH  14  17
ENDBRANCH  12  13
BRANCH   1  24
HETATM   24  O1  UNL     1      25.452   0.728  52.251  1.00  0.00    -0.349 OA
BRANCH  24  25
HETATM   25  C2  UNL     1      26.715   0.167  52.627  1.00  0.00     0.171 C 
HETATM   26  C1  UNL     1      26.720  -1.309  52.382  1.00  0.00     0.034 C 
ENDBRANCH  24  25
ENDBRANCH   1  24
TORSDOF 7
ENDMDL
MODEL 8
REMARK VINA RESULT:      -7.1      3.147      7.513
REMARK  7 active torsions:
REMARK  status: ('A' for Active; 'I' for Inactive)
REMARK    1  A    between atoms: C2_2  and  O1_3 
REMARK    2  A    between atoms: O1_3  and  C3_4 
REMARK    3  A    between atoms: C12_15  and  N3_16 
REMARK       I    between atoms: N3_16  and  C13_17 
REMARK    4  A    between atoms: C13_17  and  C14_19 
REMARK    5  A    between atoms: C15_20  and  C16_21 
REMARK    6  A    between atoms: C16_21  and  C17_22 
REMARK    7  A    between atoms: C17_22  and  N4_23 
ROOT
HETATM    1  C3  UNL     1      23.264   2.505  52.588  1.00  0.00     0.097 A 
HETATM    2  C4  UNL     1      24.641   2.737  52.677  1.00  0.00     0.071 A 
HETATM    3  C5  UNL     1      25.535   1.689  52.816  1.00  0.00     0.069 A 
HETATM    4  N1  UNL     1      26.851   1.933  52.898  1.00  0.00    -0.259 NA
HETATM    5  C6  UNL     1      27.723   0.917  53.034  1.00  0.00     0.140 A 
HETATM    6  C7  UNL     1      27.278  -0.398  53.091  1.00  0.00     0.063 A 
HETATM    7  C8  UNL     1      28.225  -1.467  53.236  1.00  0.00     0.101 C 
HETATM    8  N2  UNL     1      28.980  -2.341  53.357  1.00  0.00    -0.191 NA
HETATM    9  C9  UNL     1      25.906  -0.651  53.005  1.00  0.00     0.038 A 
HETATM   10  C10 UNL     1      25.023   0.419  52.864  1.00  0.00    -0.004 A 
HETATM   11  C11 UNL     1      23.665   0.169  52.779  1.00  0.00     0.046 A 
HETATM   12  C12 UNL     1      22.773   1.211  52.640  1.00  0.00     0.069 A 
ENDROOT
BRANCH  12  13
HETATM   13  N3  UNL     1      21.363   1.066  52.544  1.00  0.00    -0.321 N 
HETATM   14  C13 UNL     1      20.738   0.635  51.331  1.00  0.00     0.245 C 
HETATM   15  O2  UNL     1      21.594   0.423  50.435  1.00  0.00    -0.268 OA
HETATM   16  H10 UNL     1      20.765   1.284  53.394  1.00  0.00     0.169 HD
BRANCH  14  17
HETATM   17  C14 UNL     1      19.299   0.477  51.201  1.00  0.00     0.070 C 
HETATM   18  C15 UNL     1      18.531  -0.203  52.008  1.00  0.00    -0.019 C 
BRANCH  18  19
HETATM   19  C16 UNL     1      18.776  -0.992  53.227  1.00  0.00     0.057 C 
BRANCH  19  20
HETATM   20  C17 UNL     1      17.837  -2.182  53.331  1.00  0.00     0.272 C 
BRANCH  20  21
HETATM   21  N4  UNL     1      16.486  -1.726  53.191  1.00  0.00     0.079 N 
HETATM   22  C18 UNL     1      15.639  -2.667  52.479  1.00  0.00     0.306 C 
HETATM   23  H17 UNL     1      16.392  -0.749  52.820  1.00  0.00     0.315 HD
ENDBRANCH  20  21
ENDBRANCH  19  20
ENDBRANCH  18  19
ENDBRANCH  14  17
ENDBRANCH  12  13
BRANCH   1  24
HETATM   24  O1  UNL     1      22.444   3.613  52.451  1.00  0.00    -0.349 OA
BRANCH  24  25
HETATM   25  C2  UNL     1      22.778   4.707  51.590  1.00  0.00     0.171 C 
HETATM   26  C1  UNL     1      22.214   4.481  50.223  1.00  0.00     0.034 C 
ENDBRANCH  24  25
ENDBRANCH   1  24
TORSDOF 7
ENDMDL
MODEL 9
REMARK VINA RESULT:      -6.9      2.522      5.026
REMARK  7 active torsions:
REMARK  status: ('A' for Active; 'I' for Inactive)
REMARK    1  A    between atoms: C2_2  and  O1_3 
REMARK    2  A    between atoms: O1_3  and  C3_4 
REMARK    3  A    between atoms: C12_15  and  N3_16 
REMARK       I    between atoms: N3_16  and  C13_17 
REMARK    4  A    between atoms: C13_17  and  C14_19 
REMARK    5  A    between atoms: C15_20  and  C16_21 
REMARK    6  A    between atoms: C16_21  and  C17_22 
REMARK    7  A    between atoms: C17_22  and  N4_23 
ROOT
HETATM    1  C3  UNL     1      22.978   1.950  51.981  1.00  0.00     0.097 A 
HETATM    2  C4  UNL     1      23.340   0.763  52.627  1.00  0.00     0.071 A 
HETATM    3  C5  UNL     1      24.670   0.410  52.780  1.00  0.00     0.069 A 
HETATM    4  N1  UNL     1      24.997  -0.732  53.402  1.00  0.00    -0.259 NA
HETATM    5  C6  UNL     1      26.289  -1.078  53.552  1.00  0.00     0.140 A 
HETATM    6  C7  UNL     1      27.304  -0.263  53.067  1.00  0.00     0.063 A 
HETATM    7  C8  UNL     1      28.675  -0.651  53.238  1.00  0.00     0.101 C 
HETATM    8  N2  UNL     1      29.788  -0.956  53.366  1.00  0.00    -0.191 NA
HETATM    9  C9  UNL     1      26.962   0.927  52.419  1.00  0.00     0.038 A 
HETATM   10  C10 UNL     1      25.617   1.264  52.277  1.00  0.00    -0.004 A 
HETATM   11  C11 UNL     1      25.279   2.442  51.635  1.00  0.00     0.046 A 
HETATM   12  C12 UNL     1      23.955   2.796  51.482  1.00  0.00     0.069 A 
ENDROOT
BRANCH  12  13
HETATM   13  N3  UNL     1      23.499   3.979  50.841  1.00  0.00    -0.321 N 
HETATM   14  C13 UNL     1      23.319   5.199  51.566  1.00  0.00     0.245 C 
HETATM   15  O2  UNL     1      23.614   5.048  52.779  1.00  0.00    -0.268 OA
HETATM   16  H10 UNL     1      23.289   3.951  49.800  1.00  0.00     0.169 HD
BRANCH  14  17
HETATM   17  C14 UNL     1      22.854   6.425  50.939  1.00  0.00     0.070 C 
HETATM   18  C15 UNL     1      23.593   7.266  50.269  1.00  0.00    -0.019 C 
BRANCH  18  19
HETATM   19  C16 UNL     1      25.022   7.312  49.916  1.00  0.00     0.057 C 
BRANCH  19  20
HETATM   20  C17 UNL     1      25.624   8.685  50.165  1.00  0.00     0.272 C 
BRANCH  20  21
HETATM   21  N4  UNL     1      26.984   8.530  50.589  1.00  0.00     0.079 N 
HETATM   22  C18 UNL     1      27.912   9.358  49.838  1.00  0.00     0.306 C 
HETATM   23  H17 UNL     1      27.307   7.535  50.660  1.00  0.00     0.315 HD
ENDBRANCH  20  21
ENDBRANCH  19  20
ENDBRANCH  18  19
ENDBRANCH  14  17
ENDBRANCH  12  13
BRANCH   1  24
HETATM   24  O1  UNL     1      21.624   2.223  51.874  1.00  0.00    -0.349 OA
BRANCH  24  25
HETATM   25  C2  UNL     1      20.653   1.616  52.733  1.00  0.00     0.171 C 
HETATM   26  C1  UNL     1      19.711   0.772  51.933  1.00  0.00     0.034 C 
ENDBRANCH  24  25
ENDBRANCH   1  24
TORSDOF 7
ENDMDL
