MODEL 1
REMARK VINA RESULT:      -7.8      0.000      0.000
REMARK  4 active torsions:
REMARK  status: ('A' for Active; 'I' for Inactive)
REMARK    1  A    between atoms: C1_2  and  C2_3 
REMARK    2  A    between atoms: C2_3  and  N1_4 
REMARK    3  A    between atoms: N1_4  and  C3_5 
REMARK    4  A    between atoms: C7_10  and  C8_11 
ROOT
HETATM    1  C3  UNL     1      26.804   0.131  54.227  1.00  0.00     0.098 C 
HETATM    2  C4  UNL     1      26.397   1.364  54.015  1.00  0.00     0.050 C 
HETATM    3  C5  UNL     1      25.413   2.353  53.600  1.00  0.00     0.028 C 
HETATM    4  C6  UNL     1      24.189   2.178  53.155  1.00  0.00     0.136 C 
HETATM    5  O2  UNL     1      22.881   1.887  52.684  1.00  0.00    -0.348 OA
HETATM    6  C7  UNL     1      22.656   0.467  52.480  1.00  0.00     0.203 C 
HETATM    7  C14 UNL     1      23.208  -0.197  53.715  1.00  0.00     0.046 A 
HETATM    8 CL1  UNL     1      23.399  -0.868  55.309  1.00  0.00    -0.155 Cl
HETATM    9  C15 UNL     1      24.486  -0.546  53.783  1.00  0.00     0.212 A 
HETATM   10  N2  UNL     1      25.869  -0.950  53.918  1.00  0.00    -0.355 N 
HETATM   11  H15 UNL     1      26.049  -1.991  53.780  1.00  0.00     0.163 HD
ENDROOT
BRANCH   6  12
HETATM   12  C8  UNL     1      21.241   0.162  52.380  1.00  0.00    -0.024 A 
HETATM   13  C9  UNL     1      20.563  -0.492  53.362  1.00  0.00     0.010 A 
HETATM   14  C10 UNL     1      19.198  -0.783  53.259  1.00  0.00     0.001 A 
HETATM   15  C11 UNL     1      18.527  -0.380  52.098  1.00  0.00     0.000 A 
HETATM   16  C12 UNL     1      19.226   0.289  51.095  1.00  0.00     0.001 A 
HETATM   17  C13 UNL     1      20.562   0.554  51.236  1.00  0.00     0.010 A 
ENDBRANCH   6  12
BRANCH   1  18
HETATM   18  N1  UNL     1      27.964  -0.526  54.693  1.00  0.00    -0.374 N 
HETATM   19  H4  UNL     1      27.969  -0.834  55.684  1.00  0.00     0.161 HD
BRANCH  18  20
HETATM   20  C2  UNL     1      28.896  -0.593  53.562  1.00  0.00     0.157 C 
BRANCH  20  21
HETATM   21  C1  UNL     1      29.210  -2.023  53.287  1.00  0.00     0.410 C 
HETATM   22  O1  UNL     1      28.870  -3.171  53.505  1.00  0.00    -0.428 OA
ENDBRANCH  20  21
ENDBRANCH  18  20
ENDBRANCH   1  18
TORSDOF 4
ENDMDL
MODEL 2
REMARK VINA RESULT:      -7.6      2.797      7.414
REMARK  4 active torsions:
REMARK  status: ('A' for Active; 'I' for Inactive)
REMARK    1  A    between atoms: C1_2  and  C2_3 
REMARK    2  A    between atoms: C2_3  and  N1_4 
REMARK    3  A    between atoms: N1_4  and  C3_5 
REMARK    4  A    between atoms: C7_10  and  C8_11 
ROOT
HETATM    1  C3  UNL     1      21.489   0.534  53.007  1.00  0.00     0.098 C 
HETATM    2  C4  UNL     1      21.727  -0.171  54.091  1.00  0.00     0.050 C 
HETATM    3  C5  UNL     1      22.602  -0.880  55.013  1.00  0.00     0.028 C 
HETATM    4  C6  UNL     1      23.904  -1.056  54.961  1.00  0.00     0.136 C 
HETATM    5  O2  UNL     1      25.309  -1.194  54.817  1.00  0.00    -0.348 OA
HETATM    6  C7  UNL     1      25.798  -0.699  53.542  1.00  0.00     0.203 C 
HETATM    7  C14 UNL     1      25.119   0.632  53.353  1.00  0.00     0.046 A 
HETATM    8 CL1  UNL     1      24.716   2.324  53.396  1.00  0.00    -0.155 Cl
HETATM    9  C15 UNL     1      23.928   0.709  52.775  1.00  0.00     0.212 A 
HETATM   10  N2  UNL     1      22.630   0.859  52.151  1.00  0.00    -0.355 N 
HETATM   11  H15 UNL     1      22.653   1.194  51.140  1.00  0.00     0.163 HD
ENDROOT
BRANCH   6  12
HETATM   12  C8  UNL     1      27.234  -0.492  53.567  1.00  0.00    -0.024 A 
HETATM   13  C9  UNL     1      27.794   0.688  53.949  1.00  0.00     0.010 A 
HETATM   14  C10 UNL     1      29.180   0.882  53.971  1.00  0.00     0.001 A 
HETATM   15  C11 UNL     1      29.999  -0.185  53.583  1.00  0.00     0.000 A 
HETATM   16  C12 UNL     1      29.420  -1.392  53.192  1.00  0.00     0.001 A 
HETATM   17  C13 UNL     1      28.058  -1.539  53.185  1.00  0.00     0.010 A 
ENDBRANCH   6  12
BRANCH   1  18
HETATM   18  N1  UNL     1      20.381   1.117  52.355  1.00  0.00    -0.374 N 
HETATM   19  H4  UNL     1      19.694   0.472  51.919  1.00  0.00     0.161 HD
BRANCH  18  20
HETATM   20  C2  UNL     1      20.523   2.571  52.493  1.00  0.00     0.157 C 
BRANCH  20  21
HETATM   21  C1  UNL     1      19.373   3.229  51.814  1.00  0.00     0.410 C 
HETATM   22  O1  UNL     1      18.206   3.553  51.933  1.00  0.00    -0.428 OA
ENDBRANCH  20  21
ENDBRANCH  18  20
ENDBRANCH   1  18
TORSDOF 4
ENDMDL
MODEL 3
REMARK VINA RESULT:      -7.5      1.449      1.552
REMARK  4 active torsions:
REMARK  status: ('A' for Active; 'I' for Inactive)
REMARK    1  A    between atoms: C1_2  and  C2_3 
REMARK    2  A    between atoms: C2_3  and  N1_4 
REMARK    3  A    between atoms: N1_4  and  C3_5 
REMARK    4  A    between atoms: C7_10  and  C8_11 
ROOT
HETATM    1  C3  UNL     1      26.327   0.233  53.980  1.00  0.00     0.098 C 
HETATM    2  C4  UNL     1      25.888   1.454  53.763  1.00  0.00     0.050 C 
HETATM    3  C5  UNL     1      24.876   2.417  53.358  1.00  0.00     0.028 C 
HETATM    4  C6  UNL     1      23.647   2.211  52.938  1.00  0.00     0.136 C 
HETATM    5  O2  UNL     1      22.338   1.888  52.496  1.00  0.00    -0.348 OA
HETATM    6  C7  UNL     1      22.140   0.461  52.310  1.00  0.00     0.203 C 
HETATM    7  C14 UNL     1      22.730  -0.178  53.540  1.00  0.00     0.046 A 
HETATM    8 CL1  UNL     1      22.966  -0.828  55.137  1.00  0.00    -0.155 Cl
HETATM    9  C15 UNL     1      24.016  -0.498  53.587  1.00  0.00     0.212 A 
HETATM   10  N2  UNL     1      25.410  -0.871  53.699  1.00  0.00    -0.355 N 
HETATM   11  H15 UNL     1      25.610  -1.909  53.568  1.00  0.00     0.163 HD
ENDROOT
BRANCH   6  12
HETATM   12  C8  UNL     1      20.730   0.124  52.239  1.00  0.00    -0.024 A 
HETATM   13  C9  UNL     1      20.086  -0.536  53.240  1.00  0.00     0.010 A 
HETATM   14  C10 UNL     1      18.726  -0.857  53.166  1.00  0.00     0.001 A 
HETATM   15  C11 UNL     1      18.024  -0.480  52.016  1.00  0.00     0.000 A 
HETATM   16  C12 UNL     1      18.688   0.197  50.993  1.00  0.00     0.001 A 
HETATM   17  C13 UNL     1      20.021   0.491  51.106  1.00  0.00     0.010 A 
ENDBRANCH   6  12
BRANCH   1  18
HETATM   18  N1  UNL     1      27.509  -0.393  54.429  1.00  0.00    -0.374 N 
HETATM   19  H4  UNL     1      27.422  -1.058  55.223  1.00  0.00     0.161 HD
BRANCH  18  20
HETATM   20  C2  UNL     1      28.601   0.106  53.586  1.00  0.00     0.157 C 
BRANCH  20  21
HETATM   21  C1  UNL     1      29.348   1.150  54.340  1.00  0.00     0.410 C 
HETATM   22  O1  UNL     1      29.284   2.275  54.801  1.00  0.00    -0.428 OA
ENDBRANCH  20  21
ENDBRANCH  18  20
ENDBRANCH   1  18
TORSDOF 4
ENDMDL
MODEL 4
REMARK VINA RESULT:      -7.5      2.510      2.813
REMARK  4 active torsions:
REMARK  status: ('A' for Active; 'I' for Inactive)
REMARK    1  A    between atoms: C1_2  and  C2_3 
REMARK    2  A    between atoms: C2_3  and  N1_4 
REMARK    3  A    between atoms: N1_4  and  C3_5 
REMARK    4  A    between atoms: C7_10  and  C8_11 
ROOT
HETATM    1  C3  UNL     1      26.158   1.850  53.833  1.00  0.00     0.098 C 
HETATM    2  C4  UNL     1      25.993   0.575  54.109  1.00  0.00     0.050 C 
HETATM    3  C5  UNL     1      25.196  -0.637  54.220  1.00  0.00     0.028 C 
HETATM    4  C6  UNL     1      23.919  -0.824  53.965  1.00  0.00     0.136 C 
HETATM    5  O2  UNL     1      22.536  -0.926  53.664  1.00  0.00    -0.348 OA
HETATM    6  C7  UNL     1      21.920   0.361  53.391  1.00  0.00     0.203 C 
HETATM    7  C14 UNL     1      22.874   1.059  52.458  1.00  0.00     0.046 A 
HETATM    8 CL1  UNL     1      23.721   1.619  51.045  1.00  0.00    -0.155 Cl
HETATM    9  C15 UNL     1      23.874   1.789  52.932  1.00  0.00     0.212 A 
HETATM   10  N2  UNL     1      24.983   2.600  53.388  1.00  0.00    -0.355 N 
HETATM   11  H15 UNL     1      24.820   3.652  53.344  1.00  0.00     0.163 HD
ENDROOT
BRANCH   6  12
HETATM   12  C8  UNL     1      20.641   0.207  52.723  1.00  0.00    -0.024 A 
HETATM   13  C9  UNL     1      19.608  -0.486  53.274  1.00  0.00     0.010 A 
HETATM   14  C10 UNL     1      18.377  -0.630  52.625  1.00  0.00     0.001 A 
HETATM   15  C11 UNL     1      18.224  -0.036  51.367  1.00  0.00     0.000 A 
HETATM   16  C12 UNL     1      19.286   0.674  50.806  1.00  0.00     0.001 A 
HETATM   17  C13 UNL     1      20.474   0.790  51.476  1.00  0.00     0.010 A 
ENDBRANCH   6  12
BRANCH   1  18
HETATM   18  N1  UNL     1      27.202   2.800  53.843  1.00  0.00    -0.374 N 
HETATM   19  H4  UNL     1      26.976   3.750  54.197  1.00  0.00     0.161 HD
BRANCH  18  20
HETATM   20  C2  UNL     1      28.393   2.126  53.314  1.00  0.00     0.157 C 
BRANCH  20  21
HETATM   21  C1  UNL     1      29.350   1.902  54.433  1.00  0.00     0.410 C 
HETATM   22  O1  UNL     1      29.963   2.443  55.335  1.00  0.00    -0.428 OA
ENDBRANCH  20  21
ENDBRANCH  18  20
ENDBRANCH   1  18
TORSDOF 4
ENDMDL
MODEL 5
REMARK VINA RESULT:      -7.5      3.820      7.353
REMARK  4 active torsions:
REMARK  status: ('A' for Active; 'I' for Inactive)
REMARK    1  A    between atoms: C1_2  and  C2_3 
REMARK    2  A    between atoms: C2_3  and  N1_4 
REMARK    3  A    between atoms: N1_4  and  C3_5 
REMARK    4  A    between atoms: C7_10  and  C8_11 
ROOT
HETATM    1  C3  UNL     1      23.409   4.843  51.831  1.00  0.00     0.098 C 
HETATM    2  C4  UNL     1      24.172   4.739  50.765  1.00  0.00     0.050 C 
HETATM    3  C5  UNL     1      25.308   4.206  50.028  1.00  0.00     0.028 C 
HETATM    4  C6  UNL     1      26.221   3.341  50.410  1.00  0.00     0.136 C 
HETATM    5  O2  UNL     1      27.159   2.403  50.915  1.00  0.00    -0.348 OA
HETATM    6  C7  UNL     1      26.988   2.140  52.333  1.00  0.00     0.203 C 
HETATM    7  C14 UNL     1      25.506   1.939  52.517  1.00  0.00     0.046 A 
HETATM    8 CL1  UNL     1      23.911   1.251  52.609  1.00  0.00    -0.155 Cl
HETATM    9  C15 UNL     1      24.707   2.971  52.749  1.00  0.00     0.212 A 
HETATM   10  N2  UNL     1      23.783   4.056  53.006  1.00  0.00    -0.355 N 
HETATM   11  H15 UNL     1      23.477   4.155  54.021  1.00  0.00     0.163 HD
ENDROOT
BRANCH   6  12
HETATM   12  C8  UNL     1      27.676   0.927  52.735  1.00  0.00    -0.024 A 
HETATM   13  C9  UNL     1      27.146  -0.312  52.543  1.00  0.00     0.010 A 
HETATM   14  C10 UNL     1      27.815  -1.477  52.933  1.00  0.00     0.001 A 
HETATM   15  C11 UNL     1      29.070  -1.343  53.539  1.00  0.00     0.000 A 
HETATM   16  C12 UNL     1      29.609  -0.072  53.733  1.00  0.00     0.001 A 
HETATM   17  C13 UNL     1      28.920   1.043  53.337  1.00  0.00     0.010 A 
ENDBRANCH   6  12
BRANCH   1  18
HETATM   18  N1  UNL     1      22.250   5.543  52.229  1.00  0.00    -0.374 N 
HETATM   19  H4  UNL     1      22.314   6.116  53.093  1.00  0.00     0.161 HD
BRANCH  18  20
HETATM   20  C2  UNL     1      21.212   5.243  51.236  1.00  0.00     0.157 C 
BRANCH  20  21
HETATM   21  C1  UNL     1      20.517   3.989  51.637  1.00  0.00     0.410 C 
HETATM   22  O1  UNL     1      20.015   3.390  52.570  1.00  0.00    -0.428 OA
ENDBRANCH  20  21
ENDBRANCH  18  20
ENDBRANCH   1  18
TORSDOF 4
ENDMDL
MODEL 6
REMARK VINA RESULT:      -7.4      4.475      6.954
REMARK  4 active torsions:
REMARK  status: ('A' for Active; 'I' for Inactive)
REMARK    1  A    between atoms: C1_2  and  C2_3 
REMARK    2  A    between atoms: C2_3  and  N1_4 
REMARK    3  A    between atoms: N1_4  and  C3_5 
REMARK    4  A    between atoms: C7_10  and  C8_11 
ROOT
HETATM    1  C3  UNL     1      23.249   0.552  52.261  1.00  0.00     0.098 C 
HETATM    2  C4  UNL     1      24.515   0.523  52.616  1.00  0.00     0.050 C 
HETATM    3  C5  UNL     1      25.901   0.957  52.522  1.00  0.00     0.028 C 
HETATM    4  C6  UNL     1      26.442   1.859  51.732  1.00  0.00     0.136 C 
HETATM    5  O2  UNL     1      26.933   2.847  50.839  1.00  0.00    -0.348 OA
HETATM    6  C7  UNL     1      25.938   3.282  49.875  1.00  0.00     0.203 C 
HETATM    7  C14 UNL     1      24.686   3.509  50.682  1.00  0.00     0.046 A 
HETATM    8 CL1  UNL     1      23.442   4.211  51.676  1.00  0.00    -0.155 Cl
HETATM    9  C15 UNL     1      23.837   2.517  50.909  1.00  0.00     0.212 A 
HETATM   10  N2  UNL     1      22.872   1.475  51.190  1.00  0.00    -0.355 N 
HETATM   11  H15 UNL     1      21.993   1.501  50.589  1.00  0.00     0.163 HD
ENDROOT
BRANCH   6  12
HETATM   12  C8  UNL     1      26.320   4.531  49.244  1.00  0.00    -0.024 A 
HETATM   13  C9  UNL     1      25.428   5.533  49.007  1.00  0.00     0.010 A 
HETATM   14  C10 UNL     1      25.803   6.735  48.398  1.00  0.00     0.001 A 
HETATM   15  C11 UNL     1      27.144   6.894  48.027  1.00  0.00     0.000 A 
HETATM   16  C12 UNL     1      28.053   5.866  48.272  1.00  0.00     0.001 A 
HETATM   17  C13 UNL     1      27.644   4.704  48.871  1.00  0.00     0.010 A 
ENDBRANCH   6  12
BRANCH   1  18
HETATM   18  N1  UNL     1      22.044  -0.090  52.617  1.00  0.00    -0.374 N 
HETATM   19  H4  UNL     1      21.557  -0.631  51.876  1.00  0.00     0.161 HD
BRANCH  18  20
HETATM   20  C2  UNL     1      21.806   0.210  54.034  1.00  0.00     0.157 C 
BRANCH  20  21
HETATM   21  C1  UNL     1      21.933  -1.051  54.815  1.00  0.00     0.410 C 
HETATM   22  O1  UNL     1      22.656  -1.686  55.560  1.00  0.00    -0.428 OA
ENDBRANCH  20  21
ENDBRANCH  18  20
ENDBRANCH   1  18
TORSDOF 4
ENDMDL
MODEL 7
REMARK VINA RESULT:      -7.4      2.715      3.850
REMARK  4 active torsions:
REMARK  status: ('A' for Active; 'I' for Inactive)
REMARK    1  A    between atoms: C1_2  and  C2_3 
REMARK    2  A    between atoms: C2_3  and  N1_4 
REMARK    3  A    between atoms: N1_4  and  C3_5 
REMARK    4  A    between atoms: C7_10  and  C8_11 
ROOT
HETATM    1  C3  UNL     1      27.034   0.150  54.465  1.00  0.00     0.098 C 
HETATM    2  C4  UNL     1      25.928  -0.499  54.172  1.00  0.00     0.050 C 
HETATM    3  C5  UNL     1      24.553  -0.575  53.702  1.00  0.00     0.028 C 
HETATM    4  C6  UNL     1      23.759   0.385  53.283  1.00  0.00     0.136 C 
HETATM    5  O2  UNL     1      22.978   1.488  52.849  1.00  0.00    -0.348 OA
HETATM    6  C7  UNL     1      23.627   2.767  53.082  1.00  0.00     0.203 C 
HETATM    7  C14 UNL     1      25.044   2.577  52.608  1.00  0.00     0.046 A 
HETATM    8 CL1  UNL     1      26.482   2.482  51.633  1.00  0.00    -0.155 Cl
HETATM    9  C15 UNL     1      25.975   2.107  53.426  1.00  0.00     0.212 A 
HETATM   10  N2  UNL     1      27.036   1.600  54.272  1.00  0.00    -0.355 N 
HETATM   11  H15 UNL     1      27.700   2.340  54.653  1.00  0.00     0.163 HD
ENDROOT
BRANCH   6  12
HETATM   12  C8  UNL     1      23.011   3.824  52.302  1.00  0.00    -0.024 A 
HETATM   13  C9  UNL     1      21.703   3.790  51.928  1.00  0.00     0.010 A 
HETATM   14  C10 UNL     1      21.116   4.814  51.177  1.00  0.00     0.001 A 
HETATM   15  C11 UNL     1      21.917   5.899  50.807  1.00  0.00     0.000 A 
HETATM   16  C12 UNL     1      23.257   5.931  51.192  1.00  0.00     0.001 A 
HETATM   17  C13 UNL     1      23.792   4.907  51.928  1.00  0.00     0.010 A 
ENDBRANCH   6  12
BRANCH   1  18
HETATM   18  N1  UNL     1      28.324  -0.143  54.958  1.00  0.00    -0.374 N 
HETATM   19  H4  UNL     1      28.426  -0.255  55.985  1.00  0.00     0.161 HD
BRANCH  18  20
HETATM   20  C2  UNL     1      29.216  -0.212  53.795  1.00  0.00     0.157 C 
BRANCH  20  21
HETATM   21  C1  UNL     1      29.439  -1.643  53.450  1.00  0.00     0.410 C 
HETATM   22  O1  UNL     1      28.940  -2.753  53.457  1.00  0.00    -0.428 OA
ENDBRANCH  20  21
ENDBRANCH  18  20
ENDBRANCH   1  18
TORSDOF 4
ENDMDL
MODEL 8
REMARK VINA RESULT:      -7.3      4.276      5.359
REMARK  4 active torsions:
REMARK  status: ('A' for Active; 'I' for Inactive)
REMARK    1  A    between atoms: C1_2  and  C2_3 
REMARK    2  A    between atoms: C2_3  and  N1_4 
REMARK    3  A    between atoms: N1_4  and  C3_5 
REMARK    4  A    between atoms: C7_10  and  C8_11 
ROOT
HETATM    1  C3  UNL     1      25.440   4.800  49.939  1.00  0.00     0.098 C 
HETATM    2  C4  UNL     1      24.433   4.382  49.202  1.00  0.00     0.050 C 
HETATM    3  C5  UNL     1      23.311   3.501  48.916  1.00  0.00     0.028 C 
HETATM    4  C6  UNL     1      22.840   2.494  49.618  1.00  0.00     0.136 C 
HETATM    5  O2  UNL     1      22.405   1.424  50.444  1.00  0.00    -0.348 OA
HETATM    6  C7  UNL     1      23.307   1.164  51.552  1.00  0.00     0.203 C 
HETATM    7  C14 UNL     1      23.620   2.520  52.128  1.00  0.00     0.046 A 
HETATM    8 CL1  UNL     1      23.572   3.999  53.043  1.00  0.00    -0.155 Cl
HETATM    9  C15 UNL     1      24.626   3.242  51.655  1.00  0.00     0.212 A 
HETATM   10  N2  UNL     1      25.710   4.076  51.181  1.00  0.00    -0.355 N 
HETATM   11  H15 UNL     1      26.581   4.073  51.794  1.00  0.00     0.163 HD
ENDROOT
BRANCH   6  12
HETATM   12  C8  UNL     1      22.671   0.357  52.577  1.00  0.00    -0.024 A 
HETATM   13  C9  UNL     1      23.372  -0.227  53.587  1.00  0.00     0.010 A 
HETATM   14  C10 UNL     1      22.752  -1.004  54.572  1.00  0.00     0.001 A 
HETATM   15  C11 UNL     1      21.365  -1.175  54.497  1.00  0.00     0.000 A 
HETATM   16  C12 UNL     1      20.651  -0.575  53.461  1.00  0.00     0.001 A 
HETATM   17  C13 UNL     1      21.297   0.177  52.517  1.00  0.00     0.010 A 
ENDBRANCH   6  12
BRANCH   1  18
HETATM   18  N1  UNL     1      26.426   5.808  49.894  1.00  0.00    -0.374 N 
HETATM   19  H4  UNL     1      26.615   6.327  50.774  1.00  0.00     0.161 HD
BRANCH  18  20
HETATM   20  C2  UNL     1      26.943   5.836  48.521  1.00  0.00     0.157 C 
BRANCH  20  21
HETATM   21  C1  UNL     1      28.204   5.045  48.470  1.00  0.00     0.410 C 
HETATM   22  O1  UNL     1      29.398   5.100  48.245  1.00  0.00    -0.428 OA
ENDBRANCH  20  21
ENDBRANCH  18  20
ENDBRANCH   1  18
TORSDOF 4
ENDMDL
MODEL 9
REMARK VINA RESULT:      -7.1      4.525      7.159
REMARK  4 active torsions:
REMARK  status: ('A' for Active; 'I' for Inactive)
REMARK    1  A    between atoms: C1_2  and  C2_3 
REMARK    2  A    between atoms: C2_3  and  N1_4 
REMARK    3  A    between atoms: N1_4  and  C3_5 
REMARK    4  A    between atoms: C7_10  and  C8_11 
ROOT
HETATM    1  C3  UNL     1      22.999   1.228  52.423  1.00  0.00     0.098 C 
HETATM    2  C4  UNL     1      22.508   1.305  51.205  1.00  0.00     0.050 C 
HETATM    3  C5  UNL     1      22.464   1.845  49.855  1.00  0.00     0.028 C 
HETATM    4  C6  UNL     1      23.218   2.767  49.298  1.00  0.00     0.136 C 
HETATM    5  O2  UNL     1      24.082   3.770  48.787  1.00  0.00    -0.348 OA
HETATM    6  C7  UNL     1      24.933   4.357  49.808  1.00  0.00     0.203 C 
HETATM    7  C14 UNL     1      25.469   3.186  50.589  1.00  0.00     0.046 A 
HETATM    8 CL1  UNL     1      26.426   1.841  51.139  1.00  0.00    -0.155 Cl
HETATM    9  C15 UNL     1      24.798   2.696  51.622  1.00  0.00     0.212 A 
HETATM   10  N2  UNL     1      24.112   2.116  52.757  1.00  0.00    -0.355 N 
HETATM   11  H15 UNL     1      24.500   2.399  53.709  1.00  0.00     0.163 HD
ENDROOT
BRANCH   6  12
HETATM   12  C8  UNL     1      26.047   5.077  49.221  1.00  0.00    -0.024 A 
HETATM   13  C9  UNL     1      27.247   4.486  48.967  1.00  0.00     0.010 A 
HETATM   14  C10 UNL     1      28.318   5.186  48.400  1.00  0.00     0.001 A 
HETATM   15  C11 UNL     1      28.129   6.538  48.093  1.00  0.00     0.000 A 
HETATM   16  C12 UNL     1      26.899   7.140  48.355  1.00  0.00     0.001 A 
HETATM   17  C13 UNL     1      25.877   6.418  48.911  1.00  0.00     0.010 A 
ENDBRANCH   6  12
BRANCH   1  18
HETATM   18  N1  UNL     1      22.760   0.499  53.608  1.00  0.00    -0.374 N 
HETATM   19  H4  UNL     1      23.120   0.902  54.495  1.00  0.00     0.161 HD
BRANCH  18  20
HETATM   20  C2  UNL     1      22.015  -0.705  53.222  1.00  0.00     0.157 C 
BRANCH  20  21
HETATM   21  C1  UNL     1      21.800  -1.542  54.435  1.00  0.00     0.410 C 
HETATM   22  O1  UNL     1      22.326  -1.982  55.440  1.00  0.00    -0.428 OA
ENDBRANCH  20  21
ENDBRANCH  18  20
ENDBRANCH   1  18
TORSDOF 4
ENDMDL
