MODEL 1
REMARK VINA RESULT:      -7.9      0.000      0.000
REMARK  6 active torsions:
REMARK  status: ('A' for Active; 'I' for Inactive)
REMARK    1  A    between atoms: C2_2  and  C3_4 
REMARK    2  A    between atoms: C3_4  and  C4_5 
REMARK    3  A    between atoms: C5_6  and  C6_7 
REMARK    4  A    between atoms: C6_7  and  O1_8 
REMARK    5  A    between atoms: O1_8  and  C7_9 
REMARK    6  A    between atoms: C7_9  and  C8_10 
ROOT
HETATM    1  C7  UNL     1      23.841   1.956  51.760  1.00  0.00     0.298 C 
HETATM    2  C9  UNL     1      22.935   2.981  52.377  1.00  0.00     0.062 C 
HETATM    3  C10 UNL     1      23.417   3.940  53.146  1.00  0.00     0.087 C 
HETATM    4  N1  UNL     1      24.827   3.810  53.260  1.00  0.00    -0.351 N 
HETATM    5  C11 UNL     1      25.391   2.502  53.442  1.00  0.00     0.472 C 
HETATM    6  N2  UNL     1      26.838   2.516  53.232  1.00  0.00    -0.139 NA
HETATM    7  N3  UNL     1      27.620   2.257  54.185  1.00  0.00    -0.193 NA
HETATM    8  C12 UNL     1      29.026   2.218  54.175  1.00  0.00     0.118 C 
HETATM    9  C13 UNL     1      28.932   0.965  53.804  1.00  0.00     0.102 C 
HETATM   10  C14 UNL     1      29.829  -0.120  53.486  1.00  0.00    -0.013 C 
HETATM   11  C15 UNL     1      28.959  -1.109  53.184  1.00  0.00     0.070 C 
HETATM   12  C16 UNL     1      27.573  -1.625  53.020  1.00  0.00     0.240 C 
HETATM   13  O2  UNL     1      26.659  -2.487  52.752  1.00  0.00    -0.269 OA
HETATM   14  N4  UNL     1      26.299  -1.027  53.192  1.00  0.00    -0.356 N 
HETATM   15  C17 UNL     1      24.874  -0.920  53.210  1.00  0.00     0.153 C 
HETATM   16  C18 UNL     1      24.314   0.424  53.623  1.00  0.00     0.302 C 
HETATM   17  N5  UNL     1      24.716   1.450  52.734  1.00  0.00     0.175 N 
HETATM   18  H13 UNL     1      25.463   4.665  53.221  1.00  0.00     0.162 HD
HETATM   19  H19 UNL     1      26.643  -0.118  53.511  1.00  0.00     0.162 HD
ENDROOT
BRANCH   1  20
HETATM   20  O1  UNL     1      24.702   2.716  50.901  1.00  0.00    -0.344 OA
BRANCH  20  21
HETATM   21  C6  UNL     1      24.103   3.128  49.748  1.00  0.00     0.198 C 
BRANCH  21  22
HETATM   22  C5  UNL     1      24.485   4.548  49.394  1.00  0.00    -0.004 C 
HETATM   23  C4  UNL     1      25.716   4.955  49.127  1.00  0.00    -0.022 C 
BRANCH  23  24
HETATM   24  C3  UNL     1      27.071   4.367  49.049  1.00  0.00     0.091 C 
BRANCH  24  25
HETATM   25  C2  UNL     1      28.094   5.267  48.488  1.00  0.00     0.059 A 
HETATM   26  C1  UNL     1      27.667   6.485  48.106  1.00  0.00     0.245 A 
HETATM   27  F1  UNL     1      29.043   6.069  47.978  1.00  0.00    -0.371 F 
ENDBRANCH  24  25
ENDBRANCH  23  24
ENDBRANCH  21  22
ENDBRANCH  20  21
ENDBRANCH   1  20
BRANCH   1  28
HETATM   28  C8  UNL     1      23.048   0.988  50.938  1.00  0.00     0.191 C 
HETATM   29 CL1  UNL     1      21.431   0.632  51.516  1.00  0.00    -0.125 Cl
ENDBRANCH   1  28
TORSDOF 6
ENDMDL
MODEL 2
REMARK VINA RESULT:      -7.3      4.452      7.010
REMARK  6 active torsions:
REMARK  status: ('A' for Active; 'I' for Inactive)
REMARK    1  A    between atoms: C2_2  and  C3_4 
REMARK    2  A    between atoms: C3_4  and  C4_5 
REMARK    3  A    between atoms: C5_6  and  C6_7 
REMARK    4  A    between atoms: C6_7  and  O1_8 
REMARK    5  A    between atoms: O1_8  and  C7_9 
REMARK    6  A    between atoms: C7_9  and  C8_10 
ROOT
HETATM    1  C7  UNL     1      24.939   4.603  50.210  1.00  0.00     0.298 C 
HETATM    2  C9  UNL     1      25.169   6.082  50.318  1.00  0.00     0.062 C 
HETATM    3  C10 UNL     1      24.397   6.838  51.076  1.00  0.00     0.087 C 
HETATM    4  N1  UNL     1      23.400   6.042  51.702  1.00  0.00    -0.351 N 
HETATM    5  C11 UNL     1      22.741   5.024  50.933  1.00  0.00     0.472 C 
HETATM    6  N2  UNL     1      21.986   4.115  51.793  1.00  0.00    -0.139 NA
HETATM    7  N3  UNL     1      20.730   4.056  51.709  1.00  0.00    -0.193 NA
HETATM    8  C12 UNL     1      19.843   3.249  52.443  1.00  0.00     0.118 C 
HETATM    9  C13 UNL     1      20.028   2.320  51.537  1.00  0.00     0.102 C 
HETATM   10  C14 UNL     1      19.567   0.976  51.283  1.00  0.00    -0.013 C 
HETATM   11  C15 UNL     1      20.226   0.679  50.141  1.00  0.00     0.070 C 
HETATM   12  C16 UNL     1      21.165   1.035  49.042  1.00  0.00     0.240 C 
HETATM   13  O2  UNL     1      21.840   0.858  47.964  1.00  0.00    -0.269 OA
HETATM   14  N4  UNL     1      21.914   2.204  48.762  1.00  0.00    -0.356 N 
HETATM   15  C17 UNL     1      22.817   3.069  48.068  1.00  0.00     0.153 C 
HETATM   16  C18 UNL     1      23.024   4.439  48.676  1.00  0.00     0.302 C 
HETATM   17  N5  UNL     1      23.577   4.352  49.977  1.00  0.00     0.175 N 
HETATM   18  H13 UNL     1      23.134   6.195  52.723  1.00  0.00     0.162 HD
HETATM   19  H19 UNL     1      21.567   2.754  49.552  1.00  0.00     0.162 HD
ENDROOT
BRANCH   1  20
HETATM   20  O1  UNL     1      25.145   4.115  51.543  1.00  0.00    -0.344 OA
BRANCH  20  21
HETATM   21  C6  UNL     1      25.551   2.816  51.595  1.00  0.00     0.198 C 
BRANCH  21  22
HETATM   22  C5  UNL     1      25.227   2.181  52.930  1.00  0.00    -0.004 C 
HETATM   23  C4  UNL     1      24.241   1.322  53.139  1.00  0.00    -0.022 C 
BRANCH  23  24
HETATM   24  C3  UNL     1      23.170   0.672  52.353  1.00  0.00     0.091 C 
BRANCH  24  25
HETATM   25  C2  UNL     1      22.543  -0.484  53.018  1.00  0.00     0.059 A 
HETATM   26  C1  UNL     1      21.790  -0.209  54.098  1.00  0.00     0.245 A 
HETATM   27  F1  UNL     1      21.982  -1.552  53.608  1.00  0.00    -0.371 F 
ENDBRANCH  24  25
ENDBRANCH  23  24
ENDBRANCH  21  22
ENDBRANCH  20  21
ENDBRANCH   1  20
BRANCH   1  28
HETATM   28  C8  UNL     1      25.947   3.984  49.293  1.00  0.00     0.191 C 
HETATM   29 CL1  UNL     1      27.207   5.051  48.702  1.00  0.00    -0.125 Cl
ENDBRANCH   1  28
TORSDOF 6
ENDMDL
MODEL 3
REMARK VINA RESULT:      -7.2      4.301      6.622
REMARK  6 active torsions:
REMARK  status: ('A' for Active; 'I' for Inactive)
REMARK    1  A    between atoms: C2_2  and  C3_4 
REMARK    2  A    between atoms: C3_4  and  C4_5 
REMARK    3  A    between atoms: C5_6  and  C6_7 
REMARK    4  A    between atoms: C6_7  and  O1_8 
REMARK    5  A    between atoms: O1_8  and  C7_9 
REMARK    6  A    between atoms: C7_9  and  C8_10 
ROOT
HETATM    1  C7  UNL     1      23.611   4.177  49.234  1.00  0.00     0.298 C 
HETATM    2  C9  UNL     1      24.944   4.852  49.098  1.00  0.00     0.062 C 
HETATM    3  C10 UNL     1      26.034   4.319  49.620  1.00  0.00     0.087 C 
HETATM    4  N1  UNL     1      25.713   3.100  50.276  1.00  0.00    -0.351 N 
HETATM    5  C11 UNL     1      24.523   3.035  51.077  1.00  0.00     0.472 C 
HETATM    6  N2  UNL     1      24.188   1.653  51.416  1.00  0.00    -0.139 NA
HETATM    7  N3  UNL     1      24.216   1.270  52.616  1.00  0.00    -0.193 NA
HETATM    8  C12 UNL     1      23.925  -0.006  53.131  1.00  0.00     0.118 C 
HETATM    9  C13 UNL     1      22.671   0.368  53.195  1.00  0.00     0.102 C 
HETATM   10  C14 UNL     1      21.411  -0.202  53.608  1.00  0.00    -0.013 C 
HETATM   11  C15 UNL     1      20.560   0.818  53.360  1.00  0.00     0.070 C 
HETATM   12  C16 UNL     1      20.280   2.201  52.886  1.00  0.00     0.240 C 
HETATM   13  O2  UNL     1      19.564   3.231  52.610  1.00  0.00    -0.269 OA
HETATM   14  N4  UNL     1      21.113   3.226  52.373  1.00  0.00    -0.356 N 
HETATM   15  C17 UNL     1      21.471   4.501  51.833  1.00  0.00     0.153 C 
HETATM   16  C18 UNL     1      22.941   4.707  51.539  1.00  0.00     0.302 C 
HETATM   17  N5  UNL     1      23.411   3.790  50.569  1.00  0.00     0.175 N 
HETATM   18  H13 UNL     1      26.344   2.245  50.187  1.00  0.00     0.162 HD
HETATM   19  H19 UNL     1      21.995   2.716  52.471  1.00  0.00     0.162 HD
ENDROOT
BRANCH   1  20
HETATM   20  O1  UNL     1      23.774   2.929  48.546  1.00  0.00    -0.344 OA
BRANCH  20  21
HETATM   21  C6  UNL     1      22.654   2.512  47.893  1.00  0.00     0.198 C 
BRANCH  21  22
HETATM   22  C5  UNL     1      21.966   1.382  48.627  1.00  0.00    -0.004 C 
HETATM   23  C4  UNL     1      20.725   1.425  49.087  1.00  0.00    -0.022 C 
BRANCH  23  24
HETATM   24  C3  UNL     1      19.601   2.386  49.119  1.00  0.00     0.091 C 
BRANCH  24  25
HETATM   25  C2  UNL     1      18.346   1.838  49.660  1.00  0.00     0.059 A 
HETATM   26  C1  UNL     1      18.416   0.599  50.180  1.00  0.00     0.245 A 
HETATM   27  F1  UNL     1      17.190   1.358  50.146  1.00  0.00    -0.371 F 
ENDBRANCH  24  25
ENDBRANCH  23  24
ENDBRANCH  21  22
ENDBRANCH  20  21
ENDBRANCH   1  20
BRANCH   1  28
HETATM   28  C8  UNL     1      22.547   4.983  48.555  1.00  0.00     0.191 C 
HETATM   29 CL1  UNL     1      23.108   6.192  47.415  1.00  0.00    -0.125 Cl
ENDBRANCH   1  28
TORSDOF 6
ENDMDL
MODEL 4
REMARK VINA RESULT:      -7.2      7.249     10.118
REMARK  6 active torsions:
REMARK  status: ('A' for Active; 'I' for Inactive)
REMARK    1  A    between atoms: C2_2  and  C3_4 
REMARK    2  A    between atoms: C3_4  and  C4_5 
REMARK    3  A    between atoms: C5_6  and  C6_7 
REMARK    4  A    between atoms: C6_7  and  O1_8 
REMARK    5  A    between atoms: O1_8  and  C7_9 
REMARK    6  A    between atoms: C7_9  and  C8_10 
ROOT
HETATM    1  C7  UNL     1      31.171   8.432  47.532  1.00  0.00     0.298 C 
HETATM    2  C9  UNL     1      30.852   9.679  46.760  1.00  0.00     0.062 C 
HETATM    3  C10 UNL     1      30.933   9.705  45.443  1.00  0.00     0.087 C 
HETATM    4  N1  UNL     1      31.349   8.436  44.957  1.00  0.00    -0.351 N 
HETATM    5  C11 UNL     1      32.395   7.737  45.648  1.00  0.00     0.472 C 
HETATM    6  N2  UNL     1      32.481   6.345  45.211  1.00  0.00    -0.139 NA
HETATM    7  N3  UNL     1      33.510   5.930  44.612  1.00  0.00    -0.193 NA
HETATM    8  C12 UNL     1      33.773   4.637  44.124  1.00  0.00     0.118 C 
HETATM    9  C13 UNL     1      34.247   4.347  45.311  1.00  0.00     0.102 C 
HETATM   10  C14 UNL     1      34.831   3.205  45.972  1.00  0.00    -0.013 C 
HETATM   11  C15 UNL     1      35.057   3.698  47.210  1.00  0.00     0.070 C 
HETATM   12  C16 UNL     1      35.006   4.802  48.207  1.00  0.00     0.240 C 
HETATM   13  O2  UNL     1      35.173   5.372  49.346  1.00  0.00    -0.269 OA
HETATM   14  N4  UNL     1      34.545   6.141  48.133  1.00  0.00    -0.356 N 
HETATM   15  C17 UNL     1      34.241   7.466  48.573  1.00  0.00     0.153 C 
HETATM   16  C18 UNL     1      33.629   8.385  47.538  1.00  0.00     0.302 C 
HETATM   17  N5  UNL     1      32.385   7.892  47.076  1.00  0.00     0.175 N 
HETATM   18  H13 UNL     1      30.903   8.007  44.089  1.00  0.00     0.162 HD
HETATM   19  H19 UNL     1      34.288   6.118  47.143  1.00  0.00     0.162 HD
ENDROOT
BRANCH   1  20
HETATM   20  O1  UNL     1      30.195   7.481  47.087  1.00  0.00    -0.344 OA
BRANCH  20  21
HETATM   21  C6  UNL     1      29.269   7.161  48.033  1.00  0.00     0.198 C 
BRANCH  21  22
HETATM   22  C5  UNL     1      29.107   5.663  48.174  1.00  0.00    -0.004 C 
HETATM   23  C4  UNL     1      27.986   5.054  48.532  1.00  0.00    -0.022 C 
BRANCH  23  24
HETATM   24  C3  UNL     1      26.605   5.432  48.900  1.00  0.00     0.091 C 
BRANCH  24  25
HETATM   25  C2  UNL     1      25.786   4.320  49.414  1.00  0.00     0.059 A 
HETATM   26  C1  UNL     1      26.431   3.158  49.626  1.00  0.00     0.245 A 
HETATM   27  F1  UNL     1      25.021   3.321  49.881  1.00  0.00    -0.371 F 
ENDBRANCH  24  25
ENDBRANCH  23  24
ENDBRANCH  21  22
ENDBRANCH  20  21
ENDBRANCH   1  20
BRANCH   1  28
HETATM   28  C8  UNL     1      31.000   8.669  49.000  1.00  0.00     0.191 C 
HETATM   29 CL1  UNL     1      30.639  10.319  49.476  1.00  0.00    -0.125 Cl
ENDBRANCH   1  28
TORSDOF 6
ENDMDL
MODEL 5
REMARK VINA RESULT:      -7.0      7.130     10.261
REMARK  6 active torsions:
REMARK  status: ('A' for Active; 'I' for Inactive)
REMARK    1  A    between atoms: C2_2  and  C3_4 
REMARK    2  A    between atoms: C3_4  and  C4_5 
REMARK    3  A    between atoms: C5_6  and  C6_7 
REMARK    4  A    between atoms: C6_7  and  O1_8 
REMARK    5  A    between atoms: O1_8  and  C7_9 
REMARK    6  A    between atoms: C7_9  and  C8_10 
ROOT
HETATM    1  C7  UNL     1      32.895   7.267  47.611  1.00  0.00     0.298 C 
HETATM    2  C9  UNL     1      33.980   6.423  48.213  1.00  0.00     0.062 C 
HETATM    3  C10 UNL     1      33.739   5.190  48.617  1.00  0.00     0.087 C 
HETATM    4  N1  UNL     1      32.375   4.863  48.393  1.00  0.00    -0.351 N 
HETATM    5  C11 UNL     1      31.368   5.842  48.691  1.00  0.00     0.472 C 
HETATM    6  N2  UNL     1      30.076   5.464  48.122  1.00  0.00    -0.139 NA
HETATM    7  N3  UNL     1      29.101   5.204  48.877  1.00  0.00    -0.193 NA
HETATM    8  C12 UNL     1      27.794   4.830  48.517  1.00  0.00     0.118 C 
HETATM    9  C13 UNL     1      27.507   6.107  48.451  1.00  0.00     0.102 C 
HETATM   10  C14 UNL     1      26.357   6.924  48.146  1.00  0.00    -0.013 C 
HETATM   11  C15 UNL     1      26.866   8.168  48.287  1.00  0.00     0.070 C 
HETATM   12  C16 UNL     1      27.992   9.093  48.592  1.00  0.00     0.240 C 
HETATM   13  O2  UNL     1      28.580  10.224  48.751  1.00  0.00    -0.269 OA
HETATM   14  N4  UNL     1      29.344   8.872  48.956  1.00  0.00    -0.356 N 
HETATM   15  C17 UNL     1      30.691   9.187  49.313  1.00  0.00     0.153 C 
HETATM   16  C18 UNL     1      31.604   8.008  49.568  1.00  0.00     0.302 C 
HETATM   17  N5  UNL     1      31.745   7.201  48.414  1.00  0.00     0.175 N 
HETATM   18  H13 UNL     1      32.093   3.906  48.017  1.00  0.00     0.162 HD
HETATM   19  H19 UNL     1      29.289   7.850  48.981  1.00  0.00     0.162 HD
ENDROOT
BRANCH   1  20
HETATM   20  O1  UNL     1      32.515   6.560  46.423  1.00  0.00    -0.344 OA
BRANCH  20  21
HETATM   21  C6  UNL     1      32.666   7.286  45.280  1.00  0.00     0.198 C 
BRANCH  21  22
HETATM   22  C5  UNL     1      32.477   6.432  44.045  1.00  0.00    -0.004 C 
HETATM   23  C4  UNL     1      33.266   5.429  43.692  1.00  0.00    -0.022 C 
BRANCH  23  24
HETATM   24  C3  UNL     1      34.480   4.758  44.205  1.00  0.00     0.091 C 
BRANCH  24  25
HETATM   25  C2  UNL     1      34.227   3.772  45.270  1.00  0.00     0.059 A 
HETATM   26  C1  UNL     1      35.313   3.294  45.906  1.00  0.00     0.245 A 
HETATM   27  F1  UNL     1      33.973   2.874  46.236  1.00  0.00    -0.371 F 
ENDBRANCH  24  25
ENDBRANCH  23  24
ENDBRANCH  21  22
ENDBRANCH  20  21
ENDBRANCH   1  20
BRANCH   1  28
HETATM   28  C8  UNL     1      33.430   8.615  47.237  1.00  0.00     0.191 C 
HETATM   29 CL1  UNL     1      35.038   8.994  47.824  1.00  0.00    -0.125 Cl
ENDBRANCH   1  28
TORSDOF 6
ENDMDL
MODEL 6
REMARK VINA RESULT:      -7.0      3.028      4.119
REMARK  6 active torsions:
REMARK  status: ('A' for Active; 'I' for Inactive)
REMARK    1  A    between atoms: C2_2  and  C3_4 
REMARK    2  A    between atoms: C3_4  and  C4_5 
REMARK    3  A    between atoms: C5_6  and  C6_7 
REMARK    4  A    between atoms: C6_7  and  O1_8 
REMARK    5  A    between atoms: O1_8  and  C7_9 
REMARK    6  A    between atoms: C7_9  and  C8_10 
ROOT
HETATM    1  C7  UNL     1      21.652   4.843  50.165  1.00  0.00     0.298 C 
HETATM    2  C9  UNL     1      21.507   6.301  50.492  1.00  0.00     0.062 C 
HETATM    3  C10 UNL     1      22.360   6.907  51.297  1.00  0.00     0.087 C 
HETATM    4  N1  UNL     1      23.343   5.985  51.747  1.00  0.00    -0.351 N 
HETATM    5  C11 UNL     1      22.931   4.663  52.130  1.00  0.00     0.472 C 
HETATM    6  N2  UNL     1      24.080   3.770  52.266  1.00  0.00    -0.139 NA
HETATM    7  N3  UNL     1      24.375   3.282  53.390  1.00  0.00    -0.193 NA
HETATM    8  C12 UNL     1      25.430   2.410  53.713  1.00  0.00     0.118 C 
HETATM    9  C13 UNL     1      24.630   1.419  53.403  1.00  0.00     0.102 C 
HETATM   10  C14 UNL     1      24.688  -0.023  53.367  1.00  0.00    -0.013 C 
HETATM   11  C15 UNL     1      23.448  -0.330  52.926  1.00  0.00     0.070 C 
HETATM   12  C16 UNL     1      22.088   0.065  52.470  1.00  0.00     0.240 C 
HETATM   13  O2  UNL     1      20.889  -0.111  52.044  1.00  0.00    -0.269 OA
HETATM   14  N4  UNL     1      21.460   1.324  52.303  1.00  0.00    -0.356 N 
HETATM   15  C17 UNL     1      20.432   2.263  51.979  1.00  0.00     0.153 C 
HETATM   16  C18 UNL     1      20.780   3.723  52.171  1.00  0.00     0.302 C 
HETATM   17  N5  UNL     1      21.861   4.112  51.345  1.00  0.00     0.175 N 
HETATM   18  H13 UNL     1      24.370   6.263  51.810  1.00  0.00     0.162 HD
HETATM   19  H19 UNL     1      22.244   1.888  52.642  1.00  0.00     0.162 HD
ENDROOT
BRANCH   1  20
HETATM   20  O1  UNL     1      22.915   4.757  49.490  1.00  0.00    -0.344 OA
BRANCH  20  21
HETATM   21  C6  UNL     1      22.841   5.002  48.152  1.00  0.00     0.198 C 
BRANCH  21  22
HETATM   22  C5  UNL     1      23.613   6.245  47.767  1.00  0.00    -0.004 C 
HETATM   23  C4  UNL     1      24.757   6.624  48.313  1.00  0.00    -0.022 C 
BRANCH  23  24
HETATM   24  C3  UNL     1      25.684   6.141  49.360  1.00  0.00     0.091 C 
BRANCH  24  25
HETATM   25  C2  UNL     1      26.696   5.183  48.882  1.00  0.00     0.059 A 
HETATM   26  C1  UNL     1      26.627   3.942  49.396  1.00  0.00     0.245 A 
HETATM   27  F1  UNL     1      27.629   4.328  48.432  1.00  0.00    -0.371 F 
ENDBRANCH  24  25
ENDBRANCH  23  24
ENDBRANCH  21  22
ENDBRANCH  20  21
ENDBRANCH   1  20
BRANCH   1  28
HETATM   28  C8  UNL     1      20.563   4.406  49.236  1.00  0.00     0.191 C 
HETATM   29 CL1  UNL     1      19.064   5.313  49.328  1.00  0.00    -0.125 Cl
ENDBRANCH   1  28
TORSDOF 6
ENDMDL
MODEL 7
REMARK VINA RESULT:      -7.0      7.199     10.033
REMARK  6 active torsions:
REMARK  status: ('A' for Active; 'I' for Inactive)
REMARK    1  A    between atoms: C2_2  and  C3_4 
REMARK    2  A    between atoms: C3_4  and  C4_5 
REMARK    3  A    between atoms: C5_6  and  C6_7 
REMARK    4  A    between atoms: C6_7  and  O1_8 
REMARK    5  A    between atoms: O1_8  and  C7_9 
REMARK    6  A    between atoms: C7_9  and  C8_10 
ROOT
HETATM    1  C7  UNL     1      33.141   6.593  47.292  1.00  0.00     0.298 C 
HETATM    2  C9  UNL     1      34.079   5.454  47.566  1.00  0.00     0.062 C 
HETATM    3  C10 UNL     1      33.626   4.229  47.760  1.00  0.00     0.087 C 
HETATM    4  N1  UNL     1      32.208   4.216  47.670  1.00  0.00    -0.351 N 
HETATM    5  C11 UNL     1      31.463   5.278  48.285  1.00  0.00     0.472 C 
HETATM    6  N2  UNL     1      30.071   5.276  47.840  1.00  0.00    -0.139 NA
HETATM    7  N3  UNL     1      29.142   5.046  48.661  1.00  0.00    -0.193 NA
HETATM    8  C12 UNL     1      27.757   5.006  48.423  1.00  0.00     0.118 C 
HETATM    9  C13 UNL     1      27.740   6.298  48.639  1.00  0.00     0.102 C 
HETATM   10  C14 UNL     1      26.762   7.360  48.657  1.00  0.00    -0.013 C 
HETATM   11  C15 UNL     1      27.532   8.429  48.958  1.00  0.00     0.070 C 
HETATM   12  C16 UNL     1      28.851   9.043  49.273  1.00  0.00     0.240 C 
HETATM   13  O2  UNL     1      29.675   9.985  49.559  1.00  0.00    -0.269 OA
HETATM   14  N4  UNL     1      30.155   8.503  49.396  1.00  0.00    -0.356 N 
HETATM   15  C17 UNL     1      31.568   8.480  49.616  1.00  0.00     0.153 C 
HETATM   16  C18 UNL     1      32.234   7.125  49.513  1.00  0.00     0.302 C 
HETATM   17  N5  UNL     1      32.087   6.571  48.219  1.00  0.00     0.175 N 
HETATM   18  H13 UNL     1      31.697   3.430  47.163  1.00  0.00     0.162 HD
HETATM   19  H19 UNL     1      29.891   7.528  49.236  1.00  0.00     0.162 HD
ENDROOT
BRANCH   1  20
HETATM   20  O1  UNL     1      32.506   6.238  46.056  1.00  0.00    -0.344 OA
BRANCH  20  21
HETATM   21  C6  UNL     1      32.250   7.301  45.245  1.00  0.00     0.198 C 
BRANCH  21  22
HETATM   22  C5  UNL     1      30.824   7.787  45.391  1.00  0.00    -0.004 C 
HETATM   23  C4  UNL     1      30.461   9.058  45.451  1.00  0.00    -0.022 C 
BRANCH  23  24
HETATM   24  C3  UNL     1      31.113  10.386  45.415  1.00  0.00     0.091 C 
BRANCH  24  25
HETATM   25  C2  UNL     1      31.655  10.833  46.709  1.00  0.00     0.059 A 
HETATM   26  C1  UNL     1      32.865  11.419  46.675  1.00  0.00     0.245 A 
HETATM   27  F1  UNL     1      32.129  11.232  47.901  1.00  0.00    -0.371 F 
ENDBRANCH  24  25
ENDBRANCH  23  24
ENDBRANCH  21  22
ENDBRANCH  20  21
ENDBRANCH   1  20
BRANCH   1  28
HETATM   28  C8  UNL     1      33.907   7.866  47.108  1.00  0.00     0.191 C 
HETATM   29 CL1  UNL     1      35.390   8.012  48.033  1.00  0.00    -0.125 Cl
ENDBRANCH   1  28
TORSDOF 6
ENDMDL
MODEL 8
REMARK VINA RESULT:      -6.9      3.803      6.584
REMARK  6 active torsions:
REMARK  status: ('A' for Active; 'I' for Inactive)
REMARK    1  A    between atoms: C2_2  and  C3_4 
REMARK    2  A    between atoms: C3_4  and  C4_5 
REMARK    3  A    between atoms: C5_6  and  C6_7 
REMARK    4  A    between atoms: C6_7  and  O1_8 
REMARK    5  A    between atoms: O1_8  and  C7_9 
REMARK    6  A    between atoms: C7_9  and  C8_10 
ROOT
HETATM    1  C7  UNL     1      24.956   4.749  50.144  1.00  0.00     0.298 C 
HETATM    2  C9  UNL     1      25.099   6.223  50.386  1.00  0.00     0.062 C 
HETATM    3  C10 UNL     1      24.362   6.839  51.292  1.00  0.00     0.087 C 
HETATM    4  N1  UNL     1      23.490   5.912  51.923  1.00  0.00    -0.351 N 
HETATM    5  C11 UNL     1      22.822   4.929  51.117  1.00  0.00     0.472 C 
HETATM    6  N2  UNL     1      22.223   3.884  51.945  1.00  0.00    -0.139 NA
HETATM    7  N3  UNL     1      20.971   3.739  51.977  1.00  0.00    -0.193 NA
HETATM    8  C12 UNL     1      20.220   2.798  52.703  1.00  0.00     0.118 C 
HETATM    9  C13 UNL     1      20.371   1.980  51.690  1.00  0.00     0.102 C 
HETATM   10  C14 UNL     1      19.974   0.637  51.340  1.00  0.00    -0.013 C 
HETATM   11  C15 UNL     1      20.528   0.506  50.114  1.00  0.00     0.070 C 
HETATM   12  C16 UNL     1      21.322   1.039  48.974  1.00  0.00     0.240 C 
HETATM   13  O2  UNL     1      21.891   1.023  47.822  1.00  0.00    -0.269 OA
HETATM   14  N4  UNL     1      21.960   2.284  48.749  1.00  0.00    -0.356 N 
HETATM   15  C17 UNL     1      22.727   3.279  48.067  1.00  0.00     0.153 C 
HETATM   16  C18 UNL     1      22.906   4.594  48.795  1.00  0.00     0.302 C 
HETATM   17  N5  UNL     1      23.596   4.420  50.018  1.00  0.00     0.175 N 
HETATM   18  H13 UNL     1      23.323   5.943  52.975  1.00  0.00     0.162 HD
HETATM   19  H19 UNL     1      21.661   2.725  49.623  1.00  0.00     0.162 HD
ENDROOT
BRANCH   1  20
HETATM   20  O1  UNL     1      25.331   4.148  51.391  1.00  0.00    -0.344 OA
BRANCH  20  21
HETATM   21  C6  UNL     1      25.851   2.896  51.262  1.00  0.00     0.198 C 
BRANCH  21  22
HETATM   22  C5  UNL     1      25.319   1.956  52.322  1.00  0.00    -0.004 C 
HETATM   23  C4  UNL     1      25.969   0.904  52.795  1.00  0.00    -0.022 C 
BRANCH  23  24
HETATM   24  C3  UNL     1      27.272   0.237  52.584  1.00  0.00     0.091 C 
BRANCH  24  25
HETATM   25  C2  UNL     1      28.023  -0.037  53.822  1.00  0.00     0.059 A 
HETATM   26  C1  UNL     1      29.218  -0.635  53.670  1.00  0.00     0.245 A 
HETATM   27  F1  UNL     1      28.689  -0.277  54.963  1.00  0.00    -0.371 F 
ENDBRANCH  24  25
ENDBRANCH  23  24
ENDBRANCH  21  22
ENDBRANCH  20  21
ENDBRANCH   1  20
BRANCH   1  28
HETATM   28  C8  UNL     1      25.902   4.303  49.073  1.00  0.00     0.191 C 
HETATM   29 CL1  UNL     1      27.193   5.420  48.673  1.00  0.00    -0.125 Cl
ENDBRANCH   1  28
TORSDOF 6
ENDMDL
MODEL 9
REMARK VINA RESULT:      -6.8      3.303      5.529
REMARK  6 active torsions:
REMARK  status: ('A' for Active; 'I' for Inactive)
REMARK    1  A    between atoms: C2_2  and  C3_4 
REMARK    2  A    between atoms: C3_4  and  C4_5 
REMARK    3  A    between atoms: C5_6  and  C6_7 
REMARK    4  A    between atoms: C6_7  and  O1_8 
REMARK    5  A    between atoms: O1_8  and  C7_9 
REMARK    6  A    between atoms: C7_9  and  C8_10 
ROOT
HETATM    1  C7  UNL     1      24.037   2.773  52.225  1.00  0.00     0.298 C 
HETATM    2  C9  UNL     1      24.983   3.025  51.088  1.00  0.00     0.062 C 
HETATM    3  C10 UNL     1      24.569   2.983  49.835  1.00  0.00     0.087 C 
HETATM    4  N1  UNL     1      23.182   2.676  49.791  1.00  0.00    -0.351 N 
HETATM    5  C11 UNL     1      22.667   1.662  50.669  1.00  0.00     0.472 C 
HETATM    6  N2  UNL     1      21.207   1.693  50.714  1.00  0.00    -0.139 NA
HETATM    7  N3  UNL     1      20.538   0.716  50.280  1.00  0.00    -0.193 NA
HETATM    8  C12 UNL     1      19.141   0.563  50.243  1.00  0.00     0.118 C 
HETATM    9  C13 UNL     1      19.219   0.075  51.457  1.00  0.00     0.102 C 
HETATM   10  C14 UNL     1      18.315  -0.445  52.455  1.00  0.00    -0.013 C 
HETATM   11  C15 UNL     1      19.167  -0.745  53.459  1.00  0.00     0.070 C 
HETATM   12  C16 UNL     1      20.538  -0.806  54.037  1.00  0.00     0.240 C 
HETATM   13  O2  UNL     1      21.434  -1.049  54.924  1.00  0.00    -0.269 OA
HETATM   14  N4  UNL     1      21.810  -0.441  53.529  1.00  0.00    -0.356 N 
HETATM   15  C17 UNL     1      23.226  -0.249  53.509  1.00  0.00     0.153 C 
HETATM   16  C18 UNL     1      23.800   0.326  52.233  1.00  0.00     0.302 C 
HETATM   17  N5  UNL     1      23.283   1.617  51.966  1.00  0.00     0.175 N 
HETATM   18  H13 UNL     1      22.528   3.179  49.116  1.00  0.00     0.162 HD
HETATM   19  H19 UNL     1      21.484  -0.153  52.603  1.00  0.00     0.162 HD
ENDROOT
BRANCH   1  20
HETATM   20  O1  UNL     1      23.073   3.830  52.123  1.00  0.00    -0.344 OA
BRANCH  20  21
HETATM   21  C6  UNL     1      23.583   5.066  52.386  1.00  0.00     0.198 C 
BRANCH  21  22
HETATM   22  C5  UNL     1      23.086   6.098  51.399  1.00  0.00    -0.004 C 
HETATM   23  C4  UNL     1      23.864   6.880  50.666  1.00  0.00    -0.022 C 
BRANCH  23  24
HETATM   24  C3  UNL     1      25.312   7.108  50.469  1.00  0.00     0.091 C 
BRANCH  24  25
HETATM   25  C2  UNL     1      25.924   6.263  49.428  1.00  0.00     0.059 A 
HETATM   26  C1  UNL     1      26.955   6.806  48.755  1.00  0.00     0.245 A 
HETATM   27  F1  UNL     1      26.467   5.476  48.485  1.00  0.00    -0.371 F 
ENDBRANCH  24  25
ENDBRANCH  23  24
ENDBRANCH  21  22
ENDBRANCH  20  21
ENDBRANCH   1  20
BRANCH   1  28
HETATM   28  C8  UNL     1      24.755   2.881  53.534  1.00  0.00     0.191 C 
HETATM   29 CL1  UNL     1      26.397   2.264  53.564  1.00  0.00    -0.125 Cl
ENDBRANCH   1  28
TORSDOF 6
ENDMDL
