MODEL 1
REMARK VINA RESULT:      -8.1      0.000      0.000
REMARK  5 active torsions:
REMARK  status: ('A' for Active; 'I' for Inactive)
REMARK    1  A    between atoms: O1_1  and  O2_2 
REMARK    2  A    between atoms: O2_2  and  C1_3 
REMARK    3  A    between atoms: N1_10  and  C7_11 
REMARK    4  A    between atoms: C7_11  and  N2_12 
REMARK    5  A    between atoms: N2_12  and  C8_13 
ROOT
HETATM    1  C1  UNL     1      22.663  -1.286  54.098  1.00  0.00     0.175 C 
HETATM    2  C2  UNL     1      21.455  -0.273  54.056  1.00  0.00     0.104 A 
HETATM    3  C3  UNL     1      20.576   0.773  53.716  1.00  0.00     0.062 A 
HETATM    4 BR1  UNL     1      22.160  -0.027  53.232  1.00  0.00    -0.142 Br
HETATM    5  C4  UNL     1      21.156   1.663  52.647  1.00  0.00    -0.006 C 
HETATM    6  C5  UNL     1      21.849   2.332  51.690  1.00  0.00    -0.010 C 
HETATM    7  C6  UNL     1      23.142   1.732  51.371  1.00  0.00     0.145 C 
HETATM    8  N1  UNL     1      24.241   2.478  51.783  1.00  0.00    -0.394 N 
HETATM    9  C14 UNL     1      24.858   2.222  53.035  1.00  0.00     0.119 C 
HETATM   10  C15 UNL     1      25.586   0.979  53.278  1.00  0.00     0.020 C 
HETATM   11  C16 UNL     1      24.867  -0.329  53.319  1.00  0.00     0.004 C 
HETATM   12  C17 UNL     1      23.945  -0.589  54.429  1.00  0.00     0.036 C 
ENDROOT
BRANCH   8  13
HETATM   13  C7  UNL     1      24.558   3.701  51.168  1.00  0.00     0.241 C 
BRANCH  13  14
HETATM   14  N2  UNL     1      24.696   3.593  49.739  1.00  0.00    -0.374 N 
HETATM   15  H10 UNL     1      24.253   3.034  48.983  1.00  0.00     0.161 HD
BRANCH  14  16
HETATM   16  C8  UNL     1      25.700   4.505  49.246  1.00  0.00     0.029 A 
HETATM   17  C9  UNL     1      25.400   5.823  48.882  1.00  0.00     0.029 A 
HETATM   18  C10 UNL     1      26.295   6.752  48.405  1.00  0.00     0.002 A 
HETATM   19  C11 UNL     1      27.614   6.339  48.273  1.00  0.00     0.000 A 
HETATM   20  C12 UNL     1      28.003   5.063  48.605  1.00  0.00     0.002 A 
HETATM   21  C13 UNL     1      27.038   4.207  49.074  1.00  0.00     0.029 A 
ENDBRANCH  14  16
ENDBRANCH  13  14
ENDBRANCH   8  13
BRANCH   1  22
HETATM   22  O2  UNL     1      22.234  -1.973  55.317  1.00  0.00    -0.237 OA
BRANCH  22  23
HETATM   23  O1  UNL     1      23.309  -1.885  56.083  1.00  0.00    -0.250 OA
HETATM   24  H1  UNL     1      24.038  -2.482  55.815  1.00  0.00     0.253 HD
ENDBRANCH  22  23
ENDBRANCH   1  22
TORSDOF 5
ENDMDL
MODEL 2
REMARK VINA RESULT:      -7.9      1.042      2.755
REMARK  5 active torsions:
REMARK  status: ('A' for Active; 'I' for Inactive)
REMARK    1  A    between atoms: O1_1  and  O2_2 
REMARK    2  A    between atoms: O2_2  and  C1_3 
REMARK    3  A    between atoms: N1_10  and  C7_11 
REMARK    4  A    between atoms: C7_11  and  N2_12 
REMARK    5  A    between atoms: N2_12  and  C8_13 
ROOT
HETATM    1  C1  UNL     1      22.516  -0.371  54.211  1.00  0.00     0.175 C 
HETATM    2  C2  UNL     1      24.002  -0.719  53.817  1.00  0.00     0.104 A 
HETATM    3  C3  UNL     1      25.316  -0.673  53.312  1.00  0.00     0.062 A 
HETATM    4 BR1  UNL     1      23.766   0.306  53.457  1.00  0.00    -0.142 Br
HETATM    5  C4  UNL     1      25.548   0.559  52.476  1.00  0.00    -0.006 C 
HETATM    6  C5  UNL     1      25.553   1.720  51.771  1.00  0.00    -0.010 C 
HETATM    7  C6  UNL     1      24.289   2.449  51.827  1.00  0.00     0.145 C 
HETATM    8  N1  UNL     1      23.580   2.469  50.630  1.00  0.00    -0.394 N 
HETATM    9  C14 UNL     1      22.574   1.503  50.371  1.00  0.00     0.119 C 
HETATM   10  C15 UNL     1      21.327   1.488  51.132  1.00  0.00     0.020 C 
HETATM   11  C16 UNL     1      21.328   1.157  52.588  1.00  0.00     0.004 C 
HETATM   12  C17 UNL     1      21.655  -0.212  52.997  1.00  0.00     0.036 C 
ENDROOT
BRANCH   8  13
HETATM   13  C7  UNL     1      24.050   3.196  49.524  1.00  0.00     0.241 C 
BRANCH  13  14
HETATM   14  N2  UNL     1      24.120   4.613  49.769  1.00  0.00    -0.374 N 
HETATM   15  H10 UNL     1      23.521   5.324  50.232  1.00  0.00     0.161 HD
BRANCH  14  16
HETATM   16  C8  UNL     1      25.342   5.170  49.239  1.00  0.00     0.029 A 
HETATM   17  C9  UNL     1      26.525   4.427  49.148  1.00  0.00     0.029 A 
HETATM   18  C10 UNL     1      27.727   4.882  48.658  1.00  0.00     0.002 A 
HETATM   19  C11 UNL     1      27.765   6.198  48.216  1.00  0.00     0.000 A 
HETATM   20  C12 UNL     1      26.653   7.004  48.268  1.00  0.00     0.002 A 
HETATM   21  C13 UNL     1      25.497   6.461  48.772  1.00  0.00     0.029 A 
ENDBRANCH  14  16
ENDBRANCH  13  14
ENDBRANCH   8  13
BRANCH   1  22
HETATM   22  O2  UNL     1      22.204  -1.685  54.775  1.00  0.00    -0.237 OA
BRANCH  22  23
HETATM   23  O1  UNL     1      20.894  -1.613  54.949  1.00  0.00    -0.250 OA
HETATM   24  H1  UNL     1      20.588  -0.759  55.318  1.00  0.00     0.253 HD
ENDBRANCH  22  23
ENDBRANCH   1  22
TORSDOF 5
ENDMDL
MODEL 3
REMARK VINA RESULT:      -7.9      3.714      6.994
REMARK  5 active torsions:
REMARK  status: ('A' for Active; 'I' for Inactive)
REMARK    1  A    between atoms: O1_1  and  O2_2 
REMARK    2  A    between atoms: O2_2  and  C1_3 
REMARK    3  A    between atoms: N1_10  and  C7_11 
REMARK    4  A    between atoms: C7_11  and  N2_12 
REMARK    5  A    between atoms: N2_12  and  C8_13 
ROOT
HETATM    1  C1  UNL     1      27.617   2.187  53.619  1.00  0.00     0.175 C 
HETATM    2  C2  UNL     1      27.131   2.396  52.133  1.00  0.00     0.104 A 
HETATM    3  C3  UNL     1      26.351   2.504  50.966  1.00  0.00     0.062 A 
HETATM    4 BR1  UNL     1      26.251   2.155  52.769  1.00  0.00    -0.142 Br
HETATM    5  C4  UNL     1      24.928   2.069  51.205  1.00  0.00    -0.006 C 
HETATM    6  C5  UNL     1      23.709   1.643  51.624  1.00  0.00    -0.010 C 
HETATM    7  C6  UNL     1      23.662   1.292  53.041  1.00  0.00     0.145 C 
HETATM    8  N1  UNL     1      23.515  -0.069  53.294  1.00  0.00    -0.394 N 
HETATM    9  C14 UNL     1      24.652  -0.888  53.518  1.00  0.00     0.119 C 
HETATM   10  C15 UNL     1      25.470  -0.733  54.719  1.00  0.00     0.020 C 
HETATM   11  C16 UNL     1      26.270   0.508  54.940  1.00  0.00     0.004 C 
HETATM   12  C17 UNL     1      27.413   0.772  54.063  1.00  0.00     0.036 C 
ENDROOT
BRANCH   8  13
HETATM   13  C7  UNL     1      22.313  -0.733  53.000  1.00  0.00     0.241 C 
BRANCH  13  14
HETATM   14  N2  UNL     1      21.197  -0.244  53.767  1.00  0.00    -0.374 N 
HETATM   15  H10 UNL     1      21.051   0.119  54.730  1.00  0.00     0.161 HD
BRANCH  14  16
HETATM   16  C8  UNL     1      19.984  -0.261  52.985  1.00  0.00     0.029 A 
HETATM   17  C9  UNL     1      19.851   0.462  51.795  1.00  0.00     0.029 A 
HETATM   18  C10 UNL     1      18.734   0.500  50.994  1.00  0.00     0.002 A 
HETATM   19  C11 UNL     1      17.641  -0.249  51.409  1.00  0.00     0.000 A 
HETATM   20  C12 UNL     1      17.678  -0.991  52.565  1.00  0.00     0.002 A 
HETATM   21  C13 UNL     1      18.838  -0.967  53.299  1.00  0.00     0.029 A 
ENDBRANCH  14  16
ENDBRANCH  13  14
ENDBRANCH   8  13
BRANCH   1  22
HETATM   22  O2  UNL     1      29.044   2.332  53.326  1.00  0.00    -0.237 OA
BRANCH  22  23
HETATM   23  O1  UNL     1      29.582   2.322  54.535  1.00  0.00    -0.250 OA
HETATM   24  H1  UNL     1      30.092   3.131  54.750  1.00  0.00     0.253 HD
ENDBRANCH  22  23
ENDBRANCH   1  22
TORSDOF 5
ENDMDL
MODEL 4
REMARK VINA RESULT:      -7.6      1.960      3.183
REMARK  5 active torsions:
REMARK  status: ('A' for Active; 'I' for Inactive)
REMARK    1  A    between atoms: O1_1  and  O2_2 
REMARK    2  A    between atoms: O2_2  and  C1_3 
REMARK    3  A    between atoms: N1_10  and  C7_11 
REMARK    4  A    between atoms: C7_11  and  N2_12 
REMARK    5  A    between atoms: N2_12  and  C8_13 
ROOT
HETATM    1  C1  UNL     1      19.344  -0.520  53.371  1.00  0.00     0.175 C 
HETATM    2  C2  UNL     1      20.649  -1.274  53.833  1.00  0.00     0.104 A 
HETATM    3  C3  UNL     1      21.980  -1.605  54.155  1.00  0.00     0.062 A 
HETATM    4 BR1  UNL     1      20.920  -0.239  53.528  1.00  0.00    -0.142 Br
HETATM    5  C4  UNL     1      22.939  -0.519  53.743  1.00  0.00    -0.006 C 
HETATM    6  C5  UNL     1      23.629   0.565  53.303  1.00  0.00    -0.010 C 
HETATM    7  C6  UNL     1      22.783   1.610  52.733  1.00  0.00     0.145 C 
HETATM    8  N1  UNL     1      22.910   1.769  51.356  1.00  0.00    -0.394 N 
HETATM    9  C14 UNL     1      22.029   1.099  50.469  1.00  0.00     0.119 C 
HETATM   10  C15 UNL     1      20.613   1.454  50.399  1.00  0.00     0.020 C 
HETATM   11  C16 UNL     1      19.706   1.199  51.557  1.00  0.00     0.004 C 
HETATM   12  C17 UNL     1      19.395  -0.188  51.913  1.00  0.00     0.036 C 
ENDROOT
BRANCH   8  13
HETATM   13  C7  UNL     1      24.086   2.292  50.795  1.00  0.00     0.241 C 
BRANCH  13  14
HETATM   14  N2  UNL     1      24.421   3.596  51.304  1.00  0.00    -0.374 N 
HETATM   15  H10 UNL     1      24.197   4.149  52.155  1.00  0.00     0.161 HD
BRANCH  14  16
HETATM   16  C8  UNL     1      25.299   4.297  50.396  1.00  0.00     0.029 A 
HETATM   17  C9  UNL     1      25.078   5.626  50.019  1.00  0.00     0.029 A 
HETATM   18  C10 UNL     1      25.863   6.362  49.162  1.00  0.00     0.002 A 
HETATM   19  C11 UNL     1      26.972   5.723  48.624  1.00  0.00     0.000 A 
HETATM   20  C12 UNL     1      27.269   4.418  48.937  1.00  0.00     0.002 A 
HETATM   21  C13 UNL     1      26.427   3.764  49.802  1.00  0.00     0.029 A 
ENDBRANCH  14  16
ENDBRANCH  13  14
ENDBRANCH   8  13
BRANCH   1  22
HETATM   22  O2  UNL     1      18.454  -1.676  53.505  1.00  0.00    -0.237 OA
BRANCH  22  23
HETATM   23  O1  UNL     1      17.404  -1.154  54.117  1.00  0.00    -0.250 OA
HETATM   24  H1  UNL     1      16.928  -1.783  54.698  1.00  0.00     0.253 HD
ENDBRANCH  22  23
ENDBRANCH   1  22
TORSDOF 5
ENDMDL
MODEL 5
REMARK VINA RESULT:      -7.6      1.897      2.599
REMARK  5 active torsions:
REMARK  status: ('A' for Active; 'I' for Inactive)
REMARK    1  A    between atoms: O1_1  and  O2_2 
REMARK    2  A    between atoms: O2_2  and  C1_3 
REMARK    3  A    between atoms: N1_10  and  C7_11 
REMARK    4  A    between atoms: C7_11  and  N2_12 
REMARK    5  A    between atoms: N2_12  and  C8_13 
ROOT
HETATM    1  C1  UNL     1      22.638  -1.335  54.055  1.00  0.00     0.175 C 
HETATM    2  C2  UNL     1      21.427  -0.326  54.032  1.00  0.00     0.104 A 
HETATM    3  C3  UNL     1      20.542   0.721  53.710  1.00  0.00     0.062 A 
HETATM    4 BR1  UNL     1      22.126  -0.068  53.206  1.00  0.00    -0.142 Br
HETATM    5  C4  UNL     1      21.113   1.625  52.647  1.00  0.00    -0.006 C 
HETATM    6  C5  UNL     1      21.797   2.306  51.692  1.00  0.00    -0.010 C 
HETATM    7  C6  UNL     1      23.090   1.714  51.358  1.00  0.00     0.145 C 
HETATM    8  N1  UNL     1      24.190   2.459  51.771  1.00  0.00    -0.394 N 
HETATM    9  C14 UNL     1      24.816   2.191  53.016  1.00  0.00     0.119 C 
HETATM   10  C15 UNL     1      25.549   0.947  53.241  1.00  0.00     0.020 C 
HETATM   11  C16 UNL     1      24.834  -0.363  53.272  1.00  0.00     0.004 C 
HETATM   12  C17 UNL     1      23.921  -0.638  54.385  1.00  0.00     0.036 C 
ENDROOT
BRANCH   8  13
HETATM   13  C7  UNL     1      24.498   3.689  51.168  1.00  0.00     0.241 C 
BRANCH  13  14
HETATM   14  N2  UNL     1      24.329   4.810  52.054  1.00  0.00    -0.374 N 
HETATM   15  H10 UNL     1      24.582   5.033  53.037  1.00  0.00     0.161 HD
BRANCH  14  16
HETATM   16  C8  UNL     1      23.641   5.894  51.394  1.00  0.00     0.029 A 
HETATM   17  C9  UNL     1      24.308   7.033  50.932  1.00  0.00     0.029 A 
HETATM   18  C10 UNL     1      23.728   8.105  50.295  1.00  0.00     0.002 A 
HETATM   19  C11 UNL     1      22.355   8.047  50.096  1.00  0.00     0.000 A 
HETATM   20  C12 UNL     1      21.615   6.968  50.516  1.00  0.00     0.002 A 
HETATM   21  C13 UNL     1      22.283   5.944  51.142  1.00  0.00     0.029 A 
ENDBRANCH  14  16
ENDBRANCH  13  14
ENDBRANCH   8  13
BRANCH   1  22
HETATM   22  O2  UNL     1      22.219  -2.037  55.270  1.00  0.00    -0.237 OA
BRANCH  22  23
HETATM   23  O1  UNL     1      23.203  -1.759  56.109  1.00  0.00    -0.250 OA
HETATM   24  H1  UNL     1      23.385  -0.800  56.204  1.00  0.00     0.253 HD
ENDBRANCH  22  23
ENDBRANCH   1  22
TORSDOF 5
ENDMDL
MODEL 6
REMARK VINA RESULT:      -7.5      3.836      7.490
REMARK  5 active torsions:
REMARK  status: ('A' for Active; 'I' for Inactive)
REMARK    1  A    between atoms: O1_1  and  O2_2 
REMARK    2  A    between atoms: O2_2  and  C1_3 
REMARK    3  A    between atoms: N1_10  and  C7_11 
REMARK    4  A    between atoms: C7_11  and  N2_12 
REMARK    5  A    between atoms: N2_12  and  C8_13 
ROOT
HETATM    1  C1  UNL     1      26.259   1.369  51.851  1.00  0.00     0.175 C 
HETATM    2  C2  UNL     1      26.543   0.800  53.293  1.00  0.00     0.104 A 
HETATM    3  C3  UNL     1      26.445   0.131  54.529  1.00  0.00     0.062 A 
HETATM    4 BR1  UNL     1      25.549   0.434  52.951  1.00  0.00    -0.142 Br
HETATM    5  C4  UNL     1      25.079  -0.474  54.728  1.00  0.00    -0.006 C 
HETATM    6  C5  UNL     1      23.804  -0.940  54.712  1.00  0.00    -0.010 C 
HETATM    7  C6  UNL     1      23.076  -0.622  53.487  1.00  0.00     0.145 C 
HETATM    8  N1  UNL     1      22.055   0.310  53.646  1.00  0.00    -0.394 N 
HETATM    9  C14 UNL     1      22.295   1.688  53.411  1.00  0.00     0.119 C 
HETATM   10  C15 UNL     1      22.568   2.189  52.065  1.00  0.00     0.020 C 
HETATM   11  C16 UNL     1      23.823   1.808  51.352  1.00  0.00     0.004 C 
HETATM   12  C17 UNL     1      25.101   2.316  51.858  1.00  0.00     0.036 C 
ENDROOT
BRANCH   8  13
HETATM   13  C7  UNL     1      20.889  -0.010  54.360  1.00  0.00     0.241 C 
BRANCH  13  14
HETATM   14  N2  UNL     1      20.311  -1.266  53.959  1.00  0.00    -0.374 N 
HETATM   15  H10 UNL     1      20.534  -2.272  54.096  1.00  0.00     0.161 HD
BRANCH  14  16
HETATM   16  C8  UNL     1      19.113  -1.060  53.179  1.00  0.00     0.029 A 
HETATM   17  C9  UNL     1      19.063  -0.157  52.112  1.00  0.00     0.029 A 
HETATM   18  C10 UNL     1      17.965   0.098  51.323  1.00  0.00     0.002 A 
HETATM   19  C11 UNL     1      16.806  -0.606  51.616  1.00  0.00     0.000 A 
HETATM   20  C12 UNL     1      16.760  -1.514  52.647  1.00  0.00     0.002 A 
HETATM   21  C13 UNL     1      17.906  -1.702  53.380  1.00  0.00     0.029 A 
ENDBRANCH  14  16
ENDBRANCH  13  14
ENDBRANCH   8  13
BRANCH   1  22
HETATM   22  O2  UNL     1      27.470   2.190  51.779  1.00  0.00    -0.237 OA
BRANCH  22  23
HETATM   23  O1  UNL     1      27.067   3.223  51.057  1.00  0.00    -0.250 OA
HETATM   24  H1  UNL     1      27.627   4.020  51.156  1.00  0.00     0.253 HD
ENDBRANCH  22  23
ENDBRANCH   1  22
TORSDOF 5
ENDMDL
MODEL 7
REMARK VINA RESULT:      -7.3      3.402      5.117
REMARK  5 active torsions:
REMARK  status: ('A' for Active; 'I' for Inactive)
REMARK    1  A    between atoms: O1_1  and  O2_2 
REMARK    2  A    between atoms: O2_2  and  C1_3 
REMARK    3  A    between atoms: N1_10  and  C7_11 
REMARK    4  A    between atoms: C7_11  and  N2_12 
REMARK    5  A    between atoms: N2_12  and  C8_13 
ROOT
HETATM    1  C1  UNL     1      20.225   0.170  52.292  1.00  0.00     0.175 C 
HETATM    2  C2  UNL     1      20.251   1.744  52.359  1.00  0.00     0.104 A 
HETATM    3  C3  UNL     1      20.644   3.096  52.314  1.00  0.00     0.062 A 
HETATM    4 BR1  UNL     1      21.258   1.381  52.058  1.00  0.00    -0.142 Br
HETATM    5  C4  UNL     1      22.129   3.237  52.096  1.00  0.00    -0.006 C 
HETATM    6  C5  UNL     1      23.469   3.148  51.895  1.00  0.00    -0.010 C 
HETATM    7  C6  UNL     1      23.957   1.777  51.774  1.00  0.00     0.145 C 
HETATM    8  N1  UNL     1      24.735   1.345  52.844  1.00  0.00    -0.394 N 
HETATM    9  C14 UNL     1      24.146   0.638  53.924  1.00  0.00     0.119 C 
HETATM   10  C15 UNL     1      23.612  -0.710  53.743  1.00  0.00     0.020 C 
HETATM   11  C16 UNL     1      22.413  -0.945  52.884  1.00  0.00     0.004 C 
HETATM   12  C17 UNL     1      21.116  -0.433  53.334  1.00  0.00     0.036 C 
ENDROOT
BRANCH   8  13
HETATM   13  C7  UNL     1      26.016   1.874  53.066  1.00  0.00     0.241 C 
BRANCH  13  14
HETATM   14  N2  UNL     1      26.638   1.362  54.259  1.00  0.00    -0.374 N 
HETATM   15  H10 UNL     1      26.517   1.491  55.283  1.00  0.00     0.161 HD
BRANCH  14  16
HETATM   16  C8  UNL     1      27.689   0.426  53.934  1.00  0.00     0.029 A 
HETATM   17  C9  UNL     1      29.043   0.730  54.111  1.00  0.00     0.029 A 
HETATM   18  C10 UNL     1      30.100  -0.102  53.826  1.00  0.00     0.002 A 
HETATM   19  C11 UNL     1      29.790  -1.357  53.317  1.00  0.00     0.000 A 
HETATM   20  C12 UNL     1      28.488  -1.744  53.110  1.00  0.00     0.002 A 
HETATM   21  C13 UNL     1      27.499  -0.845  53.424  1.00  0.00     0.029 A 
ENDBRANCH  14  16
ENDBRANCH  13  14
ENDBRANCH   8  13
BRANCH   1  22
HETATM   22  O2  UNL     1      18.853   0.026  52.783  1.00  0.00    -0.237 OA
BRANCH  22  23
HETATM   23  O1  UNL     1      18.231  -0.486  51.733  1.00  0.00    -0.250 OA
HETATM   24  H1  UNL     1      17.278  -0.661  51.881  1.00  0.00     0.253 HD
ENDBRANCH  22  23
ENDBRANCH   1  22
TORSDOF 5
ENDMDL
MODEL 8
REMARK VINA RESULT:      -7.3      4.350      7.101
REMARK  5 active torsions:
REMARK  status: ('A' for Active; 'I' for Inactive)
REMARK    1  A    between atoms: O1_1  and  O2_2 
REMARK    2  A    between atoms: O2_2  and  C1_3 
REMARK    3  A    between atoms: N1_10  and  C7_11 
REMARK    4  A    between atoms: C7_11  and  N2_12 
REMARK    5  A    between atoms: N2_12  and  C8_13 
ROOT
HETATM    1  C1  UNL     1      24.156   5.803  49.351  1.00  0.00     0.175 C 
HETATM    2  C2  UNL     1      25.636   5.290  49.178  1.00  0.00     0.104 A 
HETATM    3  C3  UNL     1      26.813   4.517  49.201  1.00  0.00     0.062 A 
HETATM    4 BR1  UNL     1      25.038   4.499  49.681  1.00  0.00    -0.142 Br
HETATM    5  C4  UNL     1      26.636   3.256  50.006  1.00  0.00    -0.006 C 
HETATM    6  C5  UNL     1      26.273   2.187  50.762  1.00  0.00    -0.010 C 
HETATM    7  C6  UNL     1      24.882   2.224  51.205  1.00  0.00     0.145 C 
HETATM    8  N1  UNL     1      24.717   2.436  52.570  1.00  0.00    -0.394 N 
HETATM    9  C14 UNL     1      24.517   3.745  53.078  1.00  0.00     0.119 C 
HETATM   10  C15 UNL     1      23.290   4.486  52.795  1.00  0.00     0.020 C 
HETATM   11  C16 UNL     1      22.973   4.932  51.406  1.00  0.00     0.004 C 
HETATM   12  C17 UNL     1      23.805   5.973  50.796  1.00  0.00     0.036 C 
ENDROOT
BRANCH   8  13
HETATM   13  C7  UNL     1      25.080   1.451  53.504  1.00  0.00     0.241 C 
BRANCH  13  14
HETATM   14  N2  UNL     1      26.288   1.771  54.219  1.00  0.00    -0.374 N 
HETATM   15  H10 UNL     1      26.588   2.502  54.894  1.00  0.00     0.161 HD
BRANCH  14  16
HETATM   16  C8  UNL     1      27.334   0.822  53.920  1.00  0.00     0.029 A 
HETATM   17  C9  UNL     1      28.687   1.111  54.126  1.00  0.00     0.029 A 
HETATM   18  C10 UNL     1      29.741   0.266  53.867  1.00  0.00     0.002 A 
HETATM   19  C11 UNL     1      29.428  -0.986  53.354  1.00  0.00     0.000 A 
HETATM   20  C12 UNL     1      28.126  -1.358  53.117  1.00  0.00     0.002 A 
HETATM   21  C13 UNL     1      27.141  -0.447  53.408  1.00  0.00     0.029 A 
ENDBRANCH  14  16
ENDBRANCH  13  14
ENDBRANCH   8  13
BRANCH   1  22
HETATM   22  O2  UNL     1      24.404   7.145  48.821  1.00  0.00    -0.237 OA
BRANCH  22  23
HETATM   23  O1  UNL     1      23.649   7.901  49.600  1.00  0.00    -0.250 OA
HETATM   24  H1  UNL     1      22.755   8.077  49.238  1.00  0.00     0.253 HD
ENDBRANCH  22  23
ENDBRANCH   1  22
TORSDOF 5
ENDMDL
MODEL 9
REMARK VINA RESULT:      -7.2      3.882      5.514
REMARK  5 active torsions:
REMARK  status: ('A' for Active; 'I' for Inactive)
REMARK    1  A    between atoms: O1_1  and  O2_2 
REMARK    2  A    between atoms: O2_2  and  C1_3 
REMARK    3  A    between atoms: N1_10  and  C7_11 
REMARK    4  A    between atoms: C7_11  and  N2_12 
REMARK    5  A    between atoms: N2_12  and  C8_13 
ROOT
HETATM    1  C1  UNL     1      20.418   2.845  52.686  1.00  0.00     0.175 C 
HETATM    2  C2  UNL     1      19.910   1.368  52.478  1.00  0.00     0.104 A 
HETATM    3  C3  UNL     1      19.788  -0.036  52.476  1.00  0.00     0.062 A 
HETATM    4 BR1  UNL     1      20.884   1.341  53.014  1.00  0.00    -0.142 Br
HETATM    5  C4  UNL     1      21.041  -0.703  52.982  1.00  0.00    -0.006 C 
HETATM    6  C5  UNL     1      22.245  -1.105  53.464  1.00  0.00    -0.010 C 
HETATM    7  C6  UNL     1      23.138  -0.002  53.812  1.00  0.00     0.145 C 
HETATM    8  N1  UNL     1      24.239   0.137  52.972  1.00  0.00    -0.394 N 
HETATM    9  C14 UNL     1      24.194   1.023  51.865  1.00  0.00     0.119 C 
HETATM   10  C15 UNL     1      24.134   2.470  52.057  1.00  0.00     0.020 C 
HETATM   11  C16 UNL     1      22.930   3.107  52.668  1.00  0.00     0.004 C 
HETATM   12  C17 UNL     1      21.673   3.102  51.914  1.00  0.00     0.036 C 
ENDROOT
BRANCH   8  13
HETATM   13  C7  UNL     1      25.272  -0.815  52.971  1.00  0.00     0.241 C 
BRANCH  13  14
HETATM   14  N2  UNL     1      26.033  -0.821  54.192  1.00  0.00    -0.374 N 
HETATM   15  H10 UNL     1      25.885  -1.149  55.167  1.00  0.00     0.161 HD
BRANCH  14  16
HETATM   16  C8  UNL     1      27.334  -0.225  53.994  1.00  0.00     0.029 A 
HETATM   17  C9  UNL     1      28.460  -0.983  53.659  1.00  0.00     0.029 A 
HETATM   18  C10 UNL     1      29.730  -0.494  53.455  1.00  0.00     0.002 A 
HETATM   19  C11 UNL     1      29.903   0.876  53.596  1.00  0.00     0.000 A 
HETATM   20  C12 UNL     1      28.854   1.701  53.924  1.00  0.00     0.002 A 
HETATM   21  C13 UNL     1      27.623   1.122  54.108  1.00  0.00     0.029 A 
ENDBRANCH  14  16
ENDBRANCH  13  14
ENDBRANCH   8  13
BRANCH   1  22
HETATM   22  O2  UNL     1      19.330   3.480  51.939  1.00  0.00    -0.237 OA
BRANCH  22  23
HETATM   23  O1  UNL     1      19.963   4.430  51.272  1.00  0.00    -0.250 OA
HETATM   24  H1  UNL     1      19.759   5.337  51.582  1.00  0.00     0.253 HD
ENDBRANCH  22  23
ENDBRANCH   1  22
TORSDOF 5
ENDMDL
