MODEL 1
REMARK VINA RESULT:      -9.0      0.000      0.000
REMARK  4 active torsions:
REMARK  status: ('A' for Active; 'I' for Inactive)
REMARK    1  A    between atoms: C2_2  and  N1_4 
REMARK    2  A    between atoms: C8_9  and  C9_10 
REMARK    3  A    between atoms: C9_10  and  C10_11 
REMARK    4  A    between atoms: C10_11  and  C11_12 
ROOT
HETATM    1  N1  UNL     1      19.557  -0.554  52.712  1.00  0.00    -0.335 N 
HETATM    2  C4  UNL     1      19.765   0.265  51.567  1.00  0.00     0.096 A 
HETATM    3  C5  UNL     1      20.896   0.794  51.142  1.00  0.00     0.019 A 
HETATM    4  C6  UNL     1      22.260   0.724  51.678  1.00  0.00     0.017 A 
HETATM    5  C7  UNL     1      22.611   0.062  52.768  1.00  0.00     0.016 A 
HETATM    6  C8  UNL     1      23.937  -0.047  53.349  1.00  0.00     0.090 A 
HETATM    7  C18 UNL     1      24.034  -0.828  54.535  1.00  0.00     0.265 A 
HETATM    8  O1  UNL     1      25.036  -1.084  55.230  1.00  0.00    -0.267 OA
HETATM    9  N2  UNL     1      22.672  -1.263  54.749  1.00  0.00    -0.320 N 
HETATM   10  C19 UNL     1      21.807  -0.750  53.714  1.00  0.00     0.063 A 
HETATM   11  C20 UNL     1      20.502  -1.004  53.675  1.00  0.00     0.126 A 
HETATM   12  H21 UNL     1      22.329  -1.877  55.546  1.00  0.00     0.169 HD
ENDROOT
BRANCH   6  13
HETATM   13  C9  UNL     1      24.990   0.546  52.803  1.00  0.00    -0.110 C 
BRANCH  13  14
HETATM   14  C10 UNL     1      26.232   0.818  52.421  1.00  0.00     0.064 C 
BRANCH  14  15
HETATM   15  C11 UNL     1      27.371   0.060  52.965  1.00  0.00    -0.049 C 
HETATM   16  C12 UNL     1      28.367   0.742  53.555  1.00  0.00    -0.077 C 
HETATM   17  C13 UNL     1      28.111   2.213  53.542  1.00  0.00     0.044 C 
HETATM   18  C14 UNL     1      29.525  -0.021  54.111  1.00  0.00     0.034 C 
HETATM   19  C15 UNL     1      29.783  -1.159  53.145  1.00  0.00     0.005 C 
HETATM   20  C16 UNL     1      28.591  -2.088  53.195  1.00  0.00     0.005 C 
HETATM   21  C17 UNL     1      27.313  -1.396  52.813  1.00  0.00     0.039 C 
ENDBRANCH  14  15
ENDBRANCH  13  14
ENDBRANCH   6  13
BRANCH   1  22
HETATM   22  C2  UNL     1      18.194  -0.938  52.850  1.00  0.00     0.002 C 
HETATM   23  C1  UNL     1      17.066  -0.443  52.378  1.00  0.00     0.038 C 
HETATM   24  C3  UNL     1      17.916  -2.142  53.685  1.00  0.00     0.068 C 
ENDBRANCH   1  22
TORSDOF 4
ENDMDL
MODEL 2
REMARK VINA RESULT:      -8.9      1.742      7.888
REMARK  4 active torsions:
REMARK  status: ('A' for Active; 'I' for Inactive)
REMARK    1  A    between atoms: C2_2  and  N1_4 
REMARK    2  A    between atoms: C8_9  and  C9_10 
REMARK    3  A    between atoms: C9_10  and  C10_11 
REMARK    4  A    between atoms: C10_11  and  C11_12 
ROOT
HETATM    1  N1  UNL     1      27.384   0.542  53.524  1.00  0.00    -0.335 N 
HETATM    2  C4  UNL     1      27.076   1.309  52.365  1.00  0.00     0.096 A 
HETATM    3  C5  UNL     1      25.897   1.493  51.803  1.00  0.00     0.019 A 
HETATM    4  C6  UNL     1      24.565   0.994  52.162  1.00  0.00     0.017 A 
HETATM    5  C7  UNL     1      24.303   0.213  53.196  1.00  0.00     0.016 A 
HETATM    6  C8  UNL     1      23.012  -0.313  53.604  1.00  0.00     0.090 A 
HETATM    7  C18 UNL     1      23.016  -1.136  54.765  1.00  0.00     0.265 A 
HETATM    8  O1  UNL     1      22.062  -1.710  55.327  1.00  0.00    -0.267 OA
HETATM    9  N2  UNL     1      24.410  -1.154  55.147  1.00  0.00    -0.320 N 
HETATM   10  C19 UNL     1      25.196  -0.360  54.233  1.00  0.00     0.063 A 
HETATM   11  C20 UNL     1      26.511  -0.209  54.359  1.00  0.00     0.126 A 
HETATM   12  H21 UNL     1      24.824  -1.668  55.979  1.00  0.00     0.169 HD
ENDROOT
BRANCH   6  13
HETATM   13  C9  UNL     1      21.902  -0.038  52.933  1.00  0.00    -0.110 C 
BRANCH  13  14
HETATM   14  C10 UNL     1      20.856   0.603  52.426  1.00  0.00     0.064 C 
BRANCH  14  15
HETATM   15  C11 UNL     1      19.550  -0.066  52.304  1.00  0.00    -0.049 C 
HETATM   16  C12 UNL     1      18.794   0.203  51.225  1.00  0.00    -0.077 C 
HETATM   17  C13 UNL     1      19.463   1.180  50.315  1.00  0.00     0.044 C 
HETATM   18  C14 UNL     1      17.468  -0.472  51.093  1.00  0.00     0.034 C 
HETATM   19  C15 UNL     1      16.890  -0.542  52.491  1.00  0.00     0.005 C 
HETATM   20  C16 UNL     1      17.764  -1.465  53.309  1.00  0.00     0.005 C 
HETATM   21  C17 UNL     1      19.185  -0.982  53.387  1.00  0.00     0.039 C 
ENDBRANCH  14  15
ENDBRANCH  13  14
ENDBRANCH   6  13
BRANCH   1  22
HETATM   22  C2  UNL     1      28.773   0.578  53.831  1.00  0.00     0.002 C 
HETATM   23  C1  UNL     1      29.725  -0.334  53.805  1.00  0.00     0.038 C 
HETATM   24  C3  UNL     1      29.328   1.888  54.279  1.00  0.00     0.068 C 
ENDBRANCH   1  22
TORSDOF 4
ENDMDL
MODEL 3
REMARK VINA RESULT:      -8.7      2.102      2.816
REMARK  4 active torsions:
REMARK  status: ('A' for Active; 'I' for Inactive)
REMARK    1  A    between atoms: C2_2  and  N1_4 
REMARK    2  A    between atoms: C8_9  and  C9_10 
REMARK    3  A    between atoms: C9_10  and  C10_11 
REMARK    4  A    between atoms: C10_11  and  C11_12 
ROOT
HETATM    1  N1  UNL     1      19.966   0.031  52.243  1.00  0.00    -0.335 N 
HETATM    2  C4  UNL     1      20.641  -0.491  53.382  1.00  0.00     0.096 A 
HETATM    3  C5  UNL     1      21.903  -0.322  53.727  1.00  0.00     0.019 A 
HETATM    4  C6  UNL     1      22.991   0.424  53.085  1.00  0.00     0.017 A 
HETATM    5  C7  UNL     1      22.876   1.109  51.960  1.00  0.00     0.016 A 
HETATM    6  C8  UNL     1      23.909   1.865  51.274  1.00  0.00     0.090 A 
HETATM    7  C18 UNL     1      23.511   2.513  50.072  1.00  0.00     0.265 A 
HETATM    8  O1  UNL     1      24.185   3.218  49.296  1.00  0.00    -0.267 OA
HETATM    9  N2  UNL     1      22.115   2.156  49.957  1.00  0.00    -0.320 N 
HETATM   10  C19 UNL     1      21.712   1.323  51.065  1.00  0.00     0.063 A 
HETATM   11  C20 UNL     1      20.475   0.855  51.201  1.00  0.00     0.126 A 
HETATM   12  H21 UNL     1      21.455   2.452  49.179  1.00  0.00     0.169 HD
ENDROOT
BRANCH   6  13
HETATM   13  C9  UNL     1      25.146   1.946  51.747  1.00  0.00    -0.110 C 
BRANCH  13  14
HETATM   14  C10 UNL     1      26.463   1.838  51.867  1.00  0.00     0.064 C 
BRANCH  14  15
HETATM   15  C11 UNL     1      27.064   0.694  52.573  1.00  0.00    -0.049 C 
HETATM   16  C12 UNL     1      28.064   0.932  53.439  1.00  0.00    -0.077 C 
HETATM   17  C13 UNL     1      28.387   2.387  53.519  1.00  0.00     0.044 C 
HETATM   18  C14 UNL     1      28.678  -0.224  54.159  1.00  0.00     0.034 C 
HETATM   19  C15 UNL     1      28.722  -1.365  53.164  1.00  0.00     0.005 C 
HETATM   20  C16 UNL     1      27.297  -1.761  52.849  1.00  0.00     0.005 C 
HETATM   21  C17 UNL     1      26.507  -0.625  52.263  1.00  0.00     0.039 C 
ENDBRANCH  14  15
ENDBRANCH  13  14
ENDBRANCH   6  13
BRANCH   1  22
HETATM   22  C2  UNL     1      18.601  -0.366  52.206  1.00  0.00     0.002 C 
HETATM   23  C1  UNL     1      17.602  -0.085  51.391  1.00  0.00     0.038 C 
HETATM   24  C3  UNL     1      18.140  -1.290  53.282  1.00  0.00     0.068 C 
ENDBRANCH   1  22
TORSDOF 4
ENDMDL
MODEL 4
REMARK VINA RESULT:      -8.6      2.256      7.139
REMARK  4 active torsions:
REMARK  status: ('A' for Active; 'I' for Inactive)
REMARK    1  A    between atoms: C2_2  and  N1_4 
REMARK    2  A    between atoms: C8_9  and  C9_10 
REMARK    3  A    between atoms: C9_10  and  C10_11 
REMARK    4  A    between atoms: C10_11  and  C11_12 
ROOT
HETATM    1  N1  UNL     1      27.320   0.660  53.589  1.00  0.00    -0.335 N 
HETATM    2  C4  UNL     1      27.060   1.374  52.386  1.00  0.00     0.096 A 
HETATM    3  C5  UNL     1      25.914   1.499  51.746  1.00  0.00     0.019 A 
HETATM    4  C6  UNL     1      24.577   0.970  52.042  1.00  0.00     0.017 A 
HETATM    5  C7  UNL     1      24.276   0.218  53.087  1.00  0.00     0.016 A 
HETATM    6  C8  UNL     1      22.980  -0.336  53.436  1.00  0.00     0.090 A 
HETATM    7  C18 UNL     1      22.937  -1.116  54.625  1.00  0.00     0.265 A 
HETATM    8  O1  UNL     1      21.968  -1.700  55.149  1.00  0.00    -0.267 OA
HETATM    9  N2  UNL     1      24.304  -1.074  55.091  1.00  0.00    -0.320 N 
HETATM   10  C19 UNL     1      25.121  -0.288  54.197  1.00  0.00     0.063 A 
HETATM   11  C20 UNL     1      26.420  -0.090  54.397  1.00  0.00     0.126 A 
HETATM   12  H21 UNL     1      24.682  -1.544  55.966  1.00  0.00     0.169 HD
ENDROOT
BRANCH   6  13
HETATM   13  C9  UNL     1      21.905  -0.121  52.689  1.00  0.00    -0.110 C 
BRANCH  13  14
HETATM   14  C10 UNL     1      21.056   0.406  51.816  1.00  0.00     0.064 C 
BRANCH  14  15
HETATM   15  C11 UNL     1      21.190   1.809  51.388  1.00  0.00    -0.049 C 
HETATM   16  C12 UNL     1      21.371   2.062  50.081  1.00  0.00    -0.077 C 
HETATM   17  C13 UNL     1      21.402   0.805  49.276  1.00  0.00     0.044 C 
HETATM   18  C14 UNL     1      21.508   3.482  49.638  1.00  0.00     0.034 C 
HETATM   19  C15 UNL     1      22.305   4.185  50.718  1.00  0.00     0.005 C 
HETATM   20  C16 UNL     1      21.466   4.204  51.976  1.00  0.00     0.005 C 
HETATM   21  C17 UNL     1      21.113   2.821  52.445  1.00  0.00     0.039 C 
ENDBRANCH  14  15
ENDBRANCH  13  14
ENDBRANCH   6  13
BRANCH   1  22
HETATM   22  C2  UNL     1      28.685   0.752  53.977  1.00  0.00     0.002 C 
HETATM   23  C1  UNL     1      29.410   1.723  54.499  1.00  0.00     0.038 C 
HETATM   24  C3  UNL     1      29.524  -0.465  53.782  1.00  0.00     0.068 C 
ENDBRANCH   1  22
TORSDOF 4
ENDMDL
MODEL 5
REMARK VINA RESULT:      -8.5      4.270      5.800
REMARK  4 active torsions:
REMARK  status: ('A' for Active; 'I' for Inactive)
REMARK    1  A    between atoms: C2_2  and  N1_4 
REMARK    2  A    between atoms: C8_9  and  C9_10 
REMARK    3  A    between atoms: C9_10  and  C10_11 
REMARK    4  A    between atoms: C10_11  and  C11_12 
ROOT
HETATM    1  N1  UNL     1      22.606   0.280  53.099  1.00  0.00    -0.335 N 
HETATM    2  C4  UNL     1      21.913   0.695  51.928  1.00  0.00     0.096 A 
HETATM    3  C5  UNL     1      22.379   1.396  50.912  1.00  0.00     0.019 A 
HETATM    4  C6  UNL     1      23.709   1.960  50.656  1.00  0.00     0.017 A 
HETATM    5  C7  UNL     1      24.747   1.850  51.467  1.00  0.00     0.016 A 
HETATM    6  C8  UNL     1      26.083   2.384  51.273  1.00  0.00     0.090 A 
HETATM    7  C18 UNL     1      27.017   2.116  52.313  1.00  0.00     0.265 A 
HETATM    8  O1  UNL     1      28.214   2.450  52.402  1.00  0.00    -0.267 OA
HETATM    9  N2  UNL     1      26.237   1.352  53.261  1.00  0.00    -0.320 N 
HETATM   10  C19 UNL     1      24.885   1.179  52.784  1.00  0.00     0.063 A 
HETATM   11  C20 UNL     1      23.961   0.512  53.467  1.00  0.00     0.126 A 
HETATM   12  H21 UNL     1      26.584   0.960  54.185  1.00  0.00     0.169 HD
ENDROOT
BRANCH   6  13
HETATM   13  C9  UNL     1      26.409   3.076  50.189  1.00  0.00    -0.110 C 
BRANCH  13  14
HETATM   14  C10 UNL     1      27.029   3.899  49.353  1.00  0.00     0.064 C 
BRANCH  14  15
HETATM   15  C11 UNL     1      26.384   5.145  48.907  1.00  0.00    -0.049 C 
HETATM   16  C12 UNL     1      27.155   6.105  48.368  1.00  0.00    -0.077 C 
HETATM   17  C13 UNL     1      28.591   5.697  48.325  1.00  0.00     0.044 C 
HETATM   18  C14 UNL     1      26.508   7.372  47.912  1.00  0.00     0.034 C 
HETATM   19  C15 UNL     1      25.422   7.678  48.923  1.00  0.00     0.005 C 
HETATM   20  C16 UNL     1      24.372   6.595  48.816  1.00  0.00     0.005 C 
HETATM   21  C17 UNL     1      24.933   5.228  49.093  1.00  0.00     0.039 C 
ENDBRANCH  14  15
ENDBRANCH  13  14
ENDBRANCH   6  13
BRANCH   1  22
HETATM   22  C2  UNL     1      21.770  -0.465  53.976  1.00  0.00     0.002 C 
HETATM   23  C1  UNL     1      21.805  -1.708  54.416  1.00  0.00     0.038 C 
HETATM   24  C3  UNL     1      20.594   0.250  54.552  1.00  0.00     0.068 C 
ENDBRANCH   1  22
TORSDOF 4
ENDMDL
MODEL 6
REMARK VINA RESULT:      -8.2      4.851      6.907
REMARK  4 active torsions:
REMARK  status: ('A' for Active; 'I' for Inactive)
REMARK    1  A    between atoms: C2_2  and  N1_4 
REMARK    2  A    between atoms: C8_9  and  C9_10 
REMARK    3  A    between atoms: C9_10  and  C10_11 
REMARK    4  A    between atoms: C10_11  and  C11_12 
ROOT
HETATM    1  N1  UNL     1      25.528   6.121  48.634  1.00  0.00    -0.335 N 
HETATM    2  C4  UNL     1      26.793   5.477  48.544  1.00  0.00     0.096 A 
HETATM    3  C5  UNL     1      27.186   4.370  49.143  1.00  0.00     0.019 A 
HETATM    4  C6  UNL     1      26.486   3.468  50.066  1.00  0.00     0.017 A 
HETATM    5  C7  UNL     1      25.242   3.629  50.482  1.00  0.00     0.016 A 
HETATM    6  C8  UNL     1      24.495   2.777  51.390  1.00  0.00     0.090 A 
HETATM    7  C18 UNL     1      23.161   3.187  51.671  1.00  0.00     0.265 A 
HETATM    8  O1  UNL     1      22.310   2.648  52.406  1.00  0.00    -0.267 OA
HETATM    9  N2  UNL     1      23.022   4.396  50.893  1.00  0.00    -0.320 N 
HETATM   10  C19 UNL     1      24.242   4.682  50.176  1.00  0.00     0.063 A 
HETATM   11  C20 UNL     1      24.380   5.740  49.384  1.00  0.00     0.126 A 
HETATM   12  H21 UNL     1      22.155   5.008  50.836  1.00  0.00     0.169 HD
ENDROOT
BRANCH   6  13
HETATM   13  C9  UNL     1      25.027   1.684  51.920  1.00  0.00    -0.110 C 
BRANCH  13  14
HETATM   14  C10 UNL     1      25.729   0.568  52.081  1.00  0.00     0.064 C 
BRANCH  14  15
HETATM   15  C11 UNL     1      27.057   0.600  52.716  1.00  0.00    -0.049 C 
HETATM   16  C12 UNL     1      27.682  -0.568  52.946  1.00  0.00    -0.077 C 
HETATM   17  C13 UNL     1      26.862  -1.729  52.489  1.00  0.00     0.044 C 
HETATM   18  C14 UNL     1      29.030  -0.544  53.589  1.00  0.00     0.034 C 
HETATM   19  C15 UNL     1      28.987   0.569  54.616  1.00  0.00     0.005 C 
HETATM   20  C16 UNL     1      28.840   1.878  53.875  1.00  0.00     0.005 C 
HETATM   21  C17 UNL     1      27.588   1.925  53.044  1.00  0.00     0.039 C 
ENDBRANCH  14  15
ENDBRANCH  13  14
ENDBRANCH   6  13
BRANCH   1  22
HETATM   22  C2  UNL     1      25.474   7.300  47.840  1.00  0.00     0.002 C 
HETATM   23  C1  UNL     1      26.403   8.086  47.330  1.00  0.00     0.038 C 
HETATM   24  C3  UNL     1      24.119   7.803  47.473  1.00  0.00     0.068 C 
ENDBRANCH   1  22
TORSDOF 4
ENDMDL
MODEL 7
REMARK VINA RESULT:      -8.1      2.459      8.315
REMARK  4 active torsions:
REMARK  status: ('A' for Active; 'I' for Inactive)
REMARK    1  A    between atoms: C2_2  and  N1_4 
REMARK    2  A    between atoms: C8_9  and  C9_10 
REMARK    3  A    between atoms: C9_10  and  C10_11 
REMARK    4  A    between atoms: C10_11  and  C11_12 
ROOT
HETATM    1  N1  UNL     1      27.015   0.790  53.363  1.00  0.00    -0.335 N 
HETATM    2  C4  UNL     1      26.482  -0.174  54.264  1.00  0.00     0.096 A 
HETATM    3  C5  UNL     1      25.240  -0.612  54.344  1.00  0.00     0.019 A 
HETATM    4  C6  UNL     1      24.042  -0.273  53.569  1.00  0.00     0.017 A 
HETATM    5  C7  UNL     1      24.005   0.602  52.578  1.00  0.00     0.016 A 
HETATM    6  C8  UNL     1      22.857   0.982  51.774  1.00  0.00     0.090 A 
HETATM    7  C18 UNL     1      23.100   1.955  50.764  1.00  0.00     0.265 A 
HETATM    8  O1  UNL     1      22.305   2.453  49.944  1.00  0.00    -0.267 OA
HETATM    9  N2  UNL     1      24.509   2.236  50.916  1.00  0.00    -0.320 N 
HETATM   10  C19 UNL     1      25.072   1.446  51.986  1.00  0.00     0.063 A 
HETATM   11  C20 UNL     1      26.354   1.514  52.333  1.00  0.00     0.126 A 
HETATM   12  H21 UNL     1      25.077   2.922  50.336  1.00  0.00     0.169 HD
ENDROOT
BRANCH   6  13
HETATM   13  C9  UNL     1      21.659   0.449  51.971  1.00  0.00    -0.110 C 
BRANCH  13  14
HETATM   14  C10 UNL     1      20.545   0.019  52.553  1.00  0.00     0.064 C 
BRANCH  14  15
HETATM   15  C11 UNL     1      19.241   0.169  51.885  1.00  0.00    -0.049 C 
HETATM   16  C12 UNL     1      18.216  -0.587  52.313  1.00  0.00    -0.077 C 
HETATM   17  C13 UNL     1      18.622  -1.479  53.440  1.00  0.00     0.044 C 
HETATM   18  C14 UNL     1      16.889  -0.441  51.641  1.00  0.00     0.034 C 
HETATM   19  C15 UNL     1      17.183  -0.229  50.170  1.00  0.00     0.005 C 
HETATM   20  C16 UNL     1      17.889   1.100  50.025  1.00  0.00     0.005 C 
HETATM   21  C17 UNL     1      19.177   1.147  50.797  1.00  0.00     0.039 C 
ENDBRANCH  14  15
ENDBRANCH  13  14
ENDBRANCH   6  13
BRANCH   1  22
HETATM   22  C2  UNL     1      28.404   1.007  53.579  1.00  0.00     0.002 C 
HETATM   23  C1  UNL     1      29.433   0.193  53.716  1.00  0.00     0.038 C 
HETATM   24  C3  UNL     1      28.854   2.425  53.679  1.00  0.00     0.068 C 
ENDBRANCH   1  22
TORSDOF 4
ENDMDL
MODEL 8
REMARK VINA RESULT:      -8.0      3.703      7.795
REMARK  4 active torsions:
REMARK  status: ('A' for Active; 'I' for Inactive)
REMARK    1  A    between atoms: C2_2  and  N1_4 
REMARK    2  A    between atoms: C8_9  and  C9_10 
REMARK    3  A    between atoms: C9_10  and  C10_11 
REMARK    4  A    between atoms: C10_11  and  C11_12 
ROOT
HETATM    1  N1  UNL     1      26.069   4.445  49.457  1.00  0.00    -0.335 N 
HETATM    2  C4  UNL     1      24.695   4.698  49.189  1.00  0.00     0.096 A 
HETATM    3  C5  UNL     1      23.643   4.054  49.657  1.00  0.00     0.019 A 
HETATM    4  C6  UNL     1      23.536   2.911  50.570  1.00  0.00     0.017 A 
HETATM    5  C7  UNL     1      24.562   2.285  51.122  1.00  0.00     0.016 A 
HETATM    6  C8  UNL     1      24.524   1.152  52.030  1.00  0.00     0.090 A 
HETATM    7  C18 UNL     1      25.787   0.672  52.477  1.00  0.00     0.265 A 
HETATM    8  O1  UNL     1      26.042  -0.274  53.248  1.00  0.00    -0.267 OA
HETATM    9  N2  UNL     1      26.723   1.551  51.814  1.00  0.00    -0.320 N 
HETATM   10  C19 UNL     1      26.023   2.519  51.003  1.00  0.00     0.063 A 
HETATM   11  C20 UNL     1      26.650   3.447  50.288  1.00  0.00     0.126 A 
HETATM   12  H21 UNL     1      27.782   1.514  51.895  1.00  0.00     0.169 HD
ENDROOT
BRANCH   6  13
HETATM   13  C9  UNL     1      23.380   0.605  52.417  1.00  0.00    -0.110 C 
BRANCH  13  14
HETATM   14  C10 UNL     1      22.484  -0.130  53.065  1.00  0.00     0.064 C 
BRANCH  14  15
HETATM   15  C11 UNL     1      21.046   0.014  52.783  1.00  0.00    -0.049 C 
HETATM   16  C12 UNL     1      20.185  -0.778  53.444  1.00  0.00    -0.077 C 
HETATM   17  C13 UNL     1      20.893  -1.698  54.383  1.00  0.00     0.044 C 
HETATM   18  C14 UNL     1      18.724  -0.637  53.164  1.00  0.00     0.034 C 
HETATM   19  C15 UNL     1      18.603  -0.370  51.678  1.00  0.00     0.005 C 
HETATM   20  C16 UNL     1      19.228   0.978  51.397  1.00  0.00     0.005 C 
HETATM   21  C17 UNL     1      20.677   1.027  51.792  1.00  0.00     0.039 C 
ENDBRANCH  14  15
ENDBRANCH  13  14
ENDBRANCH   6  13
BRANCH   1  22
HETATM   22  C2  UNL     1      26.921   5.353  48.768  1.00  0.00     0.002 C 
HETATM   23  C1  UNL     1      28.190   5.302  48.409  1.00  0.00     0.038 C 
HETATM   24  C3  UNL     1      26.317   6.645  48.336  1.00  0.00     0.068 C 
ENDBRANCH   1  22
TORSDOF 4
ENDMDL
MODEL 9
REMARK VINA RESULT:      -8.0      3.088      7.535
REMARK  4 active torsions:
REMARK  status: ('A' for Active; 'I' for Inactive)
REMARK    1  A    between atoms: C2_2  and  N1_4 
REMARK    2  A    between atoms: C8_9  and  C9_10 
REMARK    3  A    between atoms: C9_10  and  C10_11 
REMARK    4  A    between atoms: C10_11  and  C11_12 
ROOT
HETATM    1  N1  UNL     1      27.960   0.814  53.294  1.00  0.00    -0.335 N 
HETATM    2  C4  UNL     1      27.175  -0.328  53.616  1.00  0.00     0.096 A 
HETATM    3  C5  UNL     1      25.924  -0.577  53.279  1.00  0.00     0.019 A 
HETATM    4  C6  UNL     1      24.960   0.202  52.493  1.00  0.00     0.017 A 
HETATM    5  C7  UNL     1      25.207   1.381  51.947  1.00  0.00     0.016 A 
HETATM    6  C8  UNL     1      24.301   2.200  51.162  1.00  0.00     0.090 A 
HETATM    7  C18 UNL     1      24.829   3.435  50.692  1.00  0.00     0.265 A 
HETATM    8  O1  UNL     1      24.277   4.317  50.005  1.00  0.00    -0.267 OA
HETATM    9  N2  UNL     1      26.180   3.428  51.206  1.00  0.00    -0.320 N 
HETATM   10  C19 UNL     1      26.431   2.219  51.955  1.00  0.00     0.063 A 
HETATM   11  C20 UNL     1      27.600   1.962  52.535  1.00  0.00     0.126 A 
HETATM   12  H21 UNL     1      26.907   4.190  51.066  1.00  0.00     0.169 HD
ENDROOT
BRANCH   6  13
HETATM   13  C9  UNL     1      23.059   1.814  50.901  1.00  0.00    -0.110 C 
BRANCH  13  14
HETATM   14  C10 UNL     1      21.859   1.256  51.005  1.00  0.00     0.064 C 
BRANCH  14  15
HETATM   15  C11 UNL     1      21.457   0.561  52.240  1.00  0.00    -0.049 C 
HETATM   16  C12 UNL     1      20.650   1.206  53.100  1.00  0.00    -0.077 C 
HETATM   17  C13 UNL     1      20.303   2.573  52.609  1.00  0.00     0.044 C 
HETATM   18  C14 UNL     1      20.236   0.508  54.354  1.00  0.00     0.034 C 
HETATM   19  C15 UNL     1      21.443  -0.284  54.813  1.00  0.00     0.005 C 
HETATM   20  C16 UNL     1      21.708  -1.362  53.787  1.00  0.00     0.005 C 
HETATM   21  C17 UNL     1      21.980  -0.795  52.422  1.00  0.00     0.039 C 
ENDBRANCH  14  15
ENDBRANCH  13  14
ENDBRANCH   6  13
BRANCH   1  22
HETATM   22  C2  UNL     1      29.272   0.728  53.836  1.00  0.00     0.002 C 
HETATM   23  C1  UNL     1      30.214  -0.193  53.772  1.00  0.00     0.038 C 
HETATM   24  C3  UNL     1      29.739   1.884  54.653  1.00  0.00     0.068 C 
ENDBRANCH   1  22
TORSDOF 4
ENDMDL
