MODEL 1
REMARK VINA RESULT:      -8.5      0.000      0.000
REMARK  7 active torsions:
REMARK  status: ('A' for Active; 'I' for Inactive)
REMARK    1  A    between atoms: C2_2  and  C3_3 
REMARK       I    between atoms: C3_3  and  N1_5 
REMARK    2  A    between atoms: N1_5  and  C4_6 
REMARK    3  A    between atoms: C5_7  and  O2_8 
REMARK    4  A    between atoms: C9_15  and  N5_16 
REMARK    5  A    between atoms: N5_16  and  C10_17 
REMARK    6  A    between atoms: N6_25  and  C18_26 
REMARK    7  A    between atoms: C18_26  and  C19_27 
ROOT
HETATM    1  N5  UNL     1      24.530   1.460  53.423  1.00  0.00    -0.354 N 
HETATM    2  H12 UNL     1      24.508   1.815  54.429  1.00  0.00     0.162 HD
ENDROOT
BRANCH   1   3
HETATM    3  C9  UNL     1      25.884   1.176  52.976  1.00  0.00     0.217 A 
HETATM    4  C4  UNL     1      26.201  -0.294  53.290  1.00  0.00     0.220 C 
HETATM    5  C5  UNL     1      25.907  -0.130  54.790  1.00  0.00     0.169 C 
HETATM    6  N2  UNL     1      26.342   1.077  55.114  1.00  0.00    -0.206 NA
HETATM    7  C7  UNL     1      26.907   1.726  53.956  1.00  0.00     0.183 A 
HETATM    8  N3  UNL     1      27.684   2.457  53.193  1.00  0.00    -0.222 NA
HETATM    9  C8  UNL     1      27.262   2.401  51.838  1.00  0.00     0.232 A 
HETATM   10  N4  UNL     1      26.203   1.643  51.699  1.00  0.00    -0.240 NA
BRANCH   4  11
HETATM   11  N1  UNL     1      27.604  -0.476  53.173  1.00  0.00    -0.344 N 
HETATM   12  C3  UNL     1      28.122  -1.798  53.124  1.00  0.00     0.218 C 
HETATM   13  O1  UNL     1      27.357  -2.781  53.180  1.00  0.00    -0.274 OA
HETATM   14  H6  UNL     1      28.220   0.360  53.129  1.00  0.00     0.163 HD
BRANCH  12  15
HETATM   15  C2  UNL     1      29.594  -1.966  53.001  1.00  0.00     0.098 C 
HETATM   16  C1  UNL     1      30.307  -0.736  53.522  1.00  0.00     0.014 C 
ENDBRANCH  12  15
ENDBRANCH   4  11
BRANCH   5  17
HETATM   17  O2  UNL     1      25.316  -0.974  55.740  1.00  0.00    -0.341 OA
HETATM   18  C6  UNL     1      23.966  -1.323  55.590  1.00  0.00     0.211 C 
ENDBRANCH   5  17
ENDBRANCH   1   3
BRANCH   1  19
HETATM   19  C10 UNL     1      23.261   1.367  52.820  1.00  0.00     0.030 A 
HETATM   20  C11 UNL     1      22.670   0.210  52.363  1.00  0.00     0.031 A 
HETATM   21  C12 UNL     1      21.428   0.112  51.775  1.00  0.00     0.032 A 
HETATM   22  C13 UNL     1      20.719   1.284  51.636  1.00  0.00     0.037 A 
HETATM   23  C14 UNL     1      21.250   2.470  52.069  1.00  0.00    -0.028 A 
HETATM   24  N6  UNL     1      19.440   1.548  51.089  1.00  0.00    -0.376 N 
HETATM   25  C15 UNL     1      22.496   2.500  52.649  1.00  0.00     0.038 A 
HETATM   26  C16 UNL     1      20.269   3.558  51.792  1.00  0.00     0.060 C 
HETATM   27  C17 UNL     1      18.976   2.798  51.651  1.00  0.00     0.128 C 
BRANCH  24  28
HETATM   28  C18 UNL     1      18.725   0.739  50.151  1.00  0.00     0.161 C 
BRANCH  28  29
HETATM   29  C19 UNL     1      17.739  -0.105  50.869  1.00  0.00    -0.040 A 
HETATM   30  C20 UNL     1      17.926  -0.644  52.131  1.00  0.00     0.009 A 
HETATM   31  C21 UNL     1      16.938  -1.419  52.707  1.00  0.00     0.001 A 
HETATM   32  C22 UNL     1      15.741  -1.689  52.069  1.00  0.00     0.000 A 
HETATM   33  C23 UNL     1      15.597  -1.126  50.803  1.00  0.00     0.001 A 
HETATM   34  C24 UNL     1      16.556  -0.345  50.185  1.00  0.00     0.009 A 
ENDBRANCH  28  29
ENDBRANCH  24  28
ENDBRANCH   1  19
TORSDOF 7
ENDMDL
MODEL 2
REMARK VINA RESULT:      -8.4      1.717      2.775
REMARK  7 active torsions:
REMARK  status: ('A' for Active; 'I' for Inactive)
REMARK    1  A    between atoms: C2_2  and  C3_3 
REMARK       I    between atoms: C3_3  and  N1_5 
REMARK    2  A    between atoms: N1_5  and  C4_6 
REMARK    3  A    between atoms: C5_7  and  O2_8 
REMARK    4  A    between atoms: C9_15  and  N5_16 
REMARK    5  A    between atoms: N5_16  and  C10_17 
REMARK    6  A    between atoms: N6_25  and  C18_26 
REMARK    7  A    between atoms: C18_26  and  C19_27 
ROOT
HETATM    1  N5  UNL     1      24.774   2.072  52.971  1.00  0.00    -0.354 N 
HETATM    2  H12 UNL     1      25.029   3.090  53.164  1.00  0.00     0.162 HD
ENDROOT
BRANCH   1   3
HETATM    3  C9  UNL     1      25.871   1.169  53.277  1.00  0.00     0.217 A 
HETATM    4  C4  UNL     1      27.194   1.912  53.036  1.00  0.00     0.220 C 
HETATM    5  C5  UNL     1      26.851   2.233  51.572  1.00  0.00     0.169 C 
HETATM    6  N2  UNL     1      26.200   1.176  51.114  1.00  0.00    -0.206 NA
HETATM    7  C7  UNL     1      26.089   0.176  52.147  1.00  0.00     0.183 A 
HETATM    8  N3  UNL     1      26.045  -0.983  52.760  1.00  0.00    -0.222 NA
HETATM    9  C8  UNL     1      25.843  -0.811  54.155  1.00  0.00     0.232 A 
HETATM   10  N4  UNL     1      25.744   0.456  54.471  1.00  0.00    -0.240 NA
BRANCH   4  11
HETATM   11  N1  UNL     1      28.239   0.951  53.002  1.00  0.00    -0.344 N 
HETATM   12  C3  UNL     1      29.230   0.979  54.019  1.00  0.00     0.218 C 
HETATM   13  O1  UNL     1      29.182   1.832  54.927  1.00  0.00    -0.274 OA
HETATM   14  H6  UNL     1      28.256   0.252  52.233  1.00  0.00     0.163 HD
BRANCH  12  15
HETATM   15  C2  UNL     1      30.314  -0.036  53.965  1.00  0.00     0.098 C 
HETATM   16  C1  UNL     1      29.759  -1.372  53.516  1.00  0.00     0.014 C 
ENDBRANCH  12  15
ENDBRANCH   4  11
BRANCH   5  17
HETATM   17  O2  UNL     1      27.098   3.348  50.760  1.00  0.00    -0.341 OA
HETATM   18  C6  UNL     1      26.100   3.773  49.870  1.00  0.00     0.211 C 
ENDBRANCH   5  17
ENDBRANCH   1   3
BRANCH   1  19
HETATM   19  C10 UNL     1      23.467   1.892  52.480  1.00  0.00     0.030 A 
HETATM   20  C11 UNL     1      22.909   0.693  52.097  1.00  0.00     0.031 A 
HETATM   21  C12 UNL     1      21.630   0.510  51.619  1.00  0.00     0.032 A 
HETATM   22  C13 UNL     1      20.844   1.637  51.518  1.00  0.00     0.037 A 
HETATM   23  C14 UNL     1      21.339   2.861  51.881  1.00  0.00    -0.028 A 
HETATM   24  N6  UNL     1      19.510   1.814  51.077  1.00  0.00    -0.376 N 
HETATM   25  C15 UNL     1      22.624   2.976  52.352  1.00  0.00     0.038 A 
HETATM   26  C16 UNL     1      20.275   3.884  51.667  1.00  0.00     0.060 C 
HETATM   27  C17 UNL     1      19.022   3.048  51.652  1.00  0.00     0.128 C 
BRANCH  24  28
HETATM   28  C18 UNL     1      18.768   0.942  50.219  1.00  0.00     0.161 C 
BRANCH  28  29
HETATM   29  C19 UNL     1      17.921   0.039  51.036  1.00  0.00    -0.040 A 
HETATM   30  C20 UNL     1      18.278  -0.484  52.267  1.00  0.00     0.009 A 
HETATM   31  C21 UNL     1      17.409  -1.318  52.944  1.00  0.00     0.001 A 
HETATM   32  C22 UNL     1      16.170  -1.665  52.438  1.00  0.00     0.000 A 
HETATM   33  C23 UNL     1      15.854  -1.115  51.198  1.00  0.00     0.001 A 
HETATM   34  C24 UNL     1      16.689  -0.276  50.483  1.00  0.00     0.009 A 
ENDBRANCH  28  29
ENDBRANCH  24  28
ENDBRANCH   1  19
TORSDOF 7
ENDMDL
MODEL 3
REMARK VINA RESULT:      -8.3      2.405      3.566
REMARK  7 active torsions:
REMARK  status: ('A' for Active; 'I' for Inactive)
REMARK    1  A    between atoms: C2_2  and  C3_3 
REMARK       I    between atoms: C3_3  and  N1_5 
REMARK    2  A    between atoms: N1_5  and  C4_6 
REMARK    3  A    between atoms: C5_7  and  O2_8 
REMARK    4  A    between atoms: C9_15  and  N5_16 
REMARK    5  A    between atoms: N5_16  and  C10_17 
REMARK    6  A    between atoms: N6_25  and  C18_26 
REMARK    7  A    between atoms: C18_26  and  C19_27 
ROOT
HETATM    1  N5  UNL     1      24.408   1.167  53.374  1.00  0.00    -0.354 N 
HETATM    2  H12 UNL     1      24.129   1.107  54.402  1.00  0.00     0.162 HD
ENDROOT
BRANCH   1   3
HETATM    3  C9  UNL     1      25.819   0.880  53.176  1.00  0.00     0.217 A 
HETATM    4  C4  UNL     1      26.056  -0.612  53.455  1.00  0.00     0.220 C 
HETATM    5  C5  UNL     1      25.482  -0.528  54.880  1.00  0.00     0.169 C 
HETATM    6  N2  UNL     1      25.859   0.649  55.352  1.00  0.00    -0.206 NA
HETATM    7  C7  UNL     1      26.641   1.351  54.365  1.00  0.00     0.183 A 
HETATM    8  N3  UNL     1      27.557   2.108  53.809  1.00  0.00    -0.222 NA
HETATM    9  C8  UNL     1      27.401   2.138  52.397  1.00  0.00     0.232 A 
HETATM   10  N4  UNL     1      26.381   1.412  52.014  1.00  0.00    -0.240 NA
BRANCH   4  11
HETATM   11  N1  UNL     1      27.453  -0.817  53.597  1.00  0.00    -0.344 N 
HETATM   12  C3  UNL     1      28.040  -1.969  53.008  1.00  0.00     0.218 C 
HETATM   13  O1  UNL     1      27.340  -2.784  52.376  1.00  0.00    -0.274 OA
HETATM   14  H6  UNL     1      28.014  -0.123  54.130  1.00  0.00     0.163 HD
BRANCH  12  15
HETATM   15  C2  UNL     1      29.505  -2.164  53.167  1.00  0.00     0.098 C 
HETATM   16  C1  UNL     1      30.145  -0.904  53.711  1.00  0.00     0.014 C 
ENDBRANCH  12  15
ENDBRANCH   4  11
BRANCH   5  17
HETATM   17  O2  UNL     1      24.712  -1.412  55.648  1.00  0.00    -0.341 OA
HETATM   18  C6  UNL     1      23.317  -1.398  55.501  1.00  0.00     0.211 C 
ENDBRANCH   5  17
ENDBRANCH   1   3
BRANCH   1  19
HETATM   19  C10 UNL     1      23.347   1.502  52.511  1.00  0.00     0.030 A 
HETATM   20  C11 UNL     1      22.536   0.607  51.848  1.00  0.00     0.031 A 
HETATM   21  C12 UNL     1      21.495   0.929  51.004  1.00  0.00     0.032 A 
HETATM   22  C13 UNL     1      21.251   2.270  50.812  1.00  0.00     0.037 A 
HETATM   23  C14 UNL     1      22.021   3.211  51.442  1.00  0.00    -0.028 A 
HETATM   24  N6  UNL     1      20.283   2.945  50.030  1.00  0.00    -0.376 N 
HETATM   25  C15 UNL     1      23.045   2.825  52.272  1.00  0.00     0.038 A 
HETATM   26  C16 UNL     1      21.530   4.564  51.050  1.00  0.00     0.060 C 
HETATM   27  C17 UNL     1      20.129   4.275  50.578  1.00  0.00     0.128 C 
BRANCH  24  28
HETATM   28  C18 UNL     1      19.578   2.423  48.900  1.00  0.00     0.161 C 
BRANCH  28  29
HETATM   29  C19 UNL     1      20.178   2.947  47.650  1.00  0.00    -0.040 A 
HETATM   30  C20 UNL     1      21.535   2.985  47.377  1.00  0.00     0.009 A 
HETATM   31  C21 UNL     1      21.987   3.497  46.176  1.00  0.00     0.001 A 
HETATM   32  C22 UNL     1      21.127   3.986  45.209  1.00  0.00     0.000 A 
HETATM   33  C23 UNL     1      19.773   3.927  45.526  1.00  0.00     0.001 A 
HETATM   34  C24 UNL     1      19.273   3.424  46.713  1.00  0.00     0.009 A 
ENDBRANCH  28  29
ENDBRANCH  24  28
ENDBRANCH   1  19
TORSDOF 7
ENDMDL
MODEL 4
REMARK VINA RESULT:      -8.2      3.213      9.388
REMARK  7 active torsions:
REMARK  status: ('A' for Active; 'I' for Inactive)
REMARK    1  A    between atoms: C2_2  and  C3_3 
REMARK       I    between atoms: C3_3  and  N1_5 
REMARK    2  A    between atoms: N1_5  and  C4_6 
REMARK    3  A    between atoms: C5_7  and  O2_8 
REMARK    4  A    between atoms: C9_15  and  N5_16 
REMARK    5  A    between atoms: N5_16  and  C10_17 
REMARK    6  A    between atoms: N6_25  and  C18_26 
REMARK    7  A    between atoms: C18_26  and  C19_27 
ROOT
HETATM    1  N5  UNL     1      19.754   0.897  52.498  1.00  0.00    -0.354 N 
HETATM    2  H12 UNL     1      19.045   0.186  52.858  1.00  0.00     0.162 HD
ENDROOT
BRANCH   1   3
HETATM    3  C9  UNL     1      19.110   2.035  51.864  1.00  0.00     0.217 A 
HETATM    4  C4  UNL     1      17.592   1.801  51.871  1.00  0.00     0.220 C 
HETATM    5  C5  UNL     1      17.705   0.465  51.117  1.00  0.00     0.169 C 
HETATM    6  N2  UNL     1      18.687   0.624  50.246  1.00  0.00    -0.206 NA
HETATM    7  C7  UNL     1      19.232   1.955  50.351  1.00  0.00     0.183 A 
HETATM    8  N3  UNL     1      19.753   3.117  50.035  1.00  0.00    -0.222 NA
HETATM    9  C8  UNL     1      19.949   3.916  51.192  1.00  0.00     0.232 A 
HETATM   10  N4  UNL     1      19.567   3.289  52.276  1.00  0.00    -0.240 NA
BRANCH   4  11
HETATM   11  N1  UNL     1      16.999   2.721  50.968  1.00  0.00    -0.344 N 
HETATM   12  C3  UNL     1      15.773   3.341  51.327  1.00  0.00     0.218 C 
HETATM   13  O1  UNL     1      15.226   3.081  52.417  1.00  0.00    -0.274 OA
HETATM   14  H6  UNL     1      17.475   2.920  50.065  1.00  0.00     0.163 HD
BRANCH  12  15
HETATM   15  C2  UNL     1      15.169   4.303  50.368  1.00  0.00     0.098 C 
HETATM   16  C1  UNL     1      15.958   4.316  49.075  1.00  0.00     0.014 C 
ENDBRANCH  12  15
ENDBRANCH   4  11
BRANCH   5  17
HETATM   17  O2  UNL     1      17.002  -0.744  51.215  1.00  0.00    -0.341 OA
HETATM   18  C6  UNL     1      16.624  -1.207  52.484  1.00  0.00     0.211 C 
ENDBRANCH   5  17
ENDBRANCH   1   3
BRANCH   1  19
HETATM   19  C10 UNL     1      21.095   0.538  52.735  1.00  0.00     0.030 A 
HETATM   20  C11 UNL     1      22.169   0.865  51.936  1.00  0.00     0.031 A 
HETATM   21  C12 UNL     1      23.483   0.519  52.163  1.00  0.00     0.032 A 
HETATM   22  C13 UNL     1      23.737  -0.221  53.297  1.00  0.00     0.037 A 
HETATM   23  C14 UNL     1      22.714  -0.580  54.133  1.00  0.00    -0.028 A 
HETATM   24  N6  UNL     1      24.943  -0.738  53.829  1.00  0.00    -0.376 N 
HETATM   25  C15 UNL     1      21.423  -0.202  53.850  1.00  0.00     0.038 A 
HETATM   26  C16 UNL     1      23.281  -1.367  55.265  1.00  0.00     0.060 C 
HETATM   27  C17 UNL     1      24.733  -0.965  55.242  1.00  0.00     0.128 C 
BRANCH  24  28
HETATM   28  C18 UNL     1      26.155  -0.995  53.114  1.00  0.00     0.161 C 
BRANCH  28  29
HETATM   29  C19 UNL     1      27.150   0.061  53.420  1.00  0.00    -0.040 A 
HETATM   30  C20 UNL     1      28.230  -0.091  54.273  1.00  0.00     0.009 A 
HETATM   31  C21 UNL     1      29.098   0.963  54.488  1.00  0.00     0.001 A 
HETATM   32  C22 UNL     1      28.934   2.193  53.877  1.00  0.00     0.000 A 
HETATM   33  C23 UNL     1      27.836   2.299  53.029  1.00  0.00     0.001 A 
HETATM   34  C24 UNL     1      26.941   1.274  52.782  1.00  0.00     0.009 A 
ENDBRANCH  28  29
ENDBRANCH  24  28
ENDBRANCH   1  19
TORSDOF 7
ENDMDL
MODEL 5
REMARK VINA RESULT:      -8.2      3.263      5.321
REMARK  7 active torsions:
REMARK  status: ('A' for Active; 'I' for Inactive)
REMARK    1  A    between atoms: C2_2  and  C3_3 
REMARK       I    between atoms: C3_3  and  N1_5 
REMARK    2  A    between atoms: N1_5  and  C4_6 
REMARK    3  A    between atoms: C5_7  and  O2_8 
REMARK    4  A    between atoms: C9_15  and  N5_16 
REMARK    5  A    between atoms: N5_16  and  C10_17 
REMARK    6  A    between atoms: N6_25  and  C18_26 
REMARK    7  A    between atoms: C18_26  and  C19_27 
ROOT
HETATM    1  N5  UNL     1      25.639   2.458  53.244  1.00  0.00    -0.354 N 
HETATM    2  H12 UNL     1      25.338   2.664  54.246  1.00  0.00     0.162 HD
ENDROOT
BRANCH   1   3
HETATM    3  C9  UNL     1      26.899   1.734  53.192  1.00  0.00     0.217 A 
HETATM    4  C4  UNL     1      26.602   0.265  52.852  1.00  0.00     0.220 C 
HETATM    5  C5  UNL     1      25.660   0.084  54.055  1.00  0.00     0.169 C 
HETATM    6  N2  UNL     1      26.189   0.794  55.037  1.00  0.00    -0.206 NA
HETATM    7  C7  UNL     1      27.406   1.427  54.592  1.00  0.00     0.183 A 
HETATM    8  N3  UNL     1      28.626   1.910  54.577  1.00  0.00    -0.222 NA
HETATM    9  C8  UNL     1      28.934   2.467  53.307  1.00  0.00     0.232 A 
HETATM   10  N4  UNL     1      27.923   2.362  52.481  1.00  0.00    -0.240 NA
BRANCH   4  11
HETATM   11  N1  UNL     1      27.765  -0.497  53.135  1.00  0.00    -0.344 N 
HETATM   12  C3  UNL     1      27.780  -1.877  52.799  1.00  0.00     0.218 C 
HETATM   13  O1  UNL     1      26.787  -2.409  52.264  1.00  0.00    -0.274 OA
HETATM   14  H6  UNL     1      28.579  -0.029  53.583  1.00  0.00     0.163 HD
BRANCH  12  15
HETATM   15  C2  UNL     1      29.008  -2.656  53.103  1.00  0.00     0.098 C 
HETATM   16  C1  UNL     1      30.059  -1.757  53.721  1.00  0.00     0.014 C 
ENDBRANCH  12  15
ENDBRANCH   4  11
BRANCH   5  17
HETATM   17  O2  UNL     1      24.471  -0.636  54.230  1.00  0.00    -0.341 OA
HETATM   18  C6  UNL     1      23.453  -0.506  53.273  1.00  0.00     0.211 C 
ENDBRANCH   5  17
ENDBRANCH   1   3
BRANCH   1  19
HETATM   19  C10 UNL     1      24.746   2.937  52.266  1.00  0.00     0.030 A 
HETATM   20  C11 UNL     1      25.015   3.061  50.921  1.00  0.00     0.031 A 
HETATM   21  C12 UNL     1      24.144   3.527  49.960  1.00  0.00     0.032 A 
HETATM   22  C13 UNL     1      22.893   3.902  50.395  1.00  0.00     0.037 A 
HETATM   23  C14 UNL     1      22.561   3.805  51.720  1.00  0.00    -0.028 A 
HETATM   24  N6  UNL     1      21.772   4.414  49.697  1.00  0.00    -0.376 N 
HETATM   25  C15 UNL     1      23.476   3.331  52.629  1.00  0.00     0.038 A 
HETATM   26  C16 UNL     1      21.157   4.276  51.893  1.00  0.00     0.060 C 
HETATM   27  C17 UNL     1      20.599   4.145  50.499  1.00  0.00     0.128 C 
BRANCH  24  28
HETATM   28  C18 UNL     1      21.781   5.079  48.430  1.00  0.00     0.161 C 
BRANCH  28  29
HETATM   29  C19 UNL     1      22.584   6.322  48.524  1.00  0.00    -0.040 A 
HETATM   30  C20 UNL     1      23.731   6.581  47.793  1.00  0.00     0.009 A 
HETATM   31  C21 UNL     1      24.404   7.777  47.961  1.00  0.00     0.001 A 
HETATM   32  C22 UNL     1      23.976   8.750  48.845  1.00  0.00     0.000 A 
HETATM   33  C23 UNL     1      22.820   8.446  49.557  1.00  0.00     0.001 A 
HETATM   34  C24 UNL     1      22.112   7.265  49.425  1.00  0.00     0.009 A 
ENDBRANCH  28  29
ENDBRANCH  24  28
ENDBRANCH   1  19
TORSDOF 7
ENDMDL
MODEL 6
REMARK VINA RESULT:      -8.1      5.242      9.770
REMARK  7 active torsions:
REMARK  status: ('A' for Active; 'I' for Inactive)
REMARK    1  A    between atoms: C2_2  and  C3_3 
REMARK       I    between atoms: C3_3  and  N1_5 
REMARK    2  A    between atoms: N1_5  and  C4_6 
REMARK    3  A    between atoms: C5_7  and  O2_8 
REMARK    4  A    between atoms: C9_15  and  N5_16 
REMARK    5  A    between atoms: N5_16  and  C10_17 
REMARK    6  A    between atoms: N6_25  and  C18_26 
REMARK    7  A    between atoms: C18_26  and  C19_27 
ROOT
HETATM    1  N5  UNL     1      24.735   3.476  50.623  1.00  0.00    -0.354 N 
HETATM    2  H12 UNL     1      23.710   3.687  50.421  1.00  0.00     0.162 HD
ENDROOT
BRANCH   1   3
HETATM    3  C9  UNL     1      24.889   2.403  51.592  1.00  0.00     0.217 A 
HETATM    4  C4  UNL     1      23.554   1.651  51.700  1.00  0.00     0.220 C 
HETATM    5  C5  UNL     1      22.768   2.919  52.077  1.00  0.00     0.169 C 
HETATM    6  N2  UNL     1      23.578   3.632  52.842  1.00  0.00    -0.206 NA
HETATM    7  C7  UNL     1      24.833   2.942  53.013  1.00  0.00     0.183 A 
HETATM    8  N3  UNL     1      25.937   2.477  53.548  1.00  0.00    -0.222 NA
HETATM    9  C8  UNL     1      26.662   1.690  52.613  1.00  0.00     0.232 A 
HETATM   10  N4  UNL     1      26.048   1.636  51.458  1.00  0.00    -0.240 NA
BRANCH   4  11
HETATM   11  N1  UNL     1      23.596   0.844  52.867  1.00  0.00    -0.344 N 
HETATM   12  C3  UNL     1      22.575  -0.122  53.070  1.00  0.00     0.218 C 
HETATM   13  O1  UNL     1      21.658  -0.259  52.236  1.00  0.00    -0.274 OA
HETATM   14  H6  UNL     1      24.371   0.980  53.547  1.00  0.00     0.163 HD
BRANCH  12  15
HETATM   15  C2  UNL     1      22.638  -0.958  54.298  1.00  0.00     0.098 C 
HETATM   16  C1  UNL     1      21.350  -1.735  54.468  1.00  0.00     0.014 C 
ENDBRANCH  12  15
ENDBRANCH   4  11
BRANCH   5  17
HETATM   17  O2  UNL     1      21.479   3.367  51.760  1.00  0.00    -0.341 OA
HETATM   18  C6  UNL     1      21.313   4.679  51.292  1.00  0.00     0.211 C 
ENDBRANCH   5  17
ENDBRANCH   1   3
BRANCH   1  19
HETATM   19  C10 UNL     1      25.639   4.284  49.907  1.00  0.00     0.030 A 
HETATM   20  C11 UNL     1      26.821   3.862  49.339  1.00  0.00     0.031 A 
HETATM   21  C12 UNL     1      27.708   4.647  48.635  1.00  0.00     0.032 A 
HETATM   22  C13 UNL     1      27.373   5.975  48.491  1.00  0.00     0.037 A 
HETATM   23  C14 UNL     1      26.212   6.459  49.031  1.00  0.00    -0.028 A 
HETATM   24  N6  UNL     1      28.037   7.044  47.842  1.00  0.00    -0.376 N 
HETATM   25  C15 UNL     1      25.369   5.623  49.723  1.00  0.00     0.038 A 
HETATM   26  C16 UNL     1      26.115   7.914  48.719  1.00  0.00     0.060 C 
HETATM   27  C17 UNL     1      27.045   8.054  47.542  1.00  0.00     0.128 C 
BRANCH  24  28
HETATM   28  C18 UNL     1      29.431   7.127  47.533  1.00  0.00     0.161 C 
BRANCH  28  29
HETATM   29  C19 UNL     1      29.929   8.491  47.831  1.00  0.00    -0.040 A 
HETATM   30  C20 UNL     1      30.207   9.459  46.881  1.00  0.00     0.009 A 
HETATM   31  C21 UNL     1      30.668  10.702  47.272  1.00  0.00     0.001 A 
HETATM   32  C22 UNL     1      30.871  11.033  48.600  1.00  0.00     0.000 A 
HETATM   33  C23 UNL     1      30.579  10.029  49.519  1.00  0.00     0.001 A 
HETATM   34  C24 UNL     1      30.115   8.772  49.177  1.00  0.00     0.009 A 
ENDBRANCH  28  29
ENDBRANCH  24  28
ENDBRANCH   1  19
TORSDOF 7
ENDMDL
MODEL 7
REMARK VINA RESULT:      -8.0      5.256      8.956
REMARK  7 active torsions:
REMARK  status: ('A' for Active; 'I' for Inactive)
REMARK    1  A    between atoms: C2_2  and  C3_3 
REMARK       I    between atoms: C3_3  and  N1_5 
REMARK    2  A    between atoms: N1_5  and  C4_6 
REMARK    3  A    between atoms: C5_7  and  O2_8 
REMARK    4  A    between atoms: C9_15  and  N5_16 
REMARK    5  A    between atoms: N5_16  and  C10_17 
REMARK    6  A    between atoms: N6_25  and  C18_26 
REMARK    7  A    between atoms: C18_26  and  C19_27 
ROOT
HETATM    1  N5  UNL     1      24.616   3.159  50.361  1.00  0.00    -0.354 N 
HETATM    2  H12 UNL     1      23.756   2.932  49.772  1.00  0.00     0.162 HD
ENDROOT
BRANCH   1   3
HETATM    3  C9  UNL     1      24.773   2.238  51.474  1.00  0.00     0.217 A 
HETATM    4  C4  UNL     1      23.478   1.424  51.617  1.00  0.00     0.220 C 
HETATM    5  C5  UNL     1      22.602   2.679  51.777  1.00  0.00     0.169 C 
HETATM    6  N2  UNL     1      23.325   3.537  52.476  1.00  0.00    -0.206 NA
HETATM    7  C7  UNL     1      24.605   2.957  52.803  1.00  0.00     0.183 A 
HETATM    8  N3  UNL     1      25.699   2.640  53.452  1.00  0.00    -0.222 NA
HETATM    9  C8  UNL     1      26.520   1.782  52.671  1.00  0.00     0.232 A 
HETATM   10  N4  UNL     1      25.979   1.534  51.505  1.00  0.00    -0.240 NA
BRANCH   4  11
HETATM   11  N1  UNL     1      23.497   0.785  52.884  1.00  0.00    -0.344 N 
HETATM   12  C3  UNL     1      22.505  -0.188  53.177  1.00  0.00     0.218 C 
HETATM   13  O1  UNL     1      21.633  -0.477  52.334  1.00  0.00    -0.274 OA
HETATM   14  H6  UNL     1      24.235   1.045  53.570  1.00  0.00     0.163 HD
BRANCH  12  15
HETATM   15  C2  UNL     1      22.544  -0.847  54.509  1.00  0.00     0.098 C 
HETATM   16  C1  UNL     1      21.433  -1.871  54.619  1.00  0.00     0.014 C 
ENDBRANCH  12  15
ENDBRANCH   4  11
BRANCH   5  17
HETATM   17  O2  UNL     1      21.310   2.997  51.337  1.00  0.00    -0.341 OA
HETATM   18  C6  UNL     1      20.968   4.346  51.161  1.00  0.00     0.211 C 
ENDBRANCH   5  17
ENDBRANCH   1   3
BRANCH   1  19
HETATM   19  C10 UNL     1      25.348   4.272  49.901  1.00  0.00     0.030 A 
HETATM   20  C11 UNL     1      24.955   5.588  49.996  1.00  0.00     0.031 A 
HETATM   21  C12 UNL     1      25.667   6.681  49.550  1.00  0.00     0.032 A 
HETATM   22  C13 UNL     1      26.882   6.422  48.957  1.00  0.00     0.037 A 
HETATM   23  C14 UNL     1      27.331   5.134  48.830  1.00  0.00    -0.028 A 
HETATM   24  N6  UNL     1      27.855   7.285  48.397  1.00  0.00    -0.376 N 
HETATM   25  C15 UNL     1      26.572   4.088  49.296  1.00  0.00     0.038 A 
HETATM   26  C16 UNL     1      28.661   5.161  48.156  1.00  0.00     0.060 C 
HETATM   27  C17 UNL     1      29.117   6.576  48.397  1.00  0.00     0.128 C 
BRANCH  24  28
HETATM   28  C18 UNL     1      27.646   8.615  47.915  1.00  0.00     0.161 C 
BRANCH  28  29
HETATM   29  C19 UNL     1      27.073   8.567  46.548  1.00  0.00    -0.040 A 
HETATM   30  C20 UNL     1      25.725   8.444  46.258  1.00  0.00     0.009 A 
HETATM   31  C21 UNL     1      25.299   8.410  44.944  1.00  0.00     0.001 A 
HETATM   32  C22 UNL     1      26.177   8.493  43.878  1.00  0.00     0.000 A 
HETATM   33  C23 UNL     1      27.521   8.615  44.218  1.00  0.00     0.001 A 
HETATM   34  C24 UNL     1      27.995   8.655  45.516  1.00  0.00     0.009 A 
ENDBRANCH  28  29
ENDBRANCH  24  28
ENDBRANCH   1  19
TORSDOF 7
ENDMDL
MODEL 8
REMARK VINA RESULT:      -7.9      7.025      9.307
REMARK  7 active torsions:
REMARK  status: ('A' for Active; 'I' for Inactive)
REMARK    1  A    between atoms: C2_2  and  C3_3 
REMARK       I    between atoms: C3_3  and  N1_5 
REMARK    2  A    between atoms: N1_5  and  C4_6 
REMARK    3  A    between atoms: C5_7  and  O2_8 
REMARK    4  A    between atoms: C9_15  and  N5_16 
REMARK    5  A    between atoms: N5_16  and  C10_17 
REMARK    6  A    between atoms: N6_25  and  C18_26 
REMARK    7  A    between atoms: C18_26  and  C19_27 
ROOT
HETATM    1  N5  UNL     1      29.374   5.817  47.709  1.00  0.00    -0.354 N 
HETATM    2  H12 UNL     1      29.615   5.022  47.041  1.00  0.00     0.162 HD
ENDROOT
BRANCH   1   3
HETATM    3  C9  UNL     1      30.401   6.845  47.724  1.00  0.00     0.217 A 
HETATM    4  C4  UNL     1      31.675   6.269  47.088  1.00  0.00     0.220 C 
HETATM    5  C5  UNL     1      31.748   5.097  48.081  1.00  0.00     0.169 C 
HETATM    6  N2  UNL     1      31.343   5.582  49.243  1.00  0.00    -0.206 NA
HETATM    7  C7  UNL     1      31.015   6.980  49.108  1.00  0.00     0.183 A 
HETATM    8  N3  UNL     1      30.886   8.260  49.366  1.00  0.00    -0.222 NA
HETATM    9  C8  UNL     1      30.274   8.936  48.277  1.00  0.00     0.232 A 
HETATM   10  N4  UNL     1      29.989   8.111  47.300  1.00  0.00    -0.240 NA
BRANCH   4  11
HETATM   11  N1  UNL     1      32.756   7.132  47.406  1.00  0.00    -0.344 N 
HETATM   12  C3  UNL     1      33.367   7.879  46.364  1.00  0.00     0.218 C 
HETATM   13  O1  UNL     1      32.959   7.780  45.190  1.00  0.00    -0.274 OA
HETATM   14  H6  UNL     1      33.078   7.196  48.393  1.00  0.00     0.163 HD
BRANCH  12  15
HETATM   15  C2  UNL     1      34.497   8.778  46.719  1.00  0.00     0.098 C 
HETATM   16  C1  UNL     1      33.985  10.176  46.999  1.00  0.00     0.014 C 
ENDBRANCH  12  15
ENDBRANCH   4  11
BRANCH   5  17
HETATM   17  O2  UNL     1      32.132   3.756  47.942  1.00  0.00    -0.341 OA
HETATM   18  C6  UNL     1      32.248   3.215  46.653  1.00  0.00     0.211 C 
ENDBRANCH   5  17
ENDBRANCH   1   3
BRANCH   1  19
HETATM   19  C10 UNL     1      28.147   5.651  48.379  1.00  0.00     0.030 A 
HETATM   20  C11 UNL     1      27.632   4.456  48.831  1.00  0.00     0.031 A 
HETATM   21  C12 UNL     1      26.433   4.287  49.489  1.00  0.00     0.032 A 
HETATM   22  C13 UNL     1      25.689   5.424  49.711  1.00  0.00     0.037 A 
HETATM   23  C14 UNL     1      26.143   6.644  49.287  1.00  0.00    -0.028 A 
HETATM   24  N6  UNL     1      24.436   5.616  50.344  1.00  0.00    -0.376 N 
HETATM   25  C15 UNL     1      27.349   6.745  48.636  1.00  0.00     0.038 A 
HETATM   26  C16 UNL     1      25.139   7.680  49.662  1.00  0.00     0.060 C 
HETATM   27  C17 UNL     1      24.368   6.999  50.763  1.00  0.00     0.128 C 
BRANCH  24  28
HETATM   28  C18 UNL     1      23.415   4.634  50.540  1.00  0.00     0.161 C 
BRANCH  28  29
HETATM   29  C19 UNL     1      22.967   4.109  49.227  1.00  0.00    -0.040 A 
HETATM   30  C20 UNL     1      22.959   2.772  48.869  1.00  0.00     0.009 A 
HETATM   31  C21 UNL     1      22.520   2.393  47.614  1.00  0.00     0.001 A 
HETATM   32  C22 UNL     1      22.079   3.308  46.676  1.00  0.00     0.000 A 
HETATM   33  C23 UNL     1      22.105   4.640  47.080  1.00  0.00     0.001 A 
HETATM   34  C24 UNL     1      22.535   5.068  48.323  1.00  0.00     0.009 A 
ENDBRANCH  28  29
ENDBRANCH  24  28
ENDBRANCH   1  19
TORSDOF 7
ENDMDL
MODEL 9
REMARK VINA RESULT:      -7.8      7.025      9.982
REMARK  7 active torsions:
REMARK  status: ('A' for Active; 'I' for Inactive)
REMARK    1  A    between atoms: C2_2  and  C3_3 
REMARK       I    between atoms: C3_3  and  N1_5 
REMARK    2  A    between atoms: N1_5  and  C4_6 
REMARK    3  A    between atoms: C5_7  and  O2_8 
REMARK    4  A    between atoms: C9_15  and  N5_16 
REMARK    5  A    between atoms: N5_16  and  C10_17 
REMARK    6  A    between atoms: N6_25  and  C18_26 
REMARK    7  A    between atoms: C18_26  and  C19_27 
ROOT
HETATM    1  N5  UNL     1      27.676   6.794  47.731  1.00  0.00    -0.354 N 
HETATM    2  H12 UNL     1      27.437   6.707  46.695  1.00  0.00     0.162 HD
ENDROOT
BRANCH   1   3
HETATM    3  C9  UNL     1      28.653   7.841  47.979  1.00  0.00     0.217 A 
HETATM    4  C4  UNL     1      27.901   9.149  48.269  1.00  0.00     0.220 C 
HETATM    5  C5  UNL     1      27.138   9.110  46.934  1.00  0.00     0.169 C 
HETATM    6  N2  UNL     1      27.989   8.623  46.046  1.00  0.00    -0.206 NA
HETATM    7  C7  UNL     1      29.255   8.341  46.676  1.00  0.00     0.183 A 
HETATM    8  N3  UNL     1      30.545   8.222  46.881  1.00  0.00    -0.222 NA
HETATM    9  C8  UNL     1      30.806   7.718  48.184  1.00  0.00     0.232 A 
HETATM   10  N4  UNL     1      29.696   7.496  48.842  1.00  0.00    -0.240 NA
BRANCH   4  11
HETATM   11  N1  UNL     1      28.826  10.220  48.171  1.00  0.00    -0.344 N 
HETATM   12  C3  UNL     1      28.446  11.501  48.653  1.00  0.00     0.218 C 
HETATM   13  O1  UNL     1      27.319  11.680  49.154  1.00  0.00    -0.274 OA
HETATM   14  H6  UNL     1      29.760  10.044  47.748  1.00  0.00     0.163 HD
BRANCH  12  15
HETATM   15  C2  UNL     1      29.431  12.609  48.542  1.00  0.00     0.098 C 
HETATM   16  C1  UNL     1      30.764  12.184  49.123  1.00  0.00     0.014 C 
ENDBRANCH  12  15
ENDBRANCH   4  11
BRANCH   5  17
HETATM   17  O2  UNL     1      25.833   9.472  46.574  1.00  0.00    -0.341 OA
HETATM   18  C6  UNL     1      24.981   8.494  46.040  1.00  0.00     0.211 C 
ENDBRANCH   5  17
ENDBRANCH   1   3
BRANCH   1  19
HETATM   19  C10 UNL     1      26.988   5.882  48.556  1.00  0.00     0.030 A 
HETATM   20  C11 UNL     1      27.386   4.595  48.839  1.00  0.00     0.031 A 
HETATM   21  C12 UNL     1      26.719   3.699  49.646  1.00  0.00     0.032 A 
HETATM   22  C13 UNL     1      25.547   4.142  50.218  1.00  0.00     0.037 A 
HETATM   23  C14 UNL     1      25.095   5.412  49.977  1.00  0.00    -0.028 A 
HETATM   24  N6  UNL     1      24.625   3.503  51.083  1.00  0.00    -0.376 N 
HETATM   25  C15 UNL     1      25.808   6.257  49.161  1.00  0.00     0.038 A 
HETATM   26  C16 UNL     1      23.818   5.609  50.720  1.00  0.00     0.060 C 
HETATM   27  C17 UNL     1      23.891   4.538  51.777  1.00  0.00     0.128 C 
BRANCH  24  28
HETATM   28  C18 UNL     1      24.441   2.095  51.250  1.00  0.00     0.161 C 
BRANCH  28  29
HETATM   29  C19 UNL     1      25.436   1.572  52.218  1.00  0.00    -0.040 A 
HETATM   30  C20 UNL     1      25.598   2.032  53.514  1.00  0.00     0.009 A 
HETATM   31  C21 UNL     1      26.560   1.471  54.333  1.00  0.00     0.001 A 
HETATM   32  C22 UNL     1      27.388   0.447  53.910  1.00  0.00     0.000 A 
HETATM   33  C23 UNL     1      27.188   0.018  52.601  1.00  0.00     0.001 A 
HETATM   34  C24 UNL     1      26.240   0.547  51.744  1.00  0.00     0.009 A 
ENDBRANCH  28  29
ENDBRANCH  24  28
ENDBRANCH   1  19
TORSDOF 7
ENDMDL
