MODEL 1
REMARK VINA RESULT:      -9.4      0.000      0.000
REMARK  2 active torsions:
REMARK  status: ('A' for Active; 'I' for Inactive)
REMARK       I    between atoms: C2_2  and  N1_4 
REMARK    1  A    between atoms: C5_7  and  N2_8 
REMARK    2  A    between atoms: N2_8  and  C6_9 
ROOT
HETATM    1  C1  UNL     1      22.316   1.735  49.177  1.00  0.00     0.117 C 
HETATM    2  C2  UNL     1      21.052   1.368  49.818  1.00  0.00     0.220 C 
HETATM    3  O1  UNL     1      20.199   1.721  48.938  1.00  0.00    -0.274 OA
HETATM    4  N1  UNL     1      20.647   0.769  51.076  1.00  0.00    -0.324 N 
HETATM    5  C3  UNL     1      21.713   0.427  51.980  1.00  0.00     0.112 C 
HETATM    6  C4  UNL     1      21.835  -0.271  53.085  1.00  0.00     0.054 A 
HETATM    7  C5  UNL     1      23.165  -0.170  53.410  1.00  0.00     0.143 A 
HETATM    8  N3  UNL     1      23.595  -0.787  54.506  1.00  0.00    -0.223 NA
HETATM    9  C12 UNL     1      22.788  -1.495  55.293  1.00  0.00     0.236 A 
HETATM   10  N4  UNL     1      21.492  -1.592  54.972  1.00  0.00    -0.241 NA
HETATM   11  C13 UNL     1      20.986  -0.998  53.886  1.00  0.00     0.073 A 
HETATM   12  C14 UNL     1      19.701  -1.303  53.884  1.00  0.00     0.032 C 
HETATM   13  C15 UNL     1      18.572  -1.001  53.009  1.00  0.00    -0.000 C 
HETATM   14  C16 UNL     1      18.552  -0.203  51.945  1.00  0.00    -0.007 C 
HETATM   15  C17 UNL     1      19.207   0.704  51.021  1.00  0.00     0.158 C 
ENDROOT
BRANCH   7  16
HETATM   16  N2  UNL     1      24.130   0.540  52.651  1.00  0.00    -0.340 N 
HETATM   17  H5  UNL     1      24.340   1.266  51.946  1.00  0.00     0.167 HD
BRANCH  16  18
HETATM   18  C6  UNL     1      25.525   0.241  52.822  1.00  0.00     0.035 A 
HETATM   19  C7  UNL     1      26.235  -0.958  52.720  1.00  0.00     0.032 A 
HETATM   20  C8  UNL     1      27.594  -1.057  52.907  1.00  0.00     0.046 A 
HETATM   21  C9  UNL     1      28.304   0.082  53.210  1.00  0.00     0.138 A 
HETATM   22  F1  UNL     1      29.643  -0.120  53.375  1.00  0.00    -0.204 F 
HETATM   23  C10 UNL     1      27.642   1.271  53.317  1.00  0.00     0.074 A 
HETATM   24 CL1  UNL     1      28.732   2.610  53.712  1.00  0.00    -0.081 Cl
HETATM   25  C11 UNL     1      26.274   1.383  53.131  1.00  0.00     0.056 A 
ENDBRANCH  16  18
ENDBRANCH   7  16
TORSDOF 2
ENDMDL
MODEL 2
REMARK VINA RESULT:      -9.1      2.339      4.268
REMARK  2 active torsions:
REMARK  status: ('A' for Active; 'I' for Inactive)
REMARK       I    between atoms: C2_2  and  N1_4 
REMARK    1  A    between atoms: C5_7  and  N2_8 
REMARK    2  A    between atoms: N2_8  and  C6_9 
ROOT
HETATM    1  C1  UNL     1      22.277  -0.648  54.889  1.00  0.00     0.117 C 
HETATM    2  C2  UNL     1      21.658  -0.434  53.580  1.00  0.00     0.220 C 
HETATM    3  O1  UNL     1      20.540  -1.034  53.717  1.00  0.00    -0.274 OA
HETATM    4  N1  UNL     1      22.019   0.231  52.342  1.00  0.00    -0.324 N 
HETATM    5  C3  UNL     1      23.313   0.861  52.324  1.00  0.00     0.112 C 
HETATM    6  C4  UNL     1      23.952   1.697  51.538  1.00  0.00     0.054 A 
HETATM    7  C5  UNL     1      25.173   1.870  52.143  1.00  0.00     0.143 A 
HETATM    8  N3  UNL     1      26.053   2.680  51.563  1.00  0.00    -0.223 NA
HETATM    9  C12 UNL     1      25.796   3.325  50.427  1.00  0.00     0.236 A 
HETATM   10  N4  UNL     1      24.604   3.153  49.842  1.00  0.00    -0.241 NA
HETATM   11  C13 UNL     1      23.667   2.354  50.365  1.00  0.00     0.073 A 
HETATM   12  C14 UNL     1      22.641   2.427  49.537  1.00  0.00     0.032 C 
HETATM   13  C15 UNL     1      21.309   1.829  49.493  1.00  0.00    -0.000 C 
HETATM   14  C16 UNL     1      20.794   0.918  50.314  1.00  0.00    -0.007 C 
HETATM   15  C17 UNL     1      20.894   0.036  51.461  1.00  0.00     0.158 C 
ENDROOT
BRANCH   7  16
HETATM   16  N2  UNL     1      25.567   1.254  53.358  1.00  0.00    -0.340 N 
HETATM   17  H5  UNL     1      25.316   0.933  54.308  1.00  0.00     0.167 HD
BRANCH  16  18
HETATM   18  C6  UNL     1      26.918   0.788  53.509  1.00  0.00     0.035 A 
HETATM   19  C7  UNL     1      28.082   1.442  53.921  1.00  0.00     0.032 A 
HETATM   20  C8  UNL     1      29.307   0.825  54.022  1.00  0.00     0.046 A 
HETATM   21  C9  UNL     1      29.402  -0.511  53.704  1.00  0.00     0.138 A 
HETATM   22  F1  UNL     1      30.657  -1.029  53.836  1.00  0.00    -0.204 F 
HETATM   23  C10 UNL     1      28.284  -1.180  53.298  1.00  0.00     0.074 A 
HETATM   24 CL1  UNL     1      28.618  -2.882  52.936  1.00  0.00    -0.081 Cl
HETATM   25  C11 UNL     1      27.046  -0.569  53.192  1.00  0.00     0.056 A 
ENDBRANCH  16  18
ENDBRANCH   7  16
TORSDOF 2
ENDMDL
MODEL 3
REMARK VINA RESULT:      -8.6      3.505      4.721
REMARK  2 active torsions:
REMARK  status: ('A' for Active; 'I' for Inactive)
REMARK       I    between atoms: C2_2  and  N1_4 
REMARK    1  A    between atoms: C5_7  and  N2_8 
REMARK    2  A    between atoms: N2_8  and  C6_9 
ROOT
HETATM    1  C1  UNL     1      27.176   4.550  48.860  1.00  0.00     0.117 C 
HETATM    2  C2  UNL     1      26.102   5.368  49.426  1.00  0.00     0.220 C 
HETATM    3  O1  UNL     1      26.363   6.519  48.939  1.00  0.00    -0.274 OA
HETATM    4  N1  UNL     1      24.967   5.152  50.303  1.00  0.00    -0.324 N 
HETATM    5  C3  UNL     1      24.796   3.807  50.786  1.00  0.00     0.112 C 
HETATM    6  C4  UNL     1      23.857   3.133  51.411  1.00  0.00     0.054 A 
HETATM    7  C5  UNL     1      24.379   1.872  51.556  1.00  0.00     0.143 A 
HETATM    8  N3  UNL     1      23.641   0.951  52.168  1.00  0.00    -0.223 NA
HETATM    9  C12 UNL     1      22.423   1.206  52.640  1.00  0.00     0.236 A 
HETATM   10  N4  UNL     1      21.917   2.437  52.495  1.00  0.00    -0.241 NA
HETATM   11  C13 UNL     1      22.601   3.416  51.891  1.00  0.00     0.073 A 
HETATM   12  C14 UNL     1      21.808   4.472  51.927  1.00  0.00     0.032 C 
HETATM   13  C15 UNL     1      21.910   5.852  51.460  1.00  0.00    -0.000 C 
HETATM   14  C16 UNL     1      22.958   6.452  50.903  1.00  0.00    -0.007 C 
HETATM   15  C17 UNL     1      24.328   6.439  50.426  1.00  0.00     0.158 C 
ENDROOT
BRANCH   7  16
HETATM   16  N2  UNL     1      25.656   1.467  51.089  1.00  0.00    -0.340 N 
HETATM   17  H5  UNL     1      26.340   1.421  50.315  1.00  0.00     0.167 HD
BRANCH  16  18
HETATM   18  C6  UNL     1      26.557   0.795  51.983  1.00  0.00     0.035 A 
HETATM   19  C7  UNL     1      26.742  -0.560  52.265  1.00  0.00     0.032 A 
HETATM   20  C8  UNL     1      27.678  -1.032  53.156  1.00  0.00     0.046 A 
HETATM   21  C9  UNL     1      28.483  -0.127  53.810  1.00  0.00     0.138 A 
HETATM   22  F1  UNL     1      29.377  -0.693  54.670  1.00  0.00    -0.204 F 
HETATM   23  C10 UNL     1      28.329   1.206  53.558  1.00  0.00     0.074 A 
HETATM   24 CL1  UNL     1      29.456   2.199  54.497  1.00  0.00    -0.081 Cl
HETATM   25  C11 UNL     1      27.390   1.692  52.663  1.00  0.00     0.056 A 
ENDBRANCH  16  18
ENDBRANCH   7  16
TORSDOF 2
ENDMDL
MODEL 4
REMARK VINA RESULT:      -8.5      4.032      5.755
REMARK  2 active torsions:
REMARK  status: ('A' for Active; 'I' for Inactive)
REMARK       I    between atoms: C2_2  and  N1_4 
REMARK    1  A    between atoms: C5_7  and  N2_8 
REMARK    2  A    between atoms: N2_8  and  C6_9 
ROOT
HETATM    1  C1  UNL     1      27.433   1.497  53.602  1.00  0.00     0.117 C 
HETATM    2  C2  UNL     1      26.519   0.512  54.182  1.00  0.00     0.220 C 
HETATM    3  O1  UNL     1      27.249  -0.029  55.077  1.00  0.00    -0.274 OA
HETATM    4  N1  UNL     1      25.145   0.098  53.966  1.00  0.00    -0.324 N 
HETATM    5  C3  UNL     1      24.440   0.789  52.919  1.00  0.00     0.112 C 
HETATM    6  C4  UNL     1      23.194   0.883  52.513  1.00  0.00     0.054 A 
HETATM    7  C5  UNL     1      23.248   1.732  51.436  1.00  0.00     0.143 A 
HETATM    8  N3  UNL     1      22.114   2.020  50.804  1.00  0.00    -0.223 NA
HETATM    9  C12 UNL     1      20.938   1.521  51.177  1.00  0.00     0.236 A 
HETATM   10  N4  UNL     1      20.890   0.695  52.230  1.00  0.00    -0.241 NA
HETATM   11  C13 UNL     1      21.989   0.358  52.914  1.00  0.00     0.073 A 
HETATM   12  C14 UNL     1      21.573  -0.456  53.868  1.00  0.00     0.032 C 
HETATM   13  C15 UNL     1      22.221  -1.182  54.957  1.00  0.00    -0.000 C 
HETATM   14  C16 UNL     1      23.521  -1.267  55.224  1.00  0.00    -0.007 C 
HETATM   15  C17 UNL     1      24.904  -0.946  54.931  1.00  0.00     0.158 C 
ENDROOT
BRANCH   7  16
HETATM   16  N2  UNL     1      24.431   2.341  50.945  1.00  0.00    -0.340 N 
HETATM   17  H5  UNL     1      25.388   2.236  50.568  1.00  0.00     0.167 HD
BRANCH  16  18
HETATM   18  C6  UNL     1      24.505   3.773  50.854  1.00  0.00     0.035 A 
HETATM   19  C7  UNL     1      23.813   4.780  51.531  1.00  0.00     0.032 A 
HETATM   20  C8  UNL     1      24.027   6.123  51.323  1.00  0.00     0.046 A 
HETATM   21  C9  UNL     1      24.973   6.506  50.399  1.00  0.00     0.138 A 
HETATM   22  F1  UNL     1      25.110   7.857  50.267  1.00  0.00    -0.204 F 
HETATM   23  C10 UNL     1      25.667   5.548  49.720  1.00  0.00     0.074 A 
HETATM   24 CL1  UNL     1      26.832   6.245  48.582  1.00  0.00    -0.081 Cl
HETATM   25  C11 UNL     1      25.461   4.193  49.921  1.00  0.00     0.056 A 
ENDBRANCH  16  18
ENDBRANCH   7  16
TORSDOF 2
ENDMDL
MODEL 5
REMARK VINA RESULT:      -8.4      2.162      2.876
REMARK  2 active torsions:
REMARK  status: ('A' for Active; 'I' for Inactive)
REMARK       I    between atoms: C2_2  and  N1_4 
REMARK    1  A    between atoms: C5_7  and  N2_8 
REMARK    2  A    between atoms: N2_8  and  C6_9 
ROOT
HETATM    1  C1  UNL     1      25.403   3.935  49.592  1.00  0.00     0.117 C 
HETATM    2  C2  UNL     1      23.994   3.539  49.590  1.00  0.00     0.220 C 
HETATM    3  O1  UNL     1      23.534   4.207  48.605  1.00  0.00    -0.274 OA
HETATM    4  N1  UNL     1      23.147   2.662  50.378  1.00  0.00    -0.324 N 
HETATM    5  C3  UNL     1      23.796   1.977  51.465  1.00  0.00     0.112 C 
HETATM    6  C4  UNL     1      23.496   0.993  52.282  1.00  0.00     0.054 A 
HETATM    7  C5  UNL     1      24.603   0.863  53.083  1.00  0.00     0.143 A 
HETATM    8  N3  UNL     1      24.592  -0.072  54.027  1.00  0.00    -0.223 NA
HETATM    9  C12 UNL     1      23.553  -0.882  54.221  1.00  0.00     0.236 A 
HETATM   10  N4  UNL     1      22.475  -0.753  53.437  1.00  0.00    -0.241 NA
HETATM   11  C13 UNL     1      22.414   0.166  52.467  1.00  0.00     0.073 A 
HETATM   12  C14 UNL     1      21.227   0.007  51.907  1.00  0.00     0.032 C 
HETATM   13  C15 UNL     1      20.511   0.653  50.811  1.00  0.00    -0.000 C 
HETATM   14  C16 UNL     1      20.889   1.710  50.098  1.00  0.00    -0.007 C 
HETATM   15  C17 UNL     1      21.836   2.763  49.786  1.00  0.00     0.158 C 
ENDROOT
BRANCH   7  16
HETATM   16  N2  UNL     1      25.777   1.651  52.972  1.00  0.00    -0.340 N 
HETATM   17  H5  UNL     1      26.211   2.568  52.770  1.00  0.00     0.167 HD
BRANCH  16  18
HETATM   18  C6  UNL     1      27.057   1.056  53.240  1.00  0.00     0.035 A 
HETATM   19  C7  UNL     1      28.248   1.601  53.726  1.00  0.00     0.032 A 
HETATM   20  C8  UNL     1      29.391   0.866  53.937  1.00  0.00     0.046 A 
HETATM   21  C9  UNL     1      29.372  -0.482  53.659  1.00  0.00     0.138 A 
HETATM   22  F1  UNL     1      30.552  -1.121  53.902  1.00  0.00    -0.204 F 
HETATM   23  C10 UNL     1      28.224  -1.047  53.183  1.00  0.00     0.074 A 
HETATM   24 CL1  UNL     1      28.406  -2.785  52.890  1.00  0.00    -0.081 Cl
HETATM   25  C11 UNL     1      27.067  -0.317  52.967  1.00  0.00     0.056 A 
ENDBRANCH  16  18
ENDBRANCH   7  16
TORSDOF 2
ENDMDL
MODEL 6
REMARK VINA RESULT:      -8.4      3.661      5.184
REMARK  2 active torsions:
REMARK  status: ('A' for Active; 'I' for Inactive)
REMARK       I    between atoms: C2_2  and  N1_4 
REMARK    1  A    between atoms: C5_7  and  N2_8 
REMARK    2  A    between atoms: N2_8  and  C6_9 
ROOT
HETATM    1  C1  UNL     1      20.987   0.622  51.064  1.00  0.00     0.117 C 
HETATM    2  C2  UNL     1      21.296   0.100  52.396  1.00  0.00     0.220 C 
HETATM    3  O1  UNL     1      20.175  -0.397  52.750  1.00  0.00    -0.274 OA
HETATM    4  N1  UNL     1      22.461   0.047  53.260  1.00  0.00    -0.324 N 
HETATM    5  C3  UNL     1      23.657   0.653  52.737  1.00  0.00     0.112 C 
HETATM    6  C4  UNL     1      24.930   0.676  53.059  1.00  0.00     0.054 A 
HETATM    7  C5  UNL     1      25.512   1.469  52.101  1.00  0.00     0.143 A 
HETATM    8  N3  UNL     1      26.822   1.681  52.170  1.00  0.00    -0.223 NA
HETATM    9  C12 UNL     1      27.585   1.155  53.126  1.00  0.00     0.236 A 
HETATM   10  N4  UNL     1      27.013   0.382  54.057  1.00  0.00    -0.241 NA
HETATM   11  C13 UNL     1      25.701   0.124  54.054  1.00  0.00     0.073 A 
HETATM   12  C14 UNL     1      25.494  -0.659  55.098  1.00  0.00     0.032 C 
HETATM   13  C15 UNL     1      24.323  -1.309  55.682  1.00  0.00    -0.000 C 
HETATM   14  C16 UNL     1      23.052  -1.192  55.310  1.00  0.00    -0.007 C 
HETATM   15  C17 UNL     1      22.023  -0.639  54.450  1.00  0.00     0.158 C 
ENDROOT
BRANCH   7  16
HETATM   16  N2  UNL     1      24.817   2.077  51.024  1.00  0.00    -0.340 N 
HETATM   17  H5  UNL     1      24.006   2.076  50.383  1.00  0.00     0.167 HD
BRANCH  16  18
HETATM   18  C6  UNL     1      25.344   3.273  50.428  1.00  0.00     0.035 A 
HETATM   19  C7  UNL     1      26.374   3.471  49.506  1.00  0.00     0.032 A 
HETATM   20  C8  UNL     1      26.740   4.707  49.025  1.00  0.00     0.046 A 
HETATM   21  C9  UNL     1      26.058   5.817  49.470  1.00  0.00     0.138 A 
HETATM   22  F1  UNL     1      26.494   6.993  48.935  1.00  0.00    -0.204 F 
HETATM   23  C10 UNL     1      25.045   5.660  50.370  1.00  0.00     0.074 A 
HETATM   24 CL1  UNL     1      24.298   7.203  50.814  1.00  0.00    -0.081 Cl
HETATM   25  C11 UNL     1      24.668   4.420  50.861  1.00  0.00     0.056 A 
ENDBRANCH  16  18
ENDBRANCH   7  16
TORSDOF 2
ENDMDL
MODEL 7
REMARK VINA RESULT:      -8.4      3.435      4.609
REMARK  2 active torsions:
REMARK  status: ('A' for Active; 'I' for Inactive)
REMARK       I    between atoms: C2_2  and  N1_4 
REMARK    1  A    between atoms: C5_7  and  N2_8 
REMARK    2  A    between atoms: N2_8  and  C6_9 
ROOT
HETATM    1  C1  UNL     1      20.307   1.097  49.885  1.00  0.00     0.117 C 
HETATM    2  C2  UNL     1      20.254   0.472  51.207  1.00  0.00     0.220 C 
HETATM    3  O1  UNL     1      19.039   0.085  51.266  1.00  0.00    -0.274 OA
HETATM    4  N1  UNL     1      21.180   0.243  52.300  1.00  0.00    -0.324 N 
HETATM    5  C3  UNL     1      22.517   0.740  52.102  1.00  0.00     0.112 C 
HETATM    6  C4  UNL     1      23.679   0.604  52.698  1.00  0.00     0.054 A 
HETATM    7  C5  UNL     1      24.537   1.378  51.957  1.00  0.00     0.143 A 
HETATM    8  N3  UNL     1      25.812   1.439  52.329  1.00  0.00    -0.223 NA
HETATM    9  C12 UNL     1      26.283   0.780  53.386  1.00  0.00     0.236 A 
HETATM   10  N4  UNL     1      25.443   0.025  54.105  1.00  0.00    -0.241 NA
HETATM   11  C13 UNL     1      24.147  -0.084  53.793  1.00  0.00     0.073 A 
HETATM   12  C14 UNL     1      23.634  -0.894  54.702  1.00  0.00     0.032 C 
HETATM   13  C15 UNL     1      22.304  -1.441  54.960  1.00  0.00    -0.000 C 
HETATM   14  C16 UNL     1      21.168  -1.163  54.327  1.00  0.00    -0.007 C 
HETATM   15  C17 UNL     1      20.419  -0.453  53.307  1.00  0.00     0.158 C 
ENDROOT
BRANCH   7  16
HETATM   16  N2  UNL     1      24.167   2.117  50.804  1.00  0.00    -0.340 N 
HETATM   17  H5  UNL     1      23.766   2.126  49.851  1.00  0.00     0.167 HD
BRANCH  16  18
HETATM   18  C6  UNL     1      24.368   3.539  50.781  1.00  0.00     0.035 A 
HETATM   19  C7  UNL     1      23.782   4.569  51.520  1.00  0.00     0.032 A 
HETATM   20  C8  UNL     1      24.111   5.896  51.373  1.00  0.00     0.046 A 
HETATM   21  C9  UNL     1      25.073   6.239  50.449  1.00  0.00     0.138 A 
HETATM   22  F1  UNL     1      25.328   7.577  50.379  1.00  0.00    -0.204 F 
HETATM   23  C10 UNL     1      25.666   5.258  49.710  1.00  0.00     0.074 A 
HETATM   24 CL1  UNL     1      26.870   5.905  48.583  1.00  0.00    -0.081 Cl
HETATM   25  C11 UNL     1      25.342   3.919  49.850  1.00  0.00     0.056 A 
ENDBRANCH  16  18
ENDBRANCH   7  16
TORSDOF 2
ENDMDL
MODEL 8
REMARK VINA RESULT:      -8.2      4.247      7.310
REMARK  2 active torsions:
REMARK  status: ('A' for Active; 'I' for Inactive)
REMARK       I    between atoms: C2_2  and  N1_4 
REMARK    1  A    between atoms: C5_7  and  N2_8 
REMARK    2  A    between atoms: N2_8  and  C6_9 
ROOT
HETATM    1  C1  UNL     1      21.327  -0.825  54.797  1.00  0.00     0.117 C 
HETATM    2  C2  UNL     1      22.786  -0.904  54.720  1.00  0.00     0.220 C 
HETATM    3  O1  UNL     1      23.040  -1.868  55.517  1.00  0.00    -0.274 OA
HETATM    4  N1  UNL     1      23.841  -0.200  54.015  1.00  0.00    -0.324 N 
HETATM    5  C3  UNL     1      23.413   0.871  53.155  1.00  0.00     0.112 C 
HETATM    6  C4  UNL     1      23.959   1.620  52.224  1.00  0.00     0.054 A 
HETATM    7  C5  UNL     1      22.948   2.455  51.818  1.00  0.00     0.143 A 
HETATM    8  N3  UNL     1      23.210   3.344  50.865  1.00  0.00    -0.223 NA
HETATM    9  C12 UNL     1      24.408   3.452  50.295  1.00  0.00     0.236 A 
HETATM   10  N4  UNL     1      25.391   2.635  50.693  1.00  0.00    -0.241 NA
HETATM   11  C13 UNL     1      25.203   1.716  51.646  1.00  0.00     0.073 A 
HETATM   12  C14 UNL     1      26.366   1.102  51.777  1.00  0.00     0.032 C 
HETATM   13  C15 UNL     1      26.869   0.017  52.615  1.00  0.00    -0.000 C 
HETATM   14  C16 UNL     1      26.235  -0.621  53.595  1.00  0.00    -0.007 C 
HETATM   15  C17 UNL     1      25.067  -0.837  54.428  1.00  0.00     0.158 C 
ENDROOT
BRANCH   7  16
HETATM   16  N2  UNL     1      21.627   2.434  52.334  1.00  0.00    -0.340 N 
HETATM   17  H5  UNL     1      20.973   2.674  53.097  1.00  0.00     0.167 HD
BRANCH  16  18
HETATM   18  C6  UNL     1      20.572   1.848  51.554  1.00  0.00     0.035 A 
HETATM   19  C7  UNL     1      20.166   2.063  50.236  1.00  0.00     0.032 A 
HETATM   20  C8  UNL     1      19.126   1.389  49.639  1.00  0.00     0.046 A 
HETATM   21  C9  UNL     1      18.441   0.447  50.374  1.00  0.00     0.138 A 
HETATM   22  F1  UNL     1      17.430  -0.165  49.694  1.00  0.00    -0.204 F 
HETATM   23  C10 UNL     1      18.812   0.211  51.665  1.00  0.00     0.074 A 
HETATM   24 CL1  UNL     1      17.810  -1.031  52.433  1.00  0.00    -0.081 Cl
HETATM   25  C11 UNL     1      19.858   0.884  52.276  1.00  0.00     0.056 A 
ENDBRANCH  16  18
ENDBRANCH   7  16
TORSDOF 2
ENDMDL
MODEL 9
REMARK VINA RESULT:      -7.7      4.314      6.840
REMARK  2 active torsions:
REMARK  status: ('A' for Active; 'I' for Inactive)
REMARK       I    between atoms: C2_2  and  N1_4 
REMARK    1  A    between atoms: C5_7  and  N2_8 
REMARK    2  A    between atoms: N2_8  and  C6_9 
ROOT
HETATM    1  C1  UNL     1      21.970   5.258  51.606  1.00  0.00     0.117 C 
HETATM    2  C2  UNL     1      23.278   4.757  51.183  1.00  0.00     0.220 C 
HETATM    3  O1  UNL     1      23.749   5.757  50.546  1.00  0.00    -0.274 OA
HETATM    4  N1  UNL     1      24.028   3.524  51.328  1.00  0.00    -0.324 N 
HETATM    5  C3  UNL     1      23.372   2.474  52.064  1.00  0.00     0.112 C 
HETATM    6  C4  UNL     1      23.718   1.320  52.585  1.00  0.00     0.054 A 
HETATM    7  C5  UNL     1      22.564   0.840  53.152  1.00  0.00     0.143 A 
HETATM    8  N3  UNL     1      22.606  -0.339  53.766  1.00  0.00    -0.223 NA
HETATM    9  C12 UNL     1      23.719  -1.064  53.851  1.00  0.00     0.236 A 
HETATM   10  N4  UNL     1      24.843  -0.591  53.297  1.00  0.00    -0.241 NA
HETATM   11  C13 UNL     1      24.878   0.586  52.663  1.00  0.00     0.073 A 
HETATM   12  C14 UNL     1      26.126   0.727  52.253  1.00  0.00     0.032 C 
HETATM   13  C15 UNL     1      26.858   1.753  51.515  1.00  0.00    -0.000 C 
HETATM   14  C16 UNL     1      26.375   2.861  50.958  1.00  0.00    -0.007 C 
HETATM   15  C17 UNL     1      25.276   3.752  50.642  1.00  0.00     0.158 C 
ENDROOT
BRANCH   7  16
HETATM   16  N2  UNL     1      21.317   1.517  53.143  1.00  0.00    -0.340 N 
HETATM   17  H5  UNL     1      20.727   2.286  53.503  1.00  0.00     0.167 HD
BRANCH  16  18
HETATM   18  C6  UNL     1      20.266   1.054  52.280  1.00  0.00     0.035 A 
HETATM   19  C7  UNL     1      19.935   1.387  50.965  1.00  0.00     0.032 A 
HETATM   20  C8  UNL     1      18.885   0.824  50.278  1.00  0.00     0.046 A 
HETATM   21  C9  UNL     1      18.112  -0.122  50.912  1.00  0.00     0.138 A 
HETATM   22  F1  UNL     1      17.098  -0.620  50.148  1.00  0.00    -0.204 F 
HETATM   23  C10 UNL     1      18.408  -0.471  52.198  1.00  0.00     0.074 A 
HETATM   24 CL1  UNL     1      17.299  -1.699  52.830  1.00  0.00    -0.081 Cl
HETATM   25  C11 UNL     1      19.463   0.089  52.899  1.00  0.00     0.056 A 
ENDBRANCH  16  18
ENDBRANCH   7  16
TORSDOF 2
ENDMDL
