MODEL 1
REMARK VINA RESULT:      -9.4      0.000      0.000
REMARK  7 active torsions:
REMARK  status: ('A' for Active; 'I' for Inactive)
REMARK    1  A    between atoms: O1_2  and  C2_3 
REMARK    2  A    between atoms: C4_5  and  O2_6 
REMARK    3  A    between atoms: O2_6  and  C5_7 
REMARK    4  A    between atoms: N1_10  and  C8_11 
REMARK    5  A    between atoms: C8_11  and  O3_13 
REMARK    6  A    between atoms: C12_16  and  N2_17 
REMARK    7  A    between atoms: N2_17  and  C13_18 
ROOT
HETATM    1  C2  UNL     1      19.800  -0.203  52.722  1.00  0.00     0.073 A 
HETATM    2  C3  UNL     1      20.725   0.479  51.949  1.00  0.00     0.074 A 
HETATM    3  C4  UNL     1      22.079   0.543  52.193  1.00  0.00     0.088 A 
HETATM    4  C11 UNL     1      22.492  -0.144  53.311  1.00  0.00     0.072 A 
HETATM    5  C12 UNL     1      23.817  -0.152  53.665  1.00  0.00     0.144 A 
HETATM    6  N3  UNL     1      24.180  -0.829  54.766  1.00  0.00    -0.223 NA
HETATM    7  C19 UNL     1      23.329  -1.498  55.539  1.00  0.00     0.236 A 
HETATM    8  N4  UNL     1      22.027  -1.496  55.198  1.00  0.00    -0.241 NA
HETATM    9  C20 UNL     1      21.584  -0.838  54.108  1.00  0.00     0.077 A 
HETATM   10  C21 UNL     1      20.234  -0.886  53.840  1.00  0.00     0.069 A 
ENDROOT
BRANCH   3  11
HETATM   11  O2  UNL     1      22.956   1.226  51.405  1.00  0.00    -0.343 OA
BRANCH  11  12
HETATM   12  C5  UNL     1      22.723   2.483  50.862  1.00  0.00     0.159 C 
HETATM   13  C6  UNL     1      23.749   2.798  49.777  1.00  0.00     0.064 C 
HETATM   14  C7  UNL     1      24.683   3.774  50.398  1.00  0.00     0.278 C 
HETATM   15  N1  UNL     1      24.085   4.325  51.564  1.00  0.00     0.119 N 
HETATM   16  C10 UNL     1      22.865   3.606  51.836  1.00  0.00     0.307 C 
BRANCH  15  17
HETATM   17  C8  UNL     1      23.897   5.751  51.558  1.00  0.00     0.352 C 
HETATM   18  C9  UNL     1      24.681   6.493  50.530  1.00  0.00     0.073 C 
BRANCH  17  19
HETATM   19  O3  UNL     1      24.250   6.265  52.801  1.00  0.00    -0.368 OA
HETATM   20  H14 UNL     1      23.964   7.197  52.858  1.00  0.00     0.212 HD
ENDBRANCH  17  19
ENDBRANCH  15  17
ENDBRANCH  11  12
ENDBRANCH   3  11
BRANCH   1  21
HETATM   21  O1  UNL     1      18.446  -0.228  52.419  1.00  0.00    -0.356 OA
HETATM   22  C1  UNL     1      17.591  -1.223  52.939  1.00  0.00     0.210 C 
ENDBRANCH   1  21
BRANCH   5  23
HETATM   23  N2  UNL     1      24.845   0.489  52.936  1.00  0.00    -0.340 N 
HETATM   24  H17 UNL     1      24.959   1.222  52.214  1.00  0.00     0.167 HD
BRANCH  23  25
HETATM   25  C13 UNL     1      26.229   0.150  53.123  1.00  0.00     0.035 A 
HETATM   26  C14 UNL     1      26.867  -1.051  52.813  1.00  0.00     0.032 A 
HETATM   27  C15 UNL     1      28.206  -1.278  53.010  1.00  0.00     0.046 A 
HETATM   28  C16 UNL     1      28.981  -0.270  53.545  1.00  0.00     0.138 A 
HETATM   29  F1  UNL     1      30.293  -0.552  53.715  1.00  0.00    -0.204 F 
HETATM   30  C17 UNL     1      28.406   0.937  53.870  1.00  0.00     0.074 A 
HETATM   31 CL1  UNL     1      29.508   2.118  54.539  1.00  0.00    -0.081 Cl
HETATM   32  C18 UNL     1      27.036   1.147  53.660  1.00  0.00     0.056 A 
ENDBRANCH  23  25
ENDBRANCH   5  23
TORSDOF 7
ENDMDL
MODEL 2
REMARK VINA RESULT:      -8.5      3.309      6.048
REMARK  7 active torsions:
REMARK  status: ('A' for Active; 'I' for Inactive)
REMARK    1  A    between atoms: O1_2  and  C2_3 
REMARK    2  A    between atoms: C4_5  and  O2_6 
REMARK    3  A    between atoms: O2_6  and  C5_7 
REMARK    4  A    between atoms: N1_10  and  C8_11 
REMARK    5  A    between atoms: C8_11  and  O3_13 
REMARK    6  A    between atoms: C12_16  and  N2_17 
REMARK    7  A    between atoms: N2_17  and  C13_18 
ROOT
HETATM    1  C2  UNL     1      22.384  -0.087  52.633  1.00  0.00     0.073 A 
HETATM    2  C3  UNL     1      23.480   0.623  53.094  1.00  0.00     0.074 A 
HETATM    3  C4  UNL     1      23.968   1.787  52.543  1.00  0.00     0.088 A 
HETATM    4  C11 UNL     1      23.272   2.237  51.445  1.00  0.00     0.072 A 
HETATM    5  C12 UNL     1      23.664   3.383  50.803  1.00  0.00     0.144 A 
HETATM    6  N3  UNL     1      22.962   3.787  49.732  1.00  0.00    -0.223 NA
HETATM    7  C19 UNL     1      21.903   3.140  49.252  1.00  0.00     0.236 A 
HETATM    8  N4  UNL     1      21.513   2.014  49.877  1.00  0.00    -0.241 NA
HETATM    9  C20 UNL     1      22.166   1.544  50.959  1.00  0.00     0.077 A 
HETATM   10  C21 UNL     1      21.699   0.381  51.530  1.00  0.00     0.069 A 
ENDROOT
BRANCH   3  11
HETATM   11  O2  UNL     1      25.052   2.455  53.030  1.00  0.00    -0.343 OA
BRANCH  11  12
HETATM   12  C5  UNL     1      26.373   2.070  52.841  1.00  0.00     0.159 C 
HETATM   13  C6  UNL     1      26.480   1.051  51.711  1.00  0.00     0.064 C 
HETATM   14  C7  UNL     1      26.705  -0.255  52.385  1.00  0.00     0.278 C 
HETATM   15  N1  UNL     1      27.112  -0.030  53.728  1.00  0.00     0.119 N 
HETATM   16  C10 UNL     1      26.983   1.377  54.016  1.00  0.00     0.307 C 
BRANCH  15  17
HETATM   17  C8  UNL     1      28.405  -0.550  54.086  1.00  0.00     0.352 C 
HETATM   18  C9  UNL     1      29.566   0.290  53.680  1.00  0.00     0.073 C 
BRANCH  17  19
HETATM   19  O3  UNL     1      28.572  -1.801  53.502  1.00  0.00    -0.368 OA
HETATM   20  H14 UNL     1      29.526  -1.993  53.417  1.00  0.00     0.212 HD
ENDBRANCH  17  19
ENDBRANCH  15  17
ENDBRANCH  11  12
ENDBRANCH   3  11
BRANCH   1  21
HETATM   21  O1  UNL     1      21.942  -1.256  53.236  1.00  0.00    -0.356 OA
HETATM   22  C1  UNL     1      22.070  -1.464  54.626  1.00  0.00     0.210 C 
ENDBRANCH   1  21
BRANCH   5  23
HETATM   23  N2  UNL     1      24.751   4.195  51.203  1.00  0.00    -0.340 N 
HETATM   24  H17 UNL     1      25.162   4.591  52.066  1.00  0.00     0.167 HD
BRANCH  23  25
HETATM   25  C13 UNL     1      25.687   4.727  50.251  1.00  0.00     0.035 A 
HETATM   26  C14 UNL     1      26.710   4.052  49.584  1.00  0.00     0.032 A 
HETATM   27  C15 UNL     1      27.546   4.643  48.671  1.00  0.00     0.046 A 
HETATM   28  C16 UNL     1      27.380   5.982  48.384  1.00  0.00     0.138 A 
HETATM   29  F1  UNL     1      28.233   6.509  47.476  1.00  0.00    -0.204 F 
HETATM   30  C17 UNL     1      26.387   6.699  49.011  1.00  0.00     0.074 A 
HETATM   31 CL1  UNL     1      26.295   8.383  48.550  1.00  0.00    -0.081 Cl
HETATM   32  C18 UNL     1      25.544   6.075  49.941  1.00  0.00     0.056 A 
ENDBRANCH  23  25
ENDBRANCH   5  23
TORSDOF 7
ENDMDL
MODEL 3
REMARK VINA RESULT:      -8.4      4.179      6.583
REMARK  7 active torsions:
REMARK  status: ('A' for Active; 'I' for Inactive)
REMARK    1  A    between atoms: O1_2  and  C2_3 
REMARK    2  A    between atoms: C4_5  and  O2_6 
REMARK    3  A    between atoms: O2_6  and  C5_7 
REMARK    4  A    between atoms: N1_10  and  C8_11 
REMARK    5  A    between atoms: C8_11  and  O3_13 
REMARK    6  A    between atoms: C12_16  and  N2_17 
REMARK    7  A    between atoms: N2_17  and  C13_18 
ROOT
HETATM    1  C2  UNL     1      25.935  -0.196  54.564  1.00  0.00     0.073 A 
HETATM    2  C3  UNL     1      25.670   0.514  53.406  1.00  0.00     0.074 A 
HETATM    3  C4  UNL     1      24.449   0.586  52.773  1.00  0.00     0.088 A 
HETATM    4  C11 UNL     1      23.445  -0.127  53.385  1.00  0.00     0.072 A 
HETATM    5  C12 UNL     1      22.183  -0.140  52.848  1.00  0.00     0.144 A 
HETATM    6  N3  UNL     1      21.231  -0.852  53.472  1.00  0.00    -0.223 NA
HETATM    7  C19 UNL     1      21.436  -1.549  54.586  1.00  0.00     0.236 A 
HETATM    8  N4  UNL     1      22.672  -1.541  55.119  1.00  0.00    -0.241 NA
HETATM    9  C20 UNL     1      23.681  -0.851  54.551  1.00  0.00     0.077 A 
HETATM   10  C21 UNL     1      24.914  -0.905  55.164  1.00  0.00     0.069 A 
ENDROOT
BRANCH   3  11
HETATM   11  O2  UNL     1      24.232   1.299  51.632  1.00  0.00    -0.343 OA
BRANCH  11  12
HETATM   12  C5  UNL     1      24.407   2.671  51.506  1.00  0.00     0.159 C 
HETATM   13  C6  UNL     1      23.304   3.277  50.645  1.00  0.00     0.064 C 
HETATM   14  C7  UNL     1      23.947   3.565  49.335  1.00  0.00     0.278 C 
HETATM   15  N1  UNL     1      25.359   3.542  49.487  1.00  0.00     0.119 N 
HETATM   16  C10 UNL     1      25.670   3.065  50.812  1.00  0.00     0.307 C 
BRANCH  15  17
HETATM   17  C8  UNL     1      26.044   4.766  49.166  1.00  0.00     0.352 C 
HETATM   18  C9  UNL     1      27.479   4.616  48.793  1.00  0.00     0.073 C 
BRANCH  17  19
HETATM   19  O3  UNL     1      25.986   5.624  50.259  1.00  0.00    -0.368 OA
HETATM   20  H14 UNL     1      26.678   6.307  50.171  1.00  0.00     0.212 HD
ENDBRANCH  17  19
ENDBRANCH  15  17
ENDBRANCH  11  12
ENDBRANCH   3  11
BRANCH   1  21
HETATM   21  O1  UNL     1      27.191  -0.226  55.153  1.00  0.00    -0.356 OA
HETATM   22  C1  UNL     1      28.294   0.438  54.574  1.00  0.00     0.210 C 
ENDBRANCH   1  21
BRANCH   5  23
HETATM   23  N2  UNL     1      21.799   0.567  51.685  1.00  0.00    -0.340 N 
HETATM   24  H17 UNL     1      22.196   0.860  50.775  1.00  0.00     0.167 HD
BRANCH  23  25
HETATM   25  C13 UNL     1      20.483   1.127  51.540  1.00  0.00     0.035 A 
HETATM   26  C14 UNL     1      20.020   2.359  52.002  1.00  0.00     0.032 A 
HETATM   27  C15 UNL     1      18.744   2.821  51.797  1.00  0.00     0.046 A 
HETATM   28  C16 UNL     1      17.855   2.034  51.096  1.00  0.00     0.138 A 
HETATM   29  F1  UNL     1      16.614   2.542  50.925  1.00  0.00    -0.204 F 
HETATM   30  C17 UNL     1      18.257   0.809  50.616  1.00  0.00     0.074 A 
HETATM   31 CL1  UNL     1      17.025  -0.079  49.748  1.00  0.00    -0.081 Cl
HETATM   32  C18 UNL     1      19.565   0.357  50.836  1.00  0.00     0.056 A 
ENDBRANCH  23  25
ENDBRANCH   5  23
TORSDOF 7
ENDMDL
MODEL 4
REMARK VINA RESULT:      -8.0      4.025      7.897
REMARK  7 active torsions:
REMARK  status: ('A' for Active; 'I' for Inactive)
REMARK    1  A    between atoms: O1_2  and  C2_3 
REMARK    2  A    between atoms: C4_5  and  O2_6 
REMARK    3  A    between atoms: O2_6  and  C5_7 
REMARK    4  A    between atoms: N1_10  and  C8_11 
REMARK    5  A    between atoms: C8_11  and  O3_13 
REMARK    6  A    between atoms: C12_16  and  N2_17 
REMARK    7  A    between atoms: N2_17  and  C13_18 
ROOT
HETATM    1  C2  UNL     1      26.888   5.103  48.873  1.00  0.00     0.073 A 
HETATM    2  C3  UNL     1      26.761   3.968  49.654  1.00  0.00     0.074 A 
HETATM    3  C4  UNL     1      25.731   3.713  50.534  1.00  0.00     0.088 A 
HETATM    4  C11 UNL     1      24.779   4.704  50.602  1.00  0.00     0.072 A 
HETATM    5  C12 UNL     1      23.706   4.571  51.446  1.00  0.00     0.144 A 
HETATM    6  N3  UNL     1      22.802   5.562  51.489  1.00  0.00    -0.223 NA
HETATM    7  C19 UNL     1      22.880   6.671  50.757  1.00  0.00     0.236 A 
HETATM    8  N4  UNL     1      23.930   6.807  49.927  1.00  0.00    -0.241 NA
HETATM    9  C20 UNL     1      24.881   5.857  49.828  1.00  0.00     0.077 A 
HETATM   10  C21 UNL     1      25.923   6.086  48.956  1.00  0.00     0.069 A 
ENDROOT
BRANCH   3  11
HETATM   11  O2  UNL     1      25.644   2.580  51.285  1.00  0.00    -0.343 OA
BRANCH  11  12
HETATM   12  C5  UNL     1      26.717   1.761  51.616  1.00  0.00     0.159 C 
HETATM   13  C6  UNL     1      26.267   0.308  51.737  1.00  0.00     0.064 C 
HETATM   14  C7  UNL     1      26.233   0.033  53.198  1.00  0.00     0.278 C 
HETATM   15  N1  UNL     1      26.971   1.035  53.885  1.00  0.00     0.119 N 
HETATM   16  C10 UNL     1      27.332   2.064  52.943  1.00  0.00     0.307 C 
BRANCH  15  17
HETATM   17  C8  UNL     1      28.094   0.569  54.653  1.00  0.00     0.352 C 
HETATM   18  C9  UNL     1      29.417   1.125  54.250  1.00  0.00     0.073 C 
BRANCH  17  19
HETATM   19  O3  UNL     1      28.177  -0.815  54.551  1.00  0.00    -0.368 OA
HETATM   20  H14 UNL     1      27.623  -1.224  55.244  1.00  0.00     0.212 HD
ENDBRANCH  17  19
ENDBRANCH  15  17
ENDBRANCH  11  12
ENDBRANCH   3  11
BRANCH   1  21
HETATM   21  O1  UNL     1      27.953   5.298  48.004  1.00  0.00    -0.356 OA
HETATM   22  C1  UNL     1      29.215   5.727  48.466  1.00  0.00     0.210 C 
ENDBRANCH   1  21
BRANCH   5  23
HETATM   23  N2  UNL     1      23.468   3.446  52.269  1.00  0.00    -0.340 N 
HETATM   24  H17 UNL     1      23.830   3.014  53.136  1.00  0.00     0.167 HD
BRANCH  23  25
HETATM   25  C13 UNL     1      22.438   2.491  51.962  1.00  0.00     0.035 A 
HETATM   26  C14 UNL     1      22.586   1.138  51.655  1.00  0.00     0.032 A 
HETATM   27  C15 UNL     1      21.536   0.294  51.395  1.00  0.00     0.046 A 
HETATM   28  C16 UNL     1      20.252   0.797  51.435  1.00  0.00     0.138 A 
HETATM   29  F1  UNL     1      19.258  -0.082  51.171  1.00  0.00    -0.204 F 
HETATM   30  C17 UNL     1      20.045   2.124  51.733  1.00  0.00     0.074 A 
HETATM   31 CL1  UNL     1      18.368   2.620  51.747  1.00  0.00    -0.081 Cl
HETATM   32  C18 UNL     1      21.132   2.968  51.996  1.00  0.00     0.056 A 
ENDBRANCH  23  25
ENDBRANCH   5  23
TORSDOF 7
ENDMDL
MODEL 5
REMARK VINA RESULT:      -7.9      2.090      2.601
REMARK  7 active torsions:
REMARK  status: ('A' for Active; 'I' for Inactive)
REMARK    1  A    between atoms: O1_2  and  C2_3 
REMARK    2  A    between atoms: C4_5  and  O2_6 
REMARK    3  A    between atoms: O2_6  and  C5_7 
REMARK    4  A    between atoms: N1_10  and  C8_11 
REMARK    5  A    between atoms: C8_11  and  O3_13 
REMARK    6  A    between atoms: C12_16  and  N2_17 
REMARK    7  A    between atoms: N2_17  and  C13_18 
ROOT
HETATM    1  C2  UNL     1      19.534   1.981  50.048  1.00  0.00     0.073 A 
HETATM    2  C3  UNL     1      20.677   2.758  50.132  1.00  0.00     0.074 A 
HETATM    3  C4  UNL     1      21.689   2.596  51.053  1.00  0.00     0.088 A 
HETATM    4  C11 UNL     1      21.495   1.562  51.939  1.00  0.00     0.072 A 
HETATM    5  C12 UNL     1      22.428   1.302  52.910  1.00  0.00     0.144 A 
HETATM    6  N3  UNL     1      22.200   0.289  53.760  1.00  0.00    -0.223 NA
HETATM    7  C19 UNL     1      21.119  -0.485  53.719  1.00  0.00     0.236 A 
HETATM    8  N4  UNL     1      20.198  -0.236  52.769  1.00  0.00    -0.241 NA
HETATM    9  C20 UNL     1      20.354   0.764  51.880  1.00  0.00     0.077 A 
HETATM   10  C21 UNL     1      19.358   0.949  50.946  1.00  0.00     0.069 A 
ENDROOT
BRANCH   3  11
HETATM   11  O2  UNL     1      22.799   3.384  51.100  1.00  0.00    -0.343 OA
BRANCH  11  12
HETATM   12  C5  UNL     1      23.326   4.081  50.020  1.00  0.00     0.159 C 
HETATM   13  C6  UNL     1      24.617   3.429  49.537  1.00  0.00     0.064 C 
HETATM   14  C7  UNL     1      25.706   4.318  50.020  1.00  0.00     0.278 C 
HETATM   15  N1  UNL     1      25.160   5.579  50.383  1.00  0.00     0.119 N 
HETATM   16  C10 UNL     1      23.722   5.487  50.333  1.00  0.00     0.307 C 
BRANCH  15  17
HETATM   17  C8  UNL     1      25.667   6.714  49.659  1.00  0.00     0.352 C 
HETATM   18  C9  UNL     1      25.239   6.804  48.234  1.00  0.00     0.073 C 
BRANCH  17  19
HETATM   19  O3  UNL     1      27.058   6.683  49.674  1.00  0.00    -0.368 OA
HETATM   20  H14 UNL     1      27.358   5.776  49.881  1.00  0.00     0.212 HD
ENDBRANCH  17  19
ENDBRANCH  15  17
ENDBRANCH  11  12
ENDBRANCH   3  11
BRANCH   1  21
HETATM   21  O1  UNL     1      18.551   2.197  49.092  1.00  0.00    -0.356 OA
HETATM   22  C1  UNL     1      17.219   1.781  49.296  1.00  0.00     0.210 C 
ENDBRANCH   1  21
BRANCH   5  23
HETATM   23  N2  UNL     1      23.639   2.017  53.070  1.00  0.00    -0.340 N 
HETATM   24  H17 UNL     1      23.966   2.984  53.235  1.00  0.00     0.167 HD
BRANCH  23  25
HETATM   25  C13 UNL     1      24.916   1.360  53.018  1.00  0.00     0.035 A 
HETATM   26  C14 UNL     1      25.188   0.042  52.648  1.00  0.00     0.032 A 
HETATM   27  C15 UNL     1      26.451  -0.494  52.609  1.00  0.00     0.046 A 
HETATM   28  C16 UNL     1      27.524   0.301  52.954  1.00  0.00     0.138 A 
HETATM   29  F1  UNL     1      28.742  -0.283  52.896  1.00  0.00    -0.204 F 
HETATM   30  C17 UNL     1      27.315   1.609  53.327  1.00  0.00     0.074 A 
HETATM   31 CL1  UNL     1      28.766   2.495  53.737  1.00  0.00    -0.081 Cl
HETATM   32  C18 UNL     1      26.017   2.137  53.359  1.00  0.00     0.056 A 
ENDBRANCH  23  25
ENDBRANCH   5  23
TORSDOF 7
ENDMDL
MODEL 6
REMARK VINA RESULT:      -7.8      3.508      5.731
REMARK  7 active torsions:
REMARK  status: ('A' for Active; 'I' for Inactive)
REMARK    1  A    between atoms: O1_2  and  C2_3 
REMARK    2  A    between atoms: C4_5  and  O2_6 
REMARK    3  A    between atoms: O2_6  and  C5_7 
REMARK    4  A    between atoms: N1_10  and  C8_11 
REMARK    5  A    between atoms: C8_11  and  O3_13 
REMARK    6  A    between atoms: C12_16  and  N2_17 
REMARK    7  A    between atoms: N2_17  and  C13_18 
ROOT
HETATM    1  C2  UNL     1      23.324  -0.446  53.773  1.00  0.00     0.073 A 
HETATM    2  C3  UNL     1      22.698   0.254  52.756  1.00  0.00     0.074 A 
HETATM    3  C4  UNL     1      23.310   1.152  51.909  1.00  0.00     0.088 A 
HETATM    4  C11 UNL     1      24.654   1.330  52.138  1.00  0.00     0.072 A 
HETATM    5  C12 UNL     1      25.375   2.203  51.365  1.00  0.00     0.144 A 
HETATM    6  N3  UNL     1      26.684   2.353  51.623  1.00  0.00    -0.223 NA
HETATM    7  C19 UNL     1      27.330   1.703  52.587  1.00  0.00     0.236 A 
HETATM    8  N4  UNL     1      26.628   0.844  53.350  1.00  0.00    -0.241 NA
HETATM    9  C20 UNL     1      25.311   0.639  53.154  1.00  0.00     0.077 A 
HETATM   10  C21 UNL     1      24.674  -0.254  53.987  1.00  0.00     0.069 A 
ENDROOT
BRANCH   3  11
HETATM   11  O2  UNL     1      22.654   1.821  50.919  1.00  0.00    -0.343 OA
BRANCH  11  12
HETATM   12  C5  UNL     1      21.487   1.387  50.305  1.00  0.00     0.159 C 
HETATM   13  C6  UNL     1      21.725   1.124  48.821  1.00  0.00     0.064 C 
HETATM   14  C7  UNL     1      21.095   2.271  48.117  1.00  0.00     0.278 C 
HETATM   15  N1  UNL     1      20.210   2.942  49.003  1.00  0.00     0.119 N 
HETATM   16  C10 UNL     1      20.377   2.388  50.324  1.00  0.00     0.307 C 
BRANCH  15  17
HETATM   17  C8  UNL     1      18.831   2.990  48.595  1.00  0.00     0.352 C 
HETATM   18  C9  UNL     1      17.907   2.110  49.365  1.00  0.00     0.073 C 
BRANCH  17  19
HETATM   19  O3  UNL     1      18.737   2.622  47.257  1.00  0.00    -0.368 OA
HETATM   20  H14 UNL     1      17.894   2.150  47.110  1.00  0.00     0.212 HD
ENDBRANCH  17  19
ENDBRANCH  15  17
ENDBRANCH  11  12
ENDBRANCH   3  11
BRANCH   1  21
HETATM   21  O1  UNL     1      22.648  -1.340  54.592  1.00  0.00    -0.356 OA
HETATM   22  C1  UNL     1      21.285  -1.641  54.390  1.00  0.00     0.210 C 
ENDBRANCH   1  21
BRANCH   5  23
HETATM   23  N2  UNL     1      24.842   2.949  50.288  1.00  0.00    -0.340 N 
HETATM   24  H17 UNL     1      24.286   2.803  49.428  1.00  0.00     0.167 HD
BRANCH  23  25
HETATM   25  C13 UNL     1      25.025   4.372  50.191  1.00  0.00     0.035 A 
HETATM   26  C14 UNL     1      24.373   5.371  50.914  1.00  0.00     0.032 A 
HETATM   27  C15 UNL     1      24.630   6.711  50.767  1.00  0.00     0.046 A 
HETATM   28  C16 UNL     1      25.585   7.110  49.854  1.00  0.00     0.138 A 
HETATM   29  F1  UNL     1      25.795   8.442  49.754  1.00  0.00    -0.204 F 
HETATM   30  C17 UNL     1      26.260   6.168  49.114  1.00  0.00     0.074 A 
HETATM   31 CL1  UNL     1      27.439   6.818  47.998  1.00  0.00    -0.081 Cl
HETATM   32  C18 UNL     1      25.982   4.804  49.281  1.00  0.00     0.056 A 
ENDBRANCH  23  25
ENDBRANCH   5  23
TORSDOF 7
ENDMDL
MODEL 7
REMARK VINA RESULT:      -7.5      3.316      5.995
REMARK  7 active torsions:
REMARK  status: ('A' for Active; 'I' for Inactive)
REMARK    1  A    between atoms: O1_2  and  C2_3 
REMARK    2  A    between atoms: C4_5  and  O2_6 
REMARK    3  A    between atoms: O2_6  and  C5_7 
REMARK    4  A    between atoms: N1_10  and  C8_11 
REMARK    5  A    between atoms: C8_11  and  O3_13 
REMARK    6  A    between atoms: C12_16  and  N2_17 
REMARK    7  A    between atoms: N2_17  and  C13_18 
ROOT
HETATM    1  C2  UNL     1      20.484   1.054  51.585  1.00  0.00     0.073 A 
HETATM    2  C3  UNL     1      21.768   1.279  52.051  1.00  0.00     0.074 A 
HETATM    3  C4  UNL     1      22.455   2.470  51.959  1.00  0.00     0.088 A 
HETATM    4  C11 UNL     1      21.761   3.484  51.342  1.00  0.00     0.072 A 
HETATM    5  C12 UNL     1      22.339   4.718  51.183  1.00  0.00     0.144 A 
HETATM    6  N3  UNL     1      21.631   5.681  50.571  1.00  0.00    -0.223 NA
HETATM    7  C19 UNL     1      20.396   5.512  50.107  1.00  0.00     0.236 A 
HETATM    8  N4  UNL     1      19.822   4.304  50.260  1.00  0.00    -0.241 NA
HETATM    9  C20 UNL     1      20.468   3.287  50.863  1.00  0.00     0.077 A 
HETATM   10  C21 UNL     1      19.804   2.084  50.969  1.00  0.00     0.069 A 
ENDROOT
BRANCH   3  11
HETATM   11  O2  UNL     1      23.720   2.649  52.433  1.00  0.00    -0.343 OA
BRANCH  11  12
HETATM   12  C5  UNL     1      24.788   1.794  52.191  1.00  0.00     0.159 C 
HETATM   13  C6  UNL     1      24.880   0.728  53.279  1.00  0.00     0.064 C 
HETATM   14  C7  UNL     1      26.029   1.138  54.128  1.00  0.00     0.278 C 
HETATM   15  N1  UNL     1      26.819   2.090  53.428  1.00  0.00     0.119 N 
HETATM   16  C10 UNL     1      26.125   2.460  52.220  1.00  0.00     0.307 C 
BRANCH  15  17
HETATM   17  C8  UNL     1      28.186   1.713  53.187  1.00  0.00     0.352 C 
HETATM   18  C9  UNL     1      28.804   0.849  54.232  1.00  0.00     0.073 C 
BRANCH  17  19
HETATM   19  O3  UNL     1      28.965   2.861  53.082  1.00  0.00    -0.368 OA
HETATM   20  H14 UNL     1      28.874   3.232  52.183  1.00  0.00     0.212 HD
ENDBRANCH  17  19
ENDBRANCH  15  17
ENDBRANCH  11  12
ENDBRANCH   3  11
BRANCH   1  21
HETATM   21  O1  UNL     1      19.848  -0.173  51.712  1.00  0.00    -0.356 OA
HETATM   22  C1  UNL     1      18.921  -0.421  52.747  1.00  0.00     0.210 C 
ENDBRANCH   1  21
BRANCH   5  23
HETATM   23  N2  UNL     1      23.632   5.062  51.642  1.00  0.00    -0.340 N 
HETATM   24  H17 UNL     1      24.178   5.074  52.520  1.00  0.00     0.167 HD
BRANCH  23  25
HETATM   25  C13 UNL     1      24.639   5.570  50.751  1.00  0.00     0.035 A 
HETATM   26  C14 UNL     1      25.342   4.875  49.766  1.00  0.00     0.032 A 
HETATM   27  C15 UNL     1      26.277   5.453  48.944  1.00  0.00     0.046 A 
HETATM   28  C16 UNL     1      26.549   6.797  49.087  1.00  0.00     0.138 A 
HETATM   29  F1  UNL     1      27.478   7.311  48.248  1.00  0.00    -0.204 F 
HETATM   30  C17 UNL     1      25.886   7.534  50.041  1.00  0.00     0.074 A 
HETATM   31 CL1  UNL     1      26.333   9.223  50.107  1.00  0.00    -0.081 Cl
HETATM   32  C18 UNL     1      24.934   6.923  50.870  1.00  0.00     0.056 A 
ENDBRANCH  23  25
ENDBRANCH   5  23
TORSDOF 7
ENDMDL
MODEL 8
REMARK VINA RESULT:      -7.5      3.342      6.237
REMARK  7 active torsions:
REMARK  status: ('A' for Active; 'I' for Inactive)
REMARK    1  A    between atoms: O1_2  and  C2_3 
REMARK    2  A    between atoms: C4_5  and  O2_6 
REMARK    3  A    between atoms: O2_6  and  C5_7 
REMARK    4  A    between atoms: N1_10  and  C8_11 
REMARK    5  A    between atoms: C8_11  and  O3_13 
REMARK    6  A    between atoms: C12_16  and  N2_17 
REMARK    7  A    between atoms: N2_17  and  C13_18 
ROOT
HETATM    1  C2  UNL     1      19.756   0.993  50.351  1.00  0.00     0.073 A 
HETATM    2  C3  UNL     1      21.013   1.048  50.928  1.00  0.00     0.074 A 
HETATM    3  C4  UNL     1      22.079   1.781  50.455  1.00  0.00     0.088 A 
HETATM    4  C11 UNL     1      21.817   2.497  49.310  1.00  0.00     0.072 A 
HETATM    5  C12 UNL     1      22.800   3.263  48.736  1.00  0.00     0.144 A 
HETATM    6  N3  UNL     1      22.508   3.943  47.616  1.00  0.00    -0.223 NA
HETATM    7  C19 UNL     1      21.316   3.921  47.025  1.00  0.00     0.236 A 
HETATM    8  N4  UNL     1      20.346   3.173  47.583  1.00  0.00    -0.241 NA
HETATM    9  C20 UNL     1      20.562   2.461  48.707  1.00  0.00     0.077 A 
HETATM   10  C21 UNL     1      19.513   1.719  49.203  1.00  0.00     0.069 A 
ENDROOT
BRANCH   3  11
HETATM   11  O2  UNL     1      23.302   1.808  51.055  1.00  0.00    -0.343 OA
BRANCH  11  12
HETATM   12  C5  UNL     1      23.531   1.564  52.403  1.00  0.00     0.159 C 
HETATM   13  C6  UNL     1      24.358   2.688  53.020  1.00  0.00     0.064 C 
HETATM   14  C7  UNL     1      25.723   2.121  53.184  1.00  0.00     0.278 C 
HETATM   15  N1  UNL     1      25.661   0.705  53.086  1.00  0.00     0.119 N 
HETATM   16  C10 UNL     1      24.330   0.331  52.676  1.00  0.00     0.307 C 
BRANCH  15  17
HETATM   17  C8  UNL     1      26.107  -0.024  54.243  1.00  0.00     0.352 C 
HETATM   18  C9  UNL     1      25.052  -0.798  54.956  1.00  0.00     0.073 C 
BRANCH  17  19
HETATM   19  O3  UNL     1      26.660   0.865  55.159  1.00  0.00    -0.368 OA
HETATM   20  H14 UNL     1      27.109   1.587  54.677  1.00  0.00     0.212 HD
ENDBRANCH  17  19
ENDBRANCH  15  17
ENDBRANCH  11  12
ENDBRANCH   3  11
BRANCH   1  21
HETATM   21  O1  UNL     1      18.722   0.234  50.882  1.00  0.00    -0.356 OA
HETATM   22  C1  UNL     1      18.789  -0.295  52.188  1.00  0.00     0.210 C 
ENDBRANCH   1  21
BRANCH   5  23
HETATM   23  N2  UNL     1      24.108   3.408  49.254  1.00  0.00    -0.340 N 
HETATM   24  H17 UNL     1      24.926   2.825  49.503  1.00  0.00     0.167 HD
BRANCH  23  25
HETATM   25  C13 UNL     1      24.644   4.696  49.602  1.00  0.00     0.035 A 
HETATM   26  C14 UNL     1      24.165   5.594  50.556  1.00  0.00     0.032 A 
HETATM   27  C15 UNL     1      24.759   6.800  50.835  1.00  0.00     0.046 A 
HETATM   28  C16 UNL     1      25.895   7.159  50.141  1.00  0.00     0.138 A 
HETATM   29  F1  UNL     1      26.436   8.357  50.460  1.00  0.00    -0.204 F 
HETATM   30  C17 UNL     1      26.414   6.312  49.189  1.00  0.00     0.074 A 
HETATM   31 CL1  UNL     1      27.854   6.899  48.390  1.00  0.00    -0.081 Cl
HETATM   32  C18 UNL     1      25.791   5.085  48.920  1.00  0.00     0.056 A 
ENDBRANCH  23  25
ENDBRANCH   5  23
TORSDOF 7
ENDMDL
MODEL 9
REMARK VINA RESULT:      -7.4      4.085      7.672
REMARK  7 active torsions:
REMARK  status: ('A' for Active; 'I' for Inactive)
REMARK    1  A    between atoms: O1_2  and  C2_3 
REMARK    2  A    between atoms: C4_5  and  O2_6 
REMARK    3  A    between atoms: O2_6  and  C5_7 
REMARK    4  A    between atoms: N1_10  and  C8_11 
REMARK    5  A    between atoms: C8_11  and  O3_13 
REMARK    6  A    between atoms: C12_16  and  N2_17 
REMARK    7  A    between atoms: N2_17  and  C13_18 
ROOT
HETATM    1  C2  UNL     1      26.295   0.349  53.227  1.00  0.00     0.073 A 
HETATM    2  C3  UNL     1      24.912   0.394  53.166  1.00  0.00     0.074 A 
HETATM    3  C4  UNL     1      24.174   1.246  52.374  1.00  0.00     0.088 A 
HETATM    4  C11 UNL     1      24.924   2.103  51.603  1.00  0.00     0.072 A 
HETATM    5  C12 UNL     1      24.305   3.006  50.776  1.00  0.00     0.144 A 
HETATM    6  N3  UNL     1      25.071   3.830  50.043  1.00  0.00    -0.223 NA
HETATM    7  C19 UNL     1      26.401   3.824  50.068  1.00  0.00     0.236 A 
HETATM    8  N4  UNL     1      27.015   2.941  50.877  1.00  0.00    -0.241 NA
HETATM    9  C20 UNL     1      26.316   2.082  51.645  1.00  0.00     0.077 A 
HETATM   10  C21 UNL     1      27.029   1.217  52.446  1.00  0.00     0.069 A 
ENDROOT
BRANCH   3  11
HETATM   11  O2  UNL     1      22.812   1.256  52.344  1.00  0.00    -0.343 OA
BRANCH  11  12
HETATM   12  C5  UNL     1      22.013   0.139  52.139  1.00  0.00     0.159 C 
HETATM   13  C6  UNL     1      21.367   0.184  50.758  1.00  0.00     0.064 C 
HETATM   14  C7  UNL     1      19.948   0.552  51.004  1.00  0.00     0.278 C 
HETATM   15  N1  UNL     1      19.637   0.347  52.376  1.00  0.00     0.119 N 
HETATM   16  C10 UNL     1      20.856   0.033  53.079  1.00  0.00     0.307 C 
BRANCH  15  17
HETATM   17  C8  UNL     1      18.585  -0.597  52.645  1.00  0.00     0.352 C 
HETATM   18  C9  UNL     1      17.226  -0.181  52.198  1.00  0.00     0.073 C 
BRANCH  17  19
HETATM   19  O3  UNL     1      18.519  -0.830  54.015  1.00  0.00    -0.368 OA
HETATM   20  H14 UNL     1      19.290  -0.417  54.450  1.00  0.00     0.212 HD
ENDBRANCH  17  19
ENDBRANCH  15  17
ENDBRANCH  11  12
ENDBRANCH   3  11
BRANCH   1  21
HETATM   21  O1  UNL     1      26.978  -0.538  54.047  1.00  0.00    -0.356 OA
HETATM   22  C1  UNL     1      28.062  -0.118  54.848  1.00  0.00     0.210 C 
ENDBRANCH   1  21
BRANCH   5  23
HETATM   23  N2  UNL     1      22.904   3.120  50.619  1.00  0.00    -0.340 N 
HETATM   24  H17 UNL     1      22.040   3.053  51.185  1.00  0.00     0.167 HD
BRANCH  23  25
HETATM   25  C13 UNL     1      22.308   3.421  49.346  1.00  0.00     0.035 A 
HETATM   26  C14 UNL     1      22.462   2.732  48.143  1.00  0.00     0.032 A 
HETATM   27  C15 UNL     1      21.832   3.084  46.976  1.00  0.00     0.046 A 
HETATM   28  C16 UNL     1      20.997   4.181  46.974  1.00  0.00     0.138 A 
HETATM   29  F1  UNL     1      20.404   4.479  45.795  1.00  0.00    -0.204 F 
HETATM   30  C17 UNL     1      20.806   4.899  48.132  1.00  0.00     0.074 A 
HETATM   31 CL1  UNL     1      19.723   6.263  47.980  1.00  0.00    -0.081 Cl
HETATM   32  C18 UNL     1      21.459   4.521  49.314  1.00  0.00     0.056 A 
ENDBRANCH  23  25
ENDBRANCH   5  23
TORSDOF 7
ENDMDL
