MODEL 1
REMARK VINA RESULT:      -8.8      0.000      0.000
REMARK  1 active torsions:
REMARK  status: ('A' for Active; 'I' for Inactive)
REMARK    1  A    between atoms: C4_5  and  C5_6 
ROOT
HETATM    1  C5  UNL     1      24.339   2.373  50.511  1.00  0.00     0.151 C 
HETATM    2  C6  UNL     1      22.859   2.114  50.182  1.00  0.00     0.093 C 
HETATM    3  C7  UNL     1      22.420   1.297  51.273  1.00  0.00     0.057 C 
HETATM    4  N1  UNL     1      22.998   2.111  52.095  1.00  0.00    -0.174 NA
HETATM    5  N2  UNL     1      24.349   1.935  51.884  1.00  0.00    -0.236 N 
HETATM    6  C8  UNL     1      25.420   1.471  52.715  1.00  0.00     0.192 A 
HETATM    7  N3  UNL     1      25.249   0.439  53.357  1.00  0.00    -0.198 NA
HETATM    8  C9  UNL     1      26.203  -0.049  54.157  1.00  0.00     0.178 A 
HETATM    9  C10 UNL     1      27.454   0.665  54.254  1.00  0.00     0.111 A 
HETATM   10  S1  UNL     1      27.045   2.114  53.041  1.00  0.00    -0.058 SA
HETATM   11  O1  UNL     1      25.513  -1.164  54.609  1.00  0.00    -0.304 OA
HETATM   12  C11 UNL     1      24.275  -1.213  55.158  1.00  0.00     0.143 C 
HETATM   13  C12 UNL     1      22.979  -1.107  55.329  1.00  0.00     0.038 C 
HETATM   14  C13 UNL     1      21.714  -0.689  54.679  1.00  0.00     0.218 C 
HETATM   15  F2  UNL     1      21.012   0.223  55.489  1.00  0.00    -0.241 F 
HETATM   16  C14 UNL     1      21.872  -0.067  53.364  1.00  0.00     0.016 C 
HETATM   17  C15 UNL     1      21.860   0.311  52.133  1.00  0.00     0.028 C 
ENDROOT
BRANCH   1  18
HETATM   18  C4  UNL     1      24.625   3.806  50.456  1.00  0.00    -0.033 A 
HETATM   19  C3  UNL     1      23.955   4.755  51.189  1.00  0.00     0.012 A 
HETATM   20  C2  UNL     1      24.254   6.119  51.112  1.00  0.00     0.043 A 
HETATM   21  C1  UNL     1      25.278   6.492  50.249  1.00  0.00     0.116 A 
HETATM   22  F1  UNL     1      25.584   7.799  50.159  1.00  0.00    -0.206 F 
HETATM   23  C17 UNL     1      25.974   5.560  49.497  1.00  0.00     0.043 A 
HETATM   24  C16 UNL     1      25.630   4.226  49.618  1.00  0.00     0.012 A 
ENDBRANCH   1  18
TORSDOF 1
ENDMDL
MODEL 2
REMARK VINA RESULT:      -8.4      4.054      6.142
REMARK  1 active torsions:
REMARK  status: ('A' for Active; 'I' for Inactive)
REMARK    1  A    between atoms: C4_5  and  C5_6 
ROOT
HETATM    1  C5  UNL     1      22.345   0.593  53.912  1.00  0.00     0.151 C 
HETATM    2  C6  UNL     1      21.654  -0.746  54.224  1.00  0.00     0.093 C 
HETATM    3  C7  UNL     1      20.407  -0.639  53.528  1.00  0.00     0.057 C 
HETATM    4  N1  UNL     1      21.043  -0.211  52.486  1.00  0.00    -0.174 NA
HETATM    5  N2  UNL     1      21.500   1.043  52.835  1.00  0.00    -0.236 N 
HETATM    6  C8  UNL     1      21.240   2.358  52.330  1.00  0.00     0.192 A 
HETATM    7  N3  UNL     1      20.073   2.688  52.148  1.00  0.00    -0.198 NA
HETATM    8  C9  UNL     1      19.757   3.897  51.674  1.00  0.00     0.178 A 
HETATM    9  C10 UNL     1      20.825   4.822  51.377  1.00  0.00     0.111 A 
HETATM   10  S1  UNL     1      22.317   3.698  51.876  1.00  0.00    -0.058 SA
HETATM   11  O1  UNL     1      18.379   3.739  51.666  1.00  0.00    -0.304 OA
HETATM   12  C11 UNL     1      17.657   2.739  51.105  1.00  0.00     0.143 C 
HETATM   13  C12 UNL     1      17.176   1.551  50.825  1.00  0.00     0.038 C 
HETATM   14  C13 UNL     1      17.258   0.112  51.171  1.00  0.00     0.218 C 
HETATM   15  F2  UNL     1      17.474  -0.668  50.020  1.00  0.00    -0.241 F 
HETATM   16  C14 UNL     1      18.305  -0.233  52.132  1.00  0.00     0.016 C 
HETATM   17  C15 UNL     1      19.049  -0.634  53.103  1.00  0.00     0.028 C 
ENDROOT
BRANCH   1  18
HETATM   18  C4  UNL     1      23.696   0.357  53.404  1.00  0.00    -0.033 A 
HETATM   19  C3  UNL     1      24.290   1.102  52.415  1.00  0.00     0.012 A 
HETATM   20  C2  UNL     1      25.585   0.848  51.952  1.00  0.00     0.043 A 
HETATM   21  C1  UNL     1      26.268  -0.209  52.541  1.00  0.00     0.116 A 
HETATM   22  F1  UNL     1      27.517  -0.472  52.112  1.00  0.00    -0.206 F 
HETATM   23  C17 UNL     1      25.699  -0.980  53.541  1.00  0.00     0.043 A 
HETATM   24  C16 UNL     1      24.414  -0.678  53.955  1.00  0.00     0.012 A 
ENDBRANCH   1  18
TORSDOF 1
ENDMDL
MODEL 3
REMARK VINA RESULT:      -8.2      3.092      6.255
REMARK  1 active torsions:
REMARK  status: ('A' for Active; 'I' for Inactive)
REMARK    1  A    between atoms: C4_5  and  C5_6 
ROOT
HETATM    1  C5  UNL     1      25.784   1.822  50.834  1.00  0.00     0.151 C 
HETATM    2  C6  UNL     1      26.565   2.857  50.006  1.00  0.00     0.093 C 
HETATM    3  C7  UNL     1      25.653   3.958  49.915  1.00  0.00     0.057 C 
HETATM    4  N1  UNL     1      25.424   3.853  51.185  1.00  0.00    -0.174 NA
HETATM    5  N2  UNL     1      24.728   2.670  51.327  1.00  0.00    -0.236 N 
HETATM    6  C8  UNL     1      23.410   2.357  51.791  1.00  0.00     0.192 A 
HETATM    7  N3  UNL     1      22.471   3.013  51.352  1.00  0.00    -0.198 NA
HETATM    8  C9  UNL     1      21.214   2.779  51.746  1.00  0.00     0.178 A 
HETATM    9  C10 UNL     1      20.977   1.729  52.708  1.00  0.00     0.111 A 
HETATM   10  S1  UNL     1      22.806   1.149  52.947  1.00  0.00    -0.058 SA
HETATM   11  O1  UNL     1      20.595   3.754  50.978  1.00  0.00    -0.304 OA
HETATM   12  C11 UNL     1      20.897   5.073  50.903  1.00  0.00     0.143 C 
HETATM   13  C12 UNL     1      21.541   6.198  50.700  1.00  0.00     0.038 C 
HETATM   14  C13 UNL     1      22.829   6.778  50.252  1.00  0.00     0.218 C 
HETATM   15  F2  UNL     1      23.332   7.680  51.207  1.00  0.00    -0.241 F 
HETATM   16  C14 UNL     1      23.884   5.802  49.980  1.00  0.00     0.016 C 
HETATM   17  C15 UNL     1      24.822   5.046  49.526  1.00  0.00     0.028 C 
ENDROOT
BRANCH   1  18
HETATM   18  C4  UNL     1      26.597   1.356  51.956  1.00  0.00    -0.033 A 
HETATM   19  C3  UNL     1      27.526   2.128  52.609  1.00  0.00     0.012 A 
HETATM   20  C2  UNL     1      28.288   1.650  53.680  1.00  0.00     0.043 A 
HETATM   21  C1  UNL     1      28.068   0.335  54.072  1.00  0.00     0.116 A 
HETATM   22  F1  UNL     1      28.789  -0.147  55.101  1.00  0.00    -0.206 F 
HETATM   23  C17 UNL     1      27.138  -0.470  53.436  1.00  0.00     0.043 A 
HETATM   24  C16 UNL     1      26.417   0.062  52.382  1.00  0.00     0.012 A 
ENDBRANCH   1  18
TORSDOF 1
ENDMDL
MODEL 4
REMARK VINA RESULT:      -7.9      3.039      4.342
REMARK  1 active torsions:
REMARK  status: ('A' for Active; 'I' for Inactive)
REMARK    1  A    between atoms: C4_5  and  C5_6 
ROOT
HETATM    1  C5  UNL     1      22.864   3.385  50.999  1.00  0.00     0.151 C 
HETATM    2  C6  UNL     1      24.342   3.719  51.265  1.00  0.00     0.093 C 
HETATM    3  C7  UNL     1      24.749   2.694  52.179  1.00  0.00     0.057 C 
HETATM    4  N1  UNL     1      24.180   1.814  51.421  1.00  0.00    -0.174 NA
HETATM    5  N2  UNL     1      22.827   2.053  51.547  1.00  0.00    -0.236 N 
HETATM    6  C8  UNL     1      21.735   1.275  52.052  1.00  0.00     0.192 A 
HETATM    7  N3  UNL     1      21.875   0.718  53.136  1.00  0.00    -0.198 NA
HETATM    8  C9  UNL     1      20.900  -0.029  53.666  1.00  0.00     0.178 A 
HETATM    9  C10 UNL     1      19.664  -0.171  52.933  1.00  0.00     0.111 A 
HETATM   10  S1  UNL     1      20.122   0.914  51.399  1.00  0.00    -0.058 SA
HETATM   11  O1  UNL     1      21.559  -0.396  54.830  1.00  0.00    -0.304 OA
HETATM   12  C11 UNL     1      22.788  -0.953  54.953  1.00  0.00     0.143 C 
HETATM   13  C12 UNL     1      24.084  -1.145  54.892  1.00  0.00     0.038 C 
HETATM   14  C13 UNL     1      25.366  -0.545  54.452  1.00  0.00     0.218 C 
HETATM   15  F2  UNL     1      26.078  -1.435  53.627  1.00  0.00    -0.241 F 
HETATM   16  C14 UNL     1      25.239   0.716  53.722  1.00  0.00     0.016 C 
HETATM   17  C15 UNL     1      25.275   1.911  53.244  1.00  0.00     0.028 C 
ENDROOT
BRANCH   1  18
HETATM   18  C4  UNL     1      22.612   3.325  49.559  1.00  0.00    -0.033 A 
HETATM   19  C3  UNL     1      22.526   2.160  48.839  1.00  0.00     0.012 A 
HETATM   20  C2  UNL     1      22.283   2.139  47.461  1.00  0.00     0.043 A 
HETATM   21  C1  UNL     1      22.129   3.368  46.831  1.00  0.00     0.116 A 
HETATM   22  F1  UNL     1      21.894   3.372  45.505  1.00  0.00    -0.206 F 
HETATM   23  C17 UNL     1      22.208   4.561  47.528  1.00  0.00     0.043 A 
HETATM   24  C16 UNL     1      22.451   4.514  48.889  1.00  0.00     0.012 A 
ENDBRANCH   1  18
TORSDOF 1
ENDMDL
MODEL 5
REMARK VINA RESULT:      -7.7     10.049     11.771
REMARK  1 active torsions:
REMARK  status: ('A' for Active; 'I' for Inactive)
REMARK    1  A    between atoms: C4_5  and  C5_6 
ROOT
HETATM    1  C5  UNL     1      30.518   7.476  46.918  1.00  0.00     0.151 C 
HETATM    2  C6  UNL     1      30.040   6.340  47.840  1.00  0.00     0.093 C 
HETATM    3  C7  UNL     1      31.039   5.330  47.659  1.00  0.00     0.057 C 
HETATM    4  N1  UNL     1      31.955   6.234  47.795  1.00  0.00    -0.174 NA
HETATM    5  N2  UNL     1      31.860   7.015  46.663  1.00  0.00    -0.236 N 
HETATM    6  C8  UNL     1      32.758   7.290  45.581  1.00  0.00     0.192 A 
HETATM    7  N3  UNL     1      33.323   6.343  45.043  1.00  0.00    -0.198 NA
HETATM    8  C9  UNL     1      34.178   6.526  44.032  1.00  0.00     0.178 A 
HETATM    9  C10 UNL     1      34.430   7.873  43.576  1.00  0.00     0.111 A 
HETATM   10  S1  UNL     1      33.267   8.807  44.807  1.00  0.00    -0.058 SA
HETATM   11  O1  UNL     1      34.502   5.195  43.819  1.00  0.00    -0.304 OA
HETATM   12  C11 UNL     1      34.932   4.286  44.728  1.00  0.00     0.143 C 
HETATM   13  C12 UNL     1      34.989   3.492  45.771  1.00  0.00     0.038 C 
HETATM   14  C13 UNL     1      34.250   3.037  46.972  1.00  0.00     0.218 C 
HETATM   15  F2  UNL     1      35.042   3.169  48.127  1.00  0.00    -0.241 F 
HETATM   16  C14 UNL     1      32.992   3.739  47.226  1.00  0.00     0.016 C 
HETATM   17  C15 UNL     1      31.788   4.139  47.448  1.00  0.00     0.028 C 
ENDROOT
BRANCH   1  18
HETATM   18  C4  UNL     1      30.570   8.737  47.657  1.00  0.00    -0.033 A 
HETATM   19  C3  UNL     1      30.637   8.828  49.025  1.00  0.00     0.012 A 
HETATM   20  C2  UNL     1      30.686  10.053  49.700  1.00  0.00     0.043 A 
HETATM   21  C1  UNL     1      30.663  11.202  48.919  1.00  0.00     0.116 A 
HETATM   22  F1  UNL     1      30.709  12.393  49.547  1.00  0.00    -0.206 F 
HETATM   23  C17 UNL     1      30.597  11.146  47.537  1.00  0.00     0.043 A 
HETATM   24  C16 UNL     1      30.551   9.904  46.930  1.00  0.00     0.012 A 
ENDBRANCH   1  18
TORSDOF 1
ENDMDL
MODEL 6
REMARK VINA RESULT:      -7.5      3.571      6.433
REMARK  1 active torsions:
REMARK  status: ('A' for Active; 'I' for Inactive)
REMARK    1  A    between atoms: C4_5  and  C5_6 
ROOT
HETATM    1  C5  UNL     1      23.959   2.164  52.528  1.00  0.00     0.151 C 
HETATM    2  C6  UNL     1      22.503   1.721  52.758  1.00  0.00     0.093 C 
HETATM    3  C7  UNL     1      21.811   2.276  51.633  1.00  0.00     0.057 C 
HETATM    4  N1  UNL     1      22.744   1.827  50.857  1.00  0.00    -0.174 NA
HETATM    5  N2  UNL     1      23.855   2.589  51.154  1.00  0.00    -0.236 N 
HETATM    6  C8  UNL     1      24.651   3.504  50.391  1.00  0.00     0.192 A 
HETATM    7  N3  UNL     1      24.073   4.362  49.731  1.00  0.00    -0.198 NA
HETATM    8  C9  UNL     1      24.752   5.244  48.991  1.00  0.00     0.178 A 
HETATM    9  C10 UNL     1      26.194   5.173  48.981  1.00  0.00     0.111 A 
HETATM   10  S1  UNL     1      26.408   3.669  50.177  1.00  0.00    -0.058 SA
HETATM   11  O1  UNL     1      23.663   5.938  48.485  1.00  0.00    -0.304 OA
HETATM   12  C11 UNL     1      22.573   5.437  47.855  1.00  0.00     0.143 C 
HETATM   13  C12 UNL     1      21.477   4.762  47.602  1.00  0.00     0.038 C 
HETATM   14  C13 UNL     1      20.500   3.805  48.172  1.00  0.00     0.218 C 
HETATM   15  F2  UNL     1      20.336   2.693  47.325  1.00  0.00    -0.241 F 
HETATM   16  C14 UNL     1      20.839   3.293  49.499  1.00  0.00     0.016 C 
HETATM   17  C15 UNL     1      20.922   2.923  50.730  1.00  0.00     0.028 C 
ENDROOT
BRANCH   1  18
HETATM   18  C4  UNL     1      24.856   1.012  52.613  1.00  0.00    -0.033 A 
HETATM   19  C3  UNL     1      26.045   0.908  51.934  1.00  0.00     0.012 A 
HETATM   20  C2  UNL     1      26.879  -0.210  52.039  1.00  0.00     0.043 A 
HETATM   21  C1  UNL     1      26.454  -1.237  52.875  1.00  0.00     0.116 A 
HETATM   22  F1  UNL     1      27.242  -2.322  52.992  1.00  0.00    -0.206 F 
HETATM   23  C17 UNL     1      25.262  -1.163  53.574  1.00  0.00     0.043 A 
HETATM   24  C16 UNL     1      24.481  -0.030  53.427  1.00  0.00     0.012 A 
ENDBRANCH   1  18
TORSDOF 1
ENDMDL
MODEL 7
REMARK VINA RESULT:      -7.4      3.448      7.321
REMARK  1 active torsions:
REMARK  status: ('A' for Active; 'I' for Inactive)
REMARK    1  A    between atoms: C4_5  and  C5_6 
ROOT
HETATM    1  C5  UNL     1      23.037   1.733  50.843  1.00  0.00     0.151 C 
HETATM    2  C6  UNL     1      24.480   2.201  50.588  1.00  0.00     0.093 C 
HETATM    3  C7  UNL     1      24.340   3.617  50.422  1.00  0.00     0.057 C 
HETATM    4  N1  UNL     1      23.587   3.650  51.474  1.00  0.00    -0.174 NA
HETATM    5  N2  UNL     1      22.423   3.011  51.103  1.00  0.00    -0.236 N 
HETATM    6  C8  UNL     1      21.060   3.438  50.993  1.00  0.00     0.192 A 
HETATM    7  N3  UNL     1      20.829   4.489  50.403  1.00  0.00    -0.198 NA
HETATM    8  C9  UNL     1      19.582   4.951  50.268  1.00  0.00     0.178 A 
HETATM    9  C10 UNL     1      18.497   4.185  50.833  1.00  0.00     0.111 A 
HETATM   10  S1  UNL     1      19.535   2.730  51.571  1.00  0.00    -0.058 SA
HETATM   11  O1  UNL     1      19.888   6.105  49.561  1.00  0.00    -0.304 OA
HETATM   12  C11 UNL     1      20.785   7.068  49.884  1.00  0.00     0.143 C 
HETATM   13  C12 UNL     1      21.906   7.686  50.169  1.00  0.00     0.038 C 
HETATM   14  C13 UNL     1      23.367   7.501  50.341  1.00  0.00     0.218 C 
HETATM   15  F2  UNL     1      23.793   8.006  51.582  1.00  0.00    -0.241 F 
HETATM   16  C14 UNL     1      23.828   6.116  50.255  1.00  0.00     0.016 C 
HETATM   17  C15 UNL     1      24.379   4.978  50.009  1.00  0.00     0.028 C 
ENDROOT
BRANCH   1  18
HETATM   18  C4  UNL     1      22.979   0.911  52.051  1.00  0.00    -0.033 A 
HETATM   19  C3  UNL     1      21.819   0.412  52.591  1.00  0.00     0.012 A 
HETATM   20  C2  UNL     1      21.800  -0.371  53.749  1.00  0.00     0.043 A 
HETATM   21  C1  UNL     1      23.025  -0.635  54.351  1.00  0.00     0.116 A 
HETATM   22  F1  UNL     1      23.031  -1.387  55.467  1.00  0.00    -0.206 F 
HETATM   23  C17 UNL     1      24.213  -0.148  53.833  1.00  0.00     0.043 A 
HETATM   24  C16 UNL     1      24.164   0.621  52.684  1.00  0.00     0.012 A 
ENDBRANCH   1  18
TORSDOF 1
ENDMDL
MODEL 8
REMARK VINA RESULT:      -7.2      8.441     11.664
REMARK  1 active torsions:
REMARK  status: ('A' for Active; 'I' for Inactive)
REMARK    1  A    between atoms: C4_5  and  C5_6 
ROOT
HETATM    1  C5  UNL     1      31.798   6.910  46.112  1.00  0.00     0.151 C 
HETATM    2  C6  UNL     1      32.730   8.075  45.736  1.00  0.00     0.093 C 
HETATM    3  C7  UNL     1      32.106   9.205  46.356  1.00  0.00     0.057 C 
HETATM    4  N1  UNL     1      31.972   8.515  47.443  1.00  0.00    -0.174 NA
HETATM    5  N2  UNL     1      31.027   7.556  47.144  1.00  0.00    -0.236 N 
HETATM    6  C8  UNL     1      29.718   7.275  47.654  1.00  0.00     0.192 A 
HETATM    7  N3  UNL     1      28.930   8.208  47.771  1.00  0.00    -0.198 NA
HETATM    8  C9  UNL     1      27.694   8.020  48.246  1.00  0.00     0.178 A 
HETATM    9  C10 UNL     1      27.296   6.685  48.623  1.00  0.00     0.111 A 
HETATM   10  S1  UNL     1      28.944   5.769  48.196  1.00  0.00    -0.058 SA
HETATM   11  O1  UNL     1      27.263   9.336  48.167  1.00  0.00    -0.304 OA
HETATM   12  C11 UNL     1      27.867  10.443  48.666  1.00  0.00     0.143 C 
HETATM   13  C12 UNL     1      28.742  11.392  48.895  1.00  0.00     0.038 C 
HETATM   14  C13 UNL     1      30.088  11.896  48.531  1.00  0.00     0.218 C 
HETATM   15  F2  UNL     1      30.876  12.096  49.679  1.00  0.00    -0.241 F 
HETATM   16  C14 UNL     1      30.848  11.030  47.629  1.00  0.00     0.016 C 
HETATM   17  C15 UNL     1      31.532  10.462  46.698  1.00  0.00     0.028 C 
ENDROOT
BRANCH   1  18
HETATM   18  C4  UNL     1      32.571   5.815  46.698  1.00  0.00    -0.033 A 
HETATM   19  C3  UNL     1      32.053   4.581  47.002  1.00  0.00     0.012 A 
HETATM   20  C2  UNL     1      32.821   3.555  47.561  1.00  0.00     0.043 A 
HETATM   21  C1  UNL     1      34.161   3.834  47.805  1.00  0.00     0.116 A 
HETATM   22  F1  UNL     1      34.921   2.861  48.344  1.00  0.00    -0.206 F 
HETATM   23  C17 UNL     1      34.716   5.068  47.509  1.00  0.00     0.043 A 
HETATM   24  C16 UNL     1      33.902   6.040  46.957  1.00  0.00     0.012 A 
ENDBRANCH   1  18
TORSDOF 1
ENDMDL
MODEL 9
REMARK VINA RESULT:      -7.2      4.161      5.461
REMARK  1 active torsions:
REMARK  status: ('A' for Active; 'I' for Inactive)
REMARK    1  A    between atoms: C4_5  and  C5_6 
ROOT
HETATM    1  C5  UNL     1      23.510   5.298  50.330  1.00  0.00     0.151 C 
HETATM    2  C6  UNL     1      23.564   4.997  51.838  1.00  0.00     0.093 C 
HETATM    3  C7  UNL     1      22.553   3.997  52.009  1.00  0.00     0.057 C 
HETATM    4  N1  UNL     1      23.023   3.369  50.979  1.00  0.00    -0.174 NA
HETATM    5  N2  UNL     1      22.720   4.172  49.900  1.00  0.00    -0.236 N 
HETATM    6  C8  UNL     1      21.900   3.988  48.740  1.00  0.00     0.192 A 
HETATM    7  N3  UNL     1      20.768   3.541  48.896  1.00  0.00    -0.198 NA
HETATM    8  C9  UNL     1      19.950   3.338  47.858  1.00  0.00     0.178 A 
HETATM    9  C10 UNL     1      20.425   3.659  46.532  1.00  0.00     0.111 A 
HETATM   10  S1  UNL     1      22.191   4.282  47.011  1.00  0.00    -0.058 SA
HETATM   11  O1  UNL     1      18.865   2.849  48.569  1.00  0.00    -0.304 OA
HETATM   12  C11 UNL     1      18.846   1.838  49.472  1.00  0.00     0.143 C 
HETATM   13  C12 UNL     1      19.085   1.108  50.535  1.00  0.00     0.038 C 
HETATM   14  C13 UNL     1      19.841   1.058  51.809  1.00  0.00     0.218 C 
HETATM   15  F2  UNL     1      20.589  -0.130  51.902  1.00  0.00    -0.241 F 
HETATM   16  C14 UNL     1      20.766   2.170  52.023  1.00  0.00     0.016 C 
HETATM   17  C15 UNL     1      21.462   3.180  52.416  1.00  0.00     0.028 C 
ENDROOT
BRANCH   1  18
HETATM   18  C4  UNL     1      24.849   5.202  49.748  1.00  0.00    -0.033 A 
HETATM   19  C3  UNL     1      25.491   6.237  49.115  1.00  0.00     0.012 A 
HETATM   20  C2  UNL     1      26.773   6.110  48.569  1.00  0.00     0.043 A 
HETATM   21  C1  UNL     1      27.390   4.871  48.693  1.00  0.00     0.116 A 
HETATM   22  F1  UNL     1      28.624   4.726  48.176  1.00  0.00    -0.206 F 
HETATM   23  C17 UNL     1      26.771   3.807  49.327  1.00  0.00     0.043 A 
HETATM   24  C16 UNL     1      25.503   3.997  49.846  1.00  0.00     0.012 A 
ENDBRANCH   1  18
TORSDOF 1
ENDMDL
