MODEL 1
REMARK VINA RESULT:      -9.8      0.000      0.000
REMARK  4 active torsions:
REMARK  status: ('A' for Active; 'I' for Inactive)
REMARK    1  A    between atoms: C2_2  and  C3_3 
REMARK    2  A    between atoms: C6_8  and  C7_9 
REMARK    3  A    between atoms: C7_9  and  O2_10 
REMARK    4  A    between atoms: O2_10  and  C8_11 
ROOT
HETATM    1  C8  UNL     1      23.555   0.950  52.576  1.00  0.00     0.107 C 
HETATM    2  C9  UNL     1      23.672   0.030  53.548  1.00  0.00     0.057 C 
HETATM    3  C10 UNL     1      22.702  -0.773  54.326  1.00  0.00     0.120 C 
HETATM    4  N2  UNL     1      21.398  -0.767  54.516  1.00  0.00    -0.254 NA
HETATM    5  C11 UNL     1      20.443   0.140  53.943  1.00  0.00     0.229 C 
HETATM    6  N3  UNL     1      20.413   0.763  52.824  1.00  0.00    -0.242 NA
HETATM    7  C12 UNL     1      21.238   0.852  51.702  1.00  0.00     0.411 C 
HETATM    8  N4  UNL     1      20.599   1.629  50.598  1.00  0.00     0.151 N 
HETATM    9  C13 UNL     1      20.198   2.897  51.081  1.00  0.00     0.298 C 
HETATM   10  C14 UNL     1      20.990   3.394  52.284  1.00  0.00     0.152 C 
HETATM   11  N5  UNL     1      22.346   3.039  52.089  1.00  0.00    -0.357 N 
HETATM   12  C15 UNL     1      23.359   3.716  52.804  1.00  0.00     0.240 C 
HETATM   13  N6  UNL     1      23.881   4.958  52.131  1.00  0.00    -0.393 N 
HETATM   14  C16 UNL     1      24.027   4.578  50.706  1.00  0.00     0.060 A 
HETATM   15  C17 UNL     1      25.158   3.855  50.709  1.00  0.00     0.007 A 
HETATM   16  C18 UNL     1      24.986   2.948  49.654  1.00  0.00     0.031 A 
HETATM   17  C19 UNL     1      23.696   3.298  49.173  1.00  0.00     0.053 A 
HETATM   18  C20 UNL     1      22.916   4.283  49.665  1.00  0.00     0.082 A 
HETATM   19  C21 UNL     1      22.843   5.254  50.615  1.00  0.00     0.039 A 
HETATM   20  O3  UNL     1      23.029   2.610  48.094  1.00  0.00    -0.351 OA
HETATM   21  C22 UNL     1      21.644   2.274  48.414  1.00  0.00     0.239 C 
HETATM   22  C23 UNL     1      21.681   1.502  49.681  1.00  0.00     0.388 C 
HETATM   23  O4  UNL     1      22.864   1.627  50.406  1.00  0.00    -0.314 OA
HETATM   24  C24 UNL     1      22.525   1.635  51.791  1.00  0.00     0.237 C 
HETATM   25  H25 UNL     1      24.056   5.830  52.737  1.00  0.00     0.155 HD
ENDROOT
BRANCH   1  26
HETATM   26  O2  UNL     1      24.898   1.188  52.412  1.00  0.00    -0.348 OA
BRANCH  26  27
HETATM   27  C7  UNL     1      25.958   0.292  52.387  1.00  0.00     0.213 C 
BRANCH  27  28
HETATM   28  C6  UNL     1      26.952   0.566  53.502  1.00  0.00     0.273 C 
HETATM   29  C3  UNL     1      28.328   0.049  53.234  1.00  0.00     0.156 C 
HETATM   30  O1  UNL     1      29.212   0.386  54.277  1.00  0.00    -0.382 OA
HETATM   31  C4  UNL     1      29.412   1.732  54.414  1.00  0.00     0.198 C 
HETATM   32  C5  UNL     1      28.377   2.489  53.635  1.00  0.00     0.296 C 
HETATM   33  N1  UNL     1      27.038   1.969  53.804  1.00  0.00     0.094 N 
HETATM   34  H11 UNL     1      26.730   2.137  54.773  1.00  0.00     0.316 HD
BRANCH  29  35
HETATM   35  C2  UNL     1      28.366  -1.475  53.173  1.00  0.00     0.029 C 
HETATM   36  C1  UNL     1      29.791  -1.887  53.501  1.00  0.00     0.007 C 
ENDBRANCH  29  35
ENDBRANCH  27  28
ENDBRANCH  26  27
ENDBRANCH   1  26
TORSDOF 4
ENDMDL
MODEL 2
REMARK VINA RESULT:      -8.9      1.279      1.538
REMARK  4 active torsions:
REMARK  status: ('A' for Active; 'I' for Inactive)
REMARK    1  A    between atoms: C2_2  and  C3_3 
REMARK    2  A    between atoms: C6_8  and  C7_9 
REMARK    3  A    between atoms: C7_9  and  O2_10 
REMARK    4  A    between atoms: O2_10  and  C8_11 
ROOT
HETATM    1  C8  UNL     1      22.578   1.361  52.355  1.00  0.00     0.107 C 
HETATM    2  C9  UNL     1      22.691   0.531  53.404  1.00  0.00     0.057 C 
HETATM    3  C10 UNL     1      21.808  -0.496  54.003  1.00  0.00     0.120 C 
HETATM    4  N2  UNL     1      20.546  -0.852  53.882  1.00  0.00    -0.254 NA
HETATM    5  C11 UNL     1      19.557  -0.261  53.026  1.00  0.00     0.229 C 
HETATM    6  N3  UNL     1      19.640   0.306  51.880  1.00  0.00    -0.242 NA
HETATM    7  C12 UNL     1      20.663   0.600  50.978  1.00  0.00     0.411 C 
HETATM    8  N4  UNL     1      20.134   1.145  49.691  1.00  0.00     0.151 N 
HETATM    9  C13 UNL     1      19.302   2.260  49.953  1.00  0.00     0.298 C 
HETATM   10  C14 UNL     1      19.609   2.982  51.260  1.00  0.00     0.152 C 
HETATM   11  N5  UNL     1      21.015   3.018  51.418  1.00  0.00    -0.357 N 
HETATM   12  C15 UNL     1      21.601   3.966  52.287  1.00  0.00     0.240 C 
HETATM   13  N6  UNL     1      21.922   5.291  51.647  1.00  0.00    -0.393 N 
HETATM   14  C16 UNL     1      22.513   4.939  50.334  1.00  0.00     0.060 A 
HETATM   15  C17 UNL     1      23.758   4.562  50.664  1.00  0.00     0.007 A 
HETATM   16  C18 UNL     1      24.102   3.622  49.681  1.00  0.00     0.031 A 
HETATM   17  C19 UNL     1      22.926   3.587  48.885  1.00  0.00     0.053 A 
HETATM   18  C20 UNL     1      21.815   4.323  49.093  1.00  0.00     0.082 A 
HETATM   19  C21 UNL     1      21.252   5.254  49.911  1.00  0.00     0.039 A 
HETATM   20  O3  UNL     1      22.757   2.718  47.745  1.00  0.00    -0.351 OA
HETATM   21  C22 UNL     1      21.478   2.013  47.763  1.00  0.00     0.239 C 
HETATM   22  C23 UNL     1      21.404   1.308  49.066  1.00  0.00     0.388 C 
HETATM   23  O4  UNL     1      22.292   1.774  50.033  1.00  0.00    -0.314 OA
HETATM   24  C24 UNL     1      21.631   1.715  51.295  1.00  0.00     0.237 C 
HETATM   25  H25 UNL     1      21.702   6.189  52.198  1.00  0.00     0.155 HD
ENDROOT
BRANCH   1  26
HETATM   26  O2  UNL     1      23.805   1.963  52.488  1.00  0.00    -0.348 OA
BRANCH  26  27
HETATM   27  C7  UNL     1      25.061   1.499  52.122  1.00  0.00     0.213 C 
BRANCH  27  28
HETATM   28  C6  UNL     1      26.015   1.466  53.302  1.00  0.00     0.273 C 
HETATM   29  C3  UNL     1      26.846   0.227  53.384  1.00  0.00     0.156 C 
HETATM   30  O1  UNL     1      27.747   0.286  54.463  1.00  0.00    -0.382 OA
HETATM   31  C4  UNL     1      28.684   1.275  54.344  1.00  0.00     0.198 C 
HETATM   32  C5  UNL     1      28.286   2.234  53.262  1.00  0.00     0.296 C 
HETATM   33  N1  UNL     1      26.889   2.608  53.311  1.00  0.00     0.094 N 
HETATM   34  H11 UNL     1      26.720   3.171  54.158  1.00  0.00     0.316 HD
BRANCH  29  35
HETATM   35  C2  UNL     1      26.000  -1.013  53.654  1.00  0.00     0.029 C 
HETATM   36  C1  UNL     1      25.431  -0.856  55.053  1.00  0.00     0.007 C 
ENDBRANCH  29  35
ENDBRANCH  27  28
ENDBRANCH  26  27
ENDBRANCH   1  26
TORSDOF 4
ENDMDL
MODEL 3
REMARK VINA RESULT:      -8.4      8.101      9.879
REMARK  4 active torsions:
REMARK  status: ('A' for Active; 'I' for Inactive)
REMARK    1  A    between atoms: C2_2  and  C3_3 
REMARK    2  A    between atoms: C6_8  and  C7_9 
REMARK    3  A    between atoms: C7_9  and  O2_10 
REMARK    4  A    between atoms: O2_10  and  C8_11 
ROOT
HETATM    1  C8  UNL     1      29.230   7.160  47.893  1.00  0.00     0.107 C 
HETATM    2  C9  UNL     1      29.080   5.864  48.212  1.00  0.00     0.057 C 
HETATM    3  C10 UNL     1      27.913   5.012  48.534  1.00  0.00     0.120 C 
HETATM    4  N2  UNL     1      26.642   5.209  48.822  1.00  0.00    -0.254 NA
HETATM    5  C11 UNL     1      25.961   6.469  48.913  1.00  0.00     0.229 C 
HETATM    6  N3  UNL     1      26.128   7.584  48.305  1.00  0.00    -0.242 NA
HETATM    7  C12 UNL     1      26.996   8.073  47.328  1.00  0.00     0.411 C 
HETATM    8  N4  UNL     1      26.611   9.443  46.873  1.00  0.00     0.151 N 
HETATM    9  C13 UNL     1      26.508  10.304  47.992  1.00  0.00     0.298 C 
HETATM   10  C14 UNL     1      27.346   9.881  49.193  1.00  0.00     0.152 C 
HETATM   11  N5  UNL     1      28.584   9.392  48.709  1.00  0.00    -0.357 N 
HETATM   12  C15 UNL     1      29.699   9.328  49.573  1.00  0.00     0.240 C 
HETATM   13  N6  UNL     1      30.534  10.581  49.616  1.00  0.00    -0.393 N 
HETATM   14  C16 UNL     1      30.643  11.006  48.200  1.00  0.00     0.060 A 
HETATM   15  C17 UNL     1      31.564  10.162  47.710  1.00  0.00     0.007 A 
HETATM   16  C18 UNL     1      31.222  10.032  46.356  1.00  0.00     0.031 A 
HETATM   17  C19 UNL     1      30.076  10.867  46.263  1.00  0.00     0.053 A 
HETATM   18  C20 UNL     1      29.538  11.578  47.275  1.00  0.00     0.082 A 
HETATM   19  C21 UNL     1      29.662  11.871  48.598  1.00  0.00     0.039 A 
HETATM   20  O3  UNL     1      29.309  11.039  45.052  1.00  0.00    -0.351 OA
HETATM   21  C22 UNL     1      27.872  10.906  45.277  1.00  0.00     0.239 C 
HETATM   22  C23 UNL     1      27.668   9.589  45.929  1.00  0.00     0.388 C 
HETATM   23  O4  UNL     1      28.814   9.033  46.492  1.00  0.00    -0.314 OA
HETATM   24  C24 UNL     1      28.430   8.371  47.696  1.00  0.00     0.237 C 
HETATM   25  H25 UNL     1      30.889  10.923  50.573  1.00  0.00     0.155 HD
ENDROOT
BRANCH   1  26
HETATM   26  O2  UNL     1      30.596   7.139  47.752  1.00  0.00    -0.348 OA
BRANCH  26  27
HETATM   27  C7  UNL     1      31.412   6.165  47.191  1.00  0.00     0.213 C 
BRANCH  27  28
HETATM   28  C6  UNL     1      32.647   5.911  48.037  1.00  0.00     0.273 C 
HETATM   29  C3  UNL     1      33.833   5.438  47.260  1.00  0.00     0.156 C 
HETATM   30  O1  UNL     1      34.957   5.278  48.092  1.00  0.00    -0.382 OA
HETATM   31  C4  UNL     1      35.401   6.446  48.646  1.00  0.00     0.198 C 
HETATM   32  C5  UNL     1      34.367   7.520  48.483  1.00  0.00     0.296 C 
HETATM   33  N1  UNL     1      33.025   7.077  48.789  1.00  0.00     0.094 N 
HETATM   34  H11 UNL     1      32.957   6.878  49.798  1.00  0.00     0.316 HD
BRANCH  29  35
HETATM   35  C2  UNL     1      33.605   4.059  46.649  1.00  0.00     0.029 C 
HETATM   36  C1  UNL     1      34.976   3.498  46.318  1.00  0.00     0.007 C 
ENDBRANCH  29  35
ENDBRANCH  27  28
ENDBRANCH  26  27
ENDBRANCH   1  26
TORSDOF 4
ENDMDL
MODEL 4
REMARK VINA RESULT:      -8.3      2.589      4.390
REMARK  4 active torsions:
REMARK  status: ('A' for Active; 'I' for Inactive)
REMARK    1  A    between atoms: C2_2  and  C3_3 
REMARK    2  A    between atoms: C6_8  and  C7_9 
REMARK    3  A    between atoms: C7_9  and  O2_10 
REMARK    4  A    between atoms: O2_10  and  C8_11 
ROOT
HETATM    1  C8  UNL     1      23.058   3.631  49.286  1.00  0.00     0.107 C 
HETATM    2  C9  UNL     1      22.668   2.350  49.394  1.00  0.00     0.057 C 
HETATM    3  C10 UNL     1      21.360   1.662  49.304  1.00  0.00     0.120 C 
HETATM    4  N2  UNL     1      20.094   2.026  49.285  1.00  0.00    -0.254 NA
HETATM    5  C11 UNL     1      19.575   3.363  49.358  1.00  0.00     0.229 C 
HETATM    6  N3  UNL     1      20.037   4.488  48.955  1.00  0.00    -0.242 NA
HETATM    7  C12 UNL     1      21.188   4.921  48.297  1.00  0.00     0.411 C 
HETATM    8  N4  UNL     1      21.112   6.368  47.933  1.00  0.00     0.151 N 
HETATM    9  C13 UNL     1      20.824   7.134  49.087  1.00  0.00     0.298 C 
HETATM   10  C14 UNL     1      21.252   6.485  50.398  1.00  0.00     0.152 C 
HETATM   11  N5  UNL     1      22.502   5.856  50.185  1.00  0.00    -0.357 N 
HETATM   12  C15 UNL     1      23.330   5.547  51.287  1.00  0.00     0.240 C 
HETATM   13  N6  UNL     1      24.273   6.649  51.693  1.00  0.00    -0.393 N 
HETATM   14  C16 UNL     1      24.808   7.174  50.415  1.00  0.00     0.060 A 
HETATM   15  C17 UNL     1      25.713   6.245  50.071  1.00  0.00     0.007 A 
HETATM   16  C18 UNL     1      25.731   6.287  48.669  1.00  0.00     0.031 A 
HETATM   17  C19 UNL     1      24.765   7.292  48.395  1.00  0.00     0.053 A 
HETATM   18  C20 UNL     1      24.069   7.987  49.319  1.00  0.00     0.082 A 
HETATM   19  C21 UNL     1      23.872   8.141  50.656  1.00  0.00     0.039 A 
HETATM   20  O3  UNL     1      24.376   7.685  47.061  1.00  0.00    -0.351 OA
HETATM   21  C22 UNL     1      22.925   7.755  46.899  1.00  0.00     0.239 C 
HETATM   22  C23 UNL     1      22.392   6.433  47.310  1.00  0.00     0.388 C 
HETATM   23  O4  UNL     1      23.268   5.661  48.070  1.00  0.00    -0.314 OA
HETATM   24  C24 UNL     1      22.498   4.963  49.047  1.00  0.00     0.237 C 
HETATM   25  H25 UNL     1      24.400   6.848  52.743  1.00  0.00     0.155 HD
ENDROOT
BRANCH   1  26
HETATM   26  O2  UNL     1      24.399   3.413  49.493  1.00  0.00    -0.348 OA
BRANCH  26  27
HETATM   27  C7  UNL     1      25.033   2.371  50.155  1.00  0.00     0.213 C 
BRANCH  27  28
HETATM   28  C6  UNL     1      25.535   2.796  51.522  1.00  0.00     0.273 C 
HETATM   29  C3  UNL     1      25.089   1.912  52.641  1.00  0.00     0.156 C 
HETATM   30  O1  UNL     1      25.635   2.326  53.870  1.00  0.00    -0.382 OA
HETATM   31  C4  UNL     1      26.998   2.226  53.927  1.00  0.00     0.198 C 
HETATM   32  C5  UNL     1      27.557   2.020  52.550  1.00  0.00     0.296 C 
HETATM   33  N1  UNL     1      26.970   2.890  51.555  1.00  0.00     0.094 N 
HETATM   34  H11 UNL     1      27.252   3.863  51.749  1.00  0.00     0.316 HD
BRANCH  29  35
HETATM   35  C2  UNL     1      23.579   1.971  52.850  1.00  0.00     0.029 C 
HETATM   36  C1  UNL     1      23.094   0.535  52.936  1.00  0.00     0.007 C 
ENDBRANCH  29  35
ENDBRANCH  27  28
ENDBRANCH  26  27
ENDBRANCH   1  26
TORSDOF 4
ENDMDL
MODEL 5
REMARK VINA RESULT:      -8.1      2.651      5.132
REMARK  4 active torsions:
REMARK  status: ('A' for Active; 'I' for Inactive)
REMARK    1  A    between atoms: C2_2  and  C3_3 
REMARK    2  A    between atoms: C6_8  and  C7_9 
REMARK    3  A    between atoms: C7_9  and  O2_10 
REMARK    4  A    between atoms: O2_10  and  C8_11 
ROOT
HETATM    1  C8  UNL     1      23.082   4.963  50.914  1.00  0.00     0.107 C 
HETATM    2  C9  UNL     1      24.045   5.773  51.385  1.00  0.00     0.057 C 
HETATM    3  C10 UNL     1      24.329   7.220  51.251  1.00  0.00     0.120 C 
HETATM    4  N2  UNL     1      23.896   8.208  50.495  1.00  0.00    -0.254 NA
HETATM    5  C11 UNL     1      22.901   8.136  49.461  1.00  0.00     0.229 C 
HETATM    6  N3  UNL     1      21.863   7.399  49.316  1.00  0.00    -0.242 NA
HETATM    7  C12 UNL     1      21.246   6.382  50.044  1.00  0.00     0.411 C 
HETATM    8  N4  UNL     1      19.933   5.988  49.450  1.00  0.00     0.151 N 
HETATM    9  C13 UNL     1      20.109   5.652  48.087  1.00  0.00     0.298 C 
HETATM   10  C14 UNL     1      21.515   5.183  47.730  1.00  0.00     0.152 C 
HETATM   11  N5  UNL     1      21.986   4.371  48.789  1.00  0.00    -0.357 N 
HETATM   12  C15 UNL     1      23.051   3.471  48.565  1.00  0.00     0.240 C 
HETATM   13  N6  UNL     1      22.631   2.108  48.083  1.00  0.00    -0.393 N 
HETATM   14  C16 UNL     1      21.455   1.762  48.916  1.00  0.00     0.060 A 
HETATM   15  C17 UNL     1      22.016   1.404  50.082  1.00  0.00     0.007 A 
HETATM   16  C18 UNL     1      21.049   1.734  51.043  1.00  0.00     0.031 A 
HETATM   17  C19 UNL     1      20.011   2.276  50.238  1.00  0.00     0.053 A 
HETATM   18  C20 UNL     1      20.036   2.387  48.894  1.00  0.00     0.082 A 
HETATM   19  C21 UNL     1      20.794   2.158  47.787  1.00  0.00     0.039 A 
HETATM   20  O3  UNL     1      18.783   2.814  50.772  1.00  0.00    -0.351 OA
HETATM   21  C22 UNL     1      18.446   4.115  50.200  1.00  0.00     0.239 C 
HETATM   22  C23 UNL     1      19.625   4.989  50.418  1.00  0.00     0.388 C 
HETATM   23  O4  UNL     1      20.806   4.312  50.714  1.00  0.00    -0.314 OA
HETATM   24  C24 UNL     1      21.877   5.011  50.082  1.00  0.00     0.237 C 
HETATM   25  H25 UNL     1      23.203   1.647  47.296  1.00  0.00     0.155 HD
ENDROOT
BRANCH   1  26
HETATM   26  O2  UNL     1      23.544   3.805  51.490  1.00  0.00    -0.348 OA
BRANCH  26  27
HETATM   27  C7  UNL     1      23.754   3.508  52.830  1.00  0.00     0.213 C 
BRANCH  27  28
HETATM   28  C6  UNL     1      24.861   2.485  53.012  1.00  0.00     0.273 C 
HETATM   29  C3  UNL     1      24.467   1.088  52.654  1.00  0.00     0.156 C 
HETATM   30  O1  UNL     1      25.551   0.201  52.789  1.00  0.00    -0.382 OA
HETATM   31  C4  UNL     1      26.582   0.458  51.927  1.00  0.00     0.198 C 
HETATM   32  C5  UNL     1      26.412   1.815  51.311  1.00  0.00     0.296 C 
HETATM   33  N1  UNL     1      26.038   2.837  52.264  1.00  0.00     0.094 N 
HETATM   34  H11 UNL     1      26.825   3.001  52.909  1.00  0.00     0.316 HD
BRANCH  29  35
HETATM   35  C2  UNL     1      23.398   0.536  53.592  1.00  0.00     0.029 C 
HETATM   36  C1  UNL     1      23.003  -0.825  53.048  1.00  0.00     0.007 C 
ENDBRANCH  29  35
ENDBRANCH  27  28
ENDBRANCH  26  27
ENDBRANCH   1  26
TORSDOF 4
ENDMDL
MODEL 6
REMARK VINA RESULT:      -8.1      2.655      6.509
REMARK  4 active torsions:
REMARK  status: ('A' for Active; 'I' for Inactive)
REMARK    1  A    between atoms: C2_2  and  C3_3 
REMARK    2  A    between atoms: C6_8  and  C7_9 
REMARK    3  A    between atoms: C7_9  and  O2_10 
REMARK    4  A    between atoms: O2_10  and  C8_11 
ROOT
HETATM    1  C8  UNL     1      22.539   1.669  51.931  1.00  0.00     0.107 C 
HETATM    2  C9  UNL     1      22.916   0.608  52.664  1.00  0.00     0.057 C 
HETATM    3  C10 UNL     1      24.217   0.122  53.176  1.00  0.00     0.120 C 
HETATM    4  N2  UNL     1      25.487   0.402  52.965  1.00  0.00    -0.254 NA
HETATM    5  C11 UNL     1      26.019   1.382  52.060  1.00  0.00     0.229 C 
HETATM    6  N3  UNL     1      25.570   2.512  51.655  1.00  0.00    -0.242 NA
HETATM    7  C12 UNL     1      24.426   3.276  51.882  1.00  0.00     0.411 C 
HETATM    8  N4  UNL     1      24.518   4.623  51.244  1.00  0.00     0.151 N 
HETATM    9  C13 UNL     1      24.810   4.477  49.866  1.00  0.00     0.298 C 
HETATM   10  C14 UNL     1      24.371   3.147  49.266  1.00  0.00     0.152 C 
HETATM   11  N5  UNL     1      23.116   2.810  49.825  1.00  0.00    -0.357 N 
HETATM   12  C15 UNL     1      22.281   1.878  49.168  1.00  0.00     0.240 C 
HETATM   13  N6  UNL     1      21.349   2.480  48.150  1.00  0.00    -0.393 N 
HETATM   14  C16 UNL     1      20.823   3.704  48.800  1.00  0.00     0.060 A 
HETATM   15  C17 UNL     1      19.909   3.214  49.652  1.00  0.00     0.007 A 
HETATM   16  C18 UNL     1      19.896   4.138  50.707  1.00  0.00     0.031 A 
HETATM   17  C19 UNL     1      20.873   5.079  50.284  1.00  0.00     0.053 A 
HETATM   18  C20 UNL     1      21.573   5.020  49.132  1.00  0.00     0.082 A 
HETATM   19  C21 UNL     1      21.768   4.287  48.002  1.00  0.00     0.039 A 
HETATM   20  O3  UNL     1      21.270   6.226  51.065  1.00  0.00    -0.351 OA
HETATM   21  C22 UNL     1      22.721   6.369  51.153  1.00  0.00     0.239 C 
HETATM   22  C23 UNL     1      23.240   5.081  51.677  1.00  0.00     0.388 C 
HETATM   23  O4  UNL     1      22.354   4.011  51.578  1.00  0.00    -0.314 OA
HETATM   24  C24 UNL     1      23.114   2.844  51.271  1.00  0.00     0.237 C 
HETATM   25  H25 UNL     1      21.220   1.967  47.212  1.00  0.00     0.155 HD
ENDROOT
BRANCH   1  26
HETATM   26  O2  UNL     1      21.196   1.383  51.904  1.00  0.00    -0.348 OA
BRANCH  26  27
HETATM   27  C7  UNL     1      20.555   0.176  51.661  1.00  0.00     0.213 C 
BRANCH  27  28
HETATM   28  C6  UNL     1      19.220   0.095  52.379  1.00  0.00     0.273 C 
HETATM   29  C3  UNL     1      18.113  -0.472  51.550  1.00  0.00     0.156 C 
HETATM   30  O1  UNL     1      16.921  -0.575  52.291  1.00  0.00    -0.382 OA
HETATM   31  C4  UNL     1      16.997  -1.451  53.338  1.00  0.00     0.198 C 
HETATM   32  C5  UNL     1      18.430  -1.806  53.608  1.00  0.00     0.296 C 
HETATM   33  N1  UNL     1      19.317  -0.664  53.597  1.00  0.00     0.094 N 
HETATM   34  H11 UNL     1      19.099  -0.059  54.403  1.00  0.00     0.316 HD
BRANCH  29  35
HETATM   35  C2  UNL     1      17.760   0.430  50.372  1.00  0.00     0.029 C 
HETATM   36  C1  UNL     1      16.709  -0.306  49.560  1.00  0.00     0.007 C 
ENDBRANCH  29  35
ENDBRANCH  27  28
ENDBRANCH  26  27
ENDBRANCH   1  26
TORSDOF 4
ENDMDL
MODEL 7
REMARK VINA RESULT:      -7.6      7.610     10.888
REMARK  4 active torsions:
REMARK  status: ('A' for Active; 'I' for Inactive)
REMARK    1  A    between atoms: C2_2  and  C3_3 
REMARK    2  A    between atoms: C6_8  and  C7_9 
REMARK    3  A    between atoms: C7_9  and  O2_10 
REMARK    4  A    between atoms: O2_10  and  C8_11 
ROOT
HETATM    1  C8  UNL     1      28.544   8.632  47.430  1.00  0.00     0.107 C 
HETATM    2  C9  UNL     1      27.339   9.226  47.428  1.00  0.00     0.057 C 
HETATM    3  C10 UNL     1      26.817  10.494  46.868  1.00  0.00     0.120 C 
HETATM    4  N2  UNL     1      27.336  11.588  46.350  1.00  0.00    -0.254 NA
HETATM    5  C11 UNL     1      28.729  11.885  46.167  1.00  0.00     0.229 C 
HETATM    6  N3  UNL     1      29.743  11.139  45.930  1.00  0.00    -0.242 NA
HETATM    7  C12 UNL     1      29.963   9.773  45.749  1.00  0.00     0.411 C 
HETATM    8  N4  UNL     1      31.367   9.484  45.329  1.00  0.00     0.151 N 
HETATM    9  C13 UNL     1      32.268  10.063  46.254  1.00  0.00     0.298 C 
HETATM   10  C14 UNL     1      31.695  10.263  47.652  1.00  0.00     0.152 C 
HETATM   11  N5  UNL     1      30.895   9.137  47.960  1.00  0.00    -0.357 N 
HETATM   12  C15 UNL     1      30.588   8.840  49.307  1.00  0.00     0.240 C 
HETATM   13  N6  UNL     1      31.594   7.962  50.002  1.00  0.00    -0.393 N 
HETATM   14  C16 UNL     1      31.926   6.913  49.009  1.00  0.00     0.060 A 
HETATM   15  C17 UNL     1      30.861   6.098  49.075  1.00  0.00     0.007 A 
HETATM   16  C18 UNL     1      30.769   5.550  47.787  1.00  0.00     0.031 A 
HETATM   17  C19 UNL     1      31.858   6.176  47.125  1.00  0.00     0.053 A 
HETATM   18  C20 UNL     1      32.719   7.052  47.683  1.00  0.00     0.082 A 
HETATM   19  C21 UNL     1      33.022   7.710  48.835  1.00  0.00     0.039 A 
HETATM   20  O3  UNL     1      32.170   5.972  45.730  1.00  0.00    -0.351 OA
HETATM   21  C22 UNL     1      32.409   7.226  45.020  1.00  0.00     0.239 C 
HETATM   22  C23 UNL     1      31.210   8.071  45.245  1.00  0.00     0.388 C 
HETATM   23  O4  UNL     1      30.407   7.673  46.312  1.00  0.00    -0.314 OA
HETATM   24  C24 UNL     1      29.908   8.850  46.943  1.00  0.00     0.237 C 
HETATM   25  H25 UNL     1      31.873   8.208  51.012  1.00  0.00     0.155 HD
ENDROOT
BRANCH   1  26
HETATM   26  O2  UNL     1      28.177   7.518  48.144  1.00  0.00    -0.348 OA
BRANCH  26  27
HETATM   27  C7  UNL     1      27.209   6.565  47.859  1.00  0.00     0.213 C 
BRANCH  27  28
HETATM   28  C6  UNL     1      26.638   5.948  49.123  1.00  0.00     0.273 C 
HETATM   29  C3  UNL     1      25.186   5.604  49.034  1.00  0.00     0.156 C 
HETATM   30  O1  UNL     1      24.735   4.985  50.214  1.00  0.00    -0.382 OA
HETATM   31  C4  UNL     1      25.321   3.774  50.458  1.00  0.00     0.198 C 
HETATM   32  C5  UNL     1      26.524   3.597  49.580  1.00  0.00     0.296 C 
HETATM   33  N1  UNL     1      27.366   4.772  49.516  1.00  0.00     0.094 N 
HETATM   34  H11 UNL     1      27.804   4.924  50.437  1.00  0.00     0.316 HD
BRANCH  29  35
HETATM   35  C2  UNL     1      24.311   6.846  48.890  1.00  0.00     0.029 C 
HETATM   36  C1  UNL     1      23.460   6.637  47.650  1.00  0.00     0.007 C 
ENDBRANCH  29  35
ENDBRANCH  27  28
ENDBRANCH  26  27
ENDBRANCH   1  26
TORSDOF 4
ENDMDL
MODEL 8
REMARK VINA RESULT:      -7.6      2.617      4.248
REMARK  4 active torsions:
REMARK  status: ('A' for Active; 'I' for Inactive)
REMARK    1  A    between atoms: C2_2  and  C3_3 
REMARK    2  A    between atoms: C6_8  and  C7_9 
REMARK    3  A    between atoms: C7_9  and  O2_10 
REMARK    4  A    between atoms: O2_10  and  C8_11 
ROOT
HETATM    1  C8  UNL     1      19.981   1.763  50.478  1.00  0.00     0.107 C 
HETATM    2  C9  UNL     1      19.350   0.876  51.265  1.00  0.00     0.057 C 
HETATM    3  C10 UNL     1      17.927   0.560  51.523  1.00  0.00     0.120 C 
HETATM    4  N2  UNL     1      16.765   1.120  51.257  1.00  0.00    -0.254 NA
HETATM    5  C11 UNL     1      16.538   2.351  50.553  1.00  0.00     0.229 C 
HETATM    6  N3  UNL     1      17.180   2.933  49.609  1.00  0.00    -0.242 NA
HETATM    7  C12 UNL     1      18.330   2.668  48.866  1.00  0.00     0.411 C 
HETATM    8  N4  UNL     1      18.516   3.649  47.755  1.00  0.00     0.151 N 
HETATM    9  C13 UNL     1      18.497   4.965  48.276  1.00  0.00     0.298 C 
HETATM   10  C14 UNL     1      18.901   5.070  49.742  1.00  0.00     0.152 C 
HETATM   11  N5  UNL     1      19.973   4.171  49.963  1.00  0.00    -0.357 N 
HETATM   12  C15 UNL     1      20.818   4.348  51.081  1.00  0.00     0.240 C 
HETATM   13  N6  UNL     1      21.998   5.252  50.841  1.00  0.00    -0.393 N 
HETATM   14  C16 UNL     1      22.509   4.854  49.508  1.00  0.00     0.060 A 
HETATM   15  C17 UNL     1      23.172   3.718  49.775  1.00  0.00     0.007 A 
HETATM   16  C18 UNL     1      23.070   2.976  48.589  1.00  0.00     0.031 A 
HETATM   17  C19 UNL     1      22.308   3.846  47.765  1.00  0.00     0.053 A 
HETATM   18  C20 UNL     1      21.855   5.067  48.118  1.00  0.00     0.082 A 
HETATM   19  C21 UNL     1      21.816   5.971  49.134  1.00  0.00     0.039 A 
HETATM   20  O3  UNL     1      21.886   3.514  46.425  1.00  0.00    -0.351 OA
HETATM   21  C22 UNL     1      20.472   3.798  46.195  1.00  0.00     0.239 C 
HETATM   22  C23 UNL     1      19.721   3.078  47.252  1.00  0.00     0.388 C 
HETATM   23  O4  UNL     1      20.487   2.682  48.346  1.00  0.00    -0.314 OA
HETATM   24  C24 UNL     1      19.684   2.827  49.515  1.00  0.00     0.237 C 
HETATM   25  H25 UNL     1      22.258   5.963  51.606  1.00  0.00     0.155 HD
ENDROOT
BRANCH   1  26
HETATM   26  O2  UNL     1      21.262   1.407  50.822  1.00  0.00    -0.348 OA
BRANCH  26  27
HETATM   27  C7  UNL     1      21.734   0.217  51.359  1.00  0.00     0.213 C 
BRANCH  27  28
HETATM   28  C6  UNL     1      22.676   0.461  52.524  1.00  0.00     0.273 C 
HETATM   29  C3  UNL     1      23.105  -0.781  53.234  1.00  0.00     0.156 C 
HETATM   30  O1  UNL     1      24.021  -0.491  54.263  1.00  0.00    -0.382 OA
HETATM   31  C4  UNL     1      25.204   0.029  53.816  1.00  0.00     0.198 C 
HETATM   32  C5  UNL     1      25.070   0.458  52.385  1.00  0.00     0.296 C 
HETATM   33  N1  UNL     1      23.850   1.186  52.116  1.00  0.00     0.094 N 
HETATM   34  H11 UNL     1      23.885   2.095  52.601  1.00  0.00     0.316 HD
BRANCH  29  35
HETATM   35  C2  UNL     1      21.940  -1.471  53.937  1.00  0.00     0.029 C 
HETATM   36  C1  UNL     1      21.391  -0.478  54.946  1.00  0.00     0.007 C 
ENDBRANCH  29  35
ENDBRANCH  27  28
ENDBRANCH  26  27
ENDBRANCH   1  26
TORSDOF 4
ENDMDL
MODEL 9
REMARK VINA RESULT:      -7.6      2.473      3.827
REMARK  4 active torsions:
REMARK  status: ('A' for Active; 'I' for Inactive)
REMARK    1  A    between atoms: C2_2  and  C3_3 
REMARK    2  A    between atoms: C6_8  and  C7_9 
REMARK    3  A    between atoms: C7_9  and  O2_10 
REMARK    4  A    between atoms: O2_10  and  C8_11 
ROOT
HETATM    1  C8  UNL     1      20.017   0.975  51.511  1.00  0.00     0.107 C 
HETATM    2  C9  UNL     1      19.331   0.024  52.166  1.00  0.00     0.057 C 
HETATM    3  C10 UNL     1      17.905  -0.373  52.207  1.00  0.00     0.120 C 
HETATM    4  N2  UNL     1      16.763   0.142  51.801  1.00  0.00    -0.254 NA
HETATM    5  C11 UNL     1      16.570   1.392  51.120  1.00  0.00     0.229 C 
HETATM    6  N3  UNL     1      17.305   2.047  50.300  1.00  0.00    -0.242 NA
HETATM    7  C12 UNL     1      18.560   1.872  49.718  1.00  0.00     0.411 C 
HETATM    8  N4  UNL     1      18.846   2.911  48.684  1.00  0.00     0.151 N 
HETATM    9  C13 UNL     1      18.682   4.200  49.247  1.00  0.00     0.298 C 
HETATM   10  C14 UNL     1      18.872   4.256  50.758  1.00  0.00     0.152 C 
HETATM   11  N5  UNL     1      19.949   3.402  51.094  1.00  0.00    -0.357 N 
HETATM   12  C15 UNL     1      20.619   3.567  52.327  1.00  0.00     0.240 C 
HETATM   13  N6  UNL     1      21.770   4.537  52.292  1.00  0.00    -0.393 N 
HETATM   14  C16 UNL     1      22.484   4.226  51.030  1.00  0.00     0.060 A 
HETATM   15  C17 UNL     1      23.163   3.112  51.344  1.00  0.00     0.007 A 
HETATM   16  C18 UNL     1      23.268   2.422  50.127  1.00  0.00     0.031 A 
HETATM   17  C19 UNL     1      22.582   3.291  49.238  1.00  0.00     0.053 A 
HETATM   18  C20 UNL     1      22.019   4.471  49.570  1.00  0.00     0.082 A 
HETATM   19  C21 UNL     1      21.790   5.325  50.605  1.00  0.00     0.039 A 
HETATM   20  O3  UNL     1      22.371   3.001  47.840  1.00  0.00    -0.351 OA
HETATM   21  C22 UNL     1      20.989   3.227  47.423  1.00  0.00     0.239 C 
HETATM   22  C23 UNL     1      20.138   2.423  48.335  1.00  0.00     0.388 C 
HETATM   23  O4  UNL     1      20.765   2.015  49.510  1.00  0.00    -0.314 OA
HETATM   24  C24 UNL     1      19.799   2.066  50.558  1.00  0.00     0.237 C 
HETATM   25  H25 UNL     1      21.883   5.224  53.113  1.00  0.00     0.155 HD
ENDROOT
BRANCH   1  26
HETATM   26  O2  UNL     1      21.255   0.666  52.019  1.00  0.00    -0.348 OA
BRANCH  26  27
HETATM   27  C7  UNL     1      22.165  -0.296  51.603  1.00  0.00     0.213 C 
BRANCH  27  28
HETATM   28  C6  UNL     1      22.804  -1.011  52.780  1.00  0.00     0.273 C 
HETATM   29  C3  UNL     1      23.716  -0.154  53.596  1.00  0.00     0.156 C 
HETATM   30  O1  UNL     1      24.228  -0.859  54.701  1.00  0.00    -0.382 OA
HETATM   31  C4  UNL     1      23.272  -1.234  55.604  1.00  0.00     0.198 C 
HETATM   32  C5  UNL     1      21.906  -1.083  55.002  1.00  0.00     0.296 C 
HETATM   33  N1  UNL     1      21.815  -1.590  53.650  1.00  0.00     0.094 N 
HETATM   34  H11 UNL     1      21.921  -2.615  53.666  1.00  0.00     0.316 HD
BRANCH  29  35
HETATM   35  C2  UNL     1      24.950   0.280  52.810  1.00  0.00     0.029 C 
HETATM   36  C1  UNL     1      25.952  -0.857  52.911  1.00  0.00     0.007 C 
ENDBRANCH  29  35
ENDBRANCH  27  28
ENDBRANCH  26  27
ENDBRANCH   1  26
TORSDOF 4
ENDMDL
