MODEL 1
REMARK VINA RESULT:      -9.6      0.000      0.000
REMARK  1 active torsions:
REMARK  status: ('A' for Active; 'I' for Inactive)
REMARK    1  A    between atoms: C4_5  and  C5_6 
ROOT
HETATM    1  C1  UNL     1      23.620   2.876  49.330  1.00  0.00     0.077 C 
HETATM    2  C2  UNL     1      24.229   3.302  50.658  1.00  0.00     0.165 C 
HETATM    3  C3  UNL     1      25.667   2.973  50.575  1.00  0.00     0.146 C 
HETATM    4  N1  UNL     1      26.507   2.362  51.335  1.00  0.00    -0.261 NA
HETATM    5  C4  UNL     1      26.094   1.812  52.601  1.00  0.00     0.380 C 
HETATM    6  N2  UNL     1      24.899   1.042  52.521  1.00  0.00     0.146 N 
HETATM    7  C11 UNL     1      24.898   0.172  53.686  1.00  0.00     0.306 C 
HETATM    8  C12 UNL     1      23.563  -0.394  53.969  1.00  0.00     0.014 C 
HETATM    9  C13 UNL     1      22.465  -0.176  53.268  1.00  0.00    -0.013 C 
HETATM   10  C14 UNL     1      21.055  -0.544  53.254  1.00  0.00     0.147 C 
HETATM   11  N3  UNL     1      20.426   0.306  52.519  1.00  0.00    -0.191 NA
HETATM   12  N4  UNL     1      21.288   1.276  51.994  1.00  0.00    -0.301 N 
HETATM   13  C15 UNL     1      22.609   0.735  52.075  1.00  0.00     0.188 C 
HETATM   14  C16 UNL     1      23.664   1.749  52.490  1.00  0.00     0.355 C 
HETATM   15  N5  UNL     1      23.483   2.872  51.717  1.00  0.00    -0.345 N 
HETATM   16  C17 UNL     1      22.834   4.005  52.323  1.00  0.00     0.148 C 
HETATM   17  C18 UNL     1      23.833   5.101  51.925  1.00  0.00     0.191 C 
HETATM   18  O1  UNL     1      24.183   4.717  50.634  1.00  0.00    -0.355 OA
HETATM   19  H14 UNL     1      20.739   2.132  51.685  1.00  0.00     0.183 HD
ENDROOT
BRANCH   5  20
HETATM   20  C5  UNL     1      27.186   0.825  52.935  1.00  0.00    -0.004 A 
HETATM   21  C6  UNL     1      28.251   1.379  53.654  1.00  0.00     0.014 A 
HETATM   22  C7  UNL     1      29.344   0.602  54.043  1.00  0.00     0.043 A 
HETATM   23  C8  UNL     1      29.304  -0.725  53.676  1.00  0.00     0.116 A 
HETATM   24  F1  UNL     1      30.380  -1.454  54.069  1.00  0.00    -0.206 F 
HETATM   25  C9  UNL     1      28.266  -1.298  52.965  1.00  0.00     0.043 A 
HETATM   26  C10 UNL     1      27.213  -0.491  52.605  1.00  0.00     0.014 A 
ENDBRANCH   5  20
TORSDOF 1
ENDMDL
MODEL 2
REMARK VINA RESULT:      -9.2      1.958      4.178
REMARK  1 active torsions:
REMARK  status: ('A' for Active; 'I' for Inactive)
REMARK    1  A    between atoms: C4_5  and  C5_6 
ROOT
HETATM    1  C1  UNL     1      21.438   3.459  52.266  1.00  0.00     0.077 C 
HETATM    2  C2  UNL     1      22.076   2.240  51.618  1.00  0.00     0.165 C 
HETATM    3  C3  UNL     1      22.682   1.459  52.716  1.00  0.00     0.146 C 
HETATM    4  N1  UNL     1      23.831   0.917  52.922  1.00  0.00    -0.261 NA
HETATM    5  C4  UNL     1      24.879   1.009  51.938  1.00  0.00     0.380 C 
HETATM    6  N2  UNL     1      25.074   2.329  51.440  1.00  0.00     0.146 N 
HETATM    7  C11 UNL     1      26.420   2.361  50.891  1.00  0.00     0.306 C 
HETATM    8  C12 UNL     1      26.637   3.510  49.989  1.00  0.00     0.014 C 
HETATM    9  C13 UNL     1      25.747   4.439  49.690  1.00  0.00    -0.013 C 
HETATM   10  C14 UNL     1      25.616   5.647  48.885  1.00  0.00     0.147 C 
HETATM   11  N3  UNL     1      24.362   5.891  48.728  1.00  0.00    -0.191 NA
HETATM   12  N4  UNL     1      23.563   4.935  49.368  1.00  0.00    -0.301 N 
HETATM   13  C15 UNL     1      24.393   4.294  50.339  1.00  0.00     0.188 C 
HETATM   14  C16 UNL     1      24.172   2.793  50.440  1.00  0.00     0.355 C 
HETATM   15  N5  UNL     1      22.817   2.579  50.522  1.00  0.00    -0.345 N 
HETATM   16  C17 UNL     1      22.137   2.123  49.338  1.00  0.00     0.148 C 
HETATM   17  C18 UNL     1      21.358   0.946  49.942  1.00  0.00     0.191 C 
HETATM   18  O1  UNL     1      20.982   1.454  51.181  1.00  0.00    -0.355 OA
HETATM   19  H14 UNL     1      22.579   4.947  48.967  1.00  0.00     0.183 HD
ENDROOT
BRANCH   5  20
HETATM   20  C5  UNL     1      26.130   0.685  52.717  1.00  0.00    -0.004 A 
HETATM   21  C6  UNL     1      26.735  -0.520  52.342  1.00  0.00     0.014 A 
HETATM   22  C7  UNL     1      27.903  -0.968  52.964  1.00  0.00     0.043 A 
HETATM   23  C8  UNL     1      28.409  -0.157  53.957  1.00  0.00     0.116 A 
HETATM   24  F1  UNL     1      29.544  -0.620  54.541  1.00  0.00    -0.206 F 
HETATM   25  C9  UNL     1      27.831   1.037  54.347  1.00  0.00     0.043 A 
HETATM   26  C10 UNL     1      26.684   1.434  53.704  1.00  0.00     0.014 A 
ENDBRANCH   5  20
TORSDOF 1
ENDMDL
MODEL 3
REMARK VINA RESULT:      -8.7      3.083      5.252
REMARK  1 active torsions:
REMARK  status: ('A' for Active; 'I' for Inactive)
REMARK    1  A    between atoms: C4_5  and  C5_6 
ROOT
HETATM    1  C1  UNL     1      26.757   0.488  55.202  1.00  0.00     0.077 C 
HETATM    2  C2  UNL     1      26.997   0.277  53.714  1.00  0.00     0.165 C 
HETATM    3  C3  UNL     1      27.602   1.527  53.213  1.00  0.00     0.146 C 
HETATM    4  N1  UNL     1      27.378   2.313  52.218  1.00  0.00    -0.261 NA
HETATM    5  C4  UNL     1      26.317   2.038  51.283  1.00  0.00     0.380 C 
HETATM    6  N2  UNL     1      25.078   1.722  51.909  1.00  0.00     0.146 N 
HETATM    7  C11 UNL     1      24.046   1.973  50.917  1.00  0.00     0.306 C 
HETATM    8  C12 UNL     1      22.762   1.326  51.258  1.00  0.00     0.014 C 
HETATM    9  C13 UNL     1      22.523   0.600  52.335  1.00  0.00    -0.013 C 
HETATM   10  C14 UNL     1      21.442  -0.148  52.963  1.00  0.00     0.147 C 
HETATM   11  N3  UNL     1      21.958  -0.949  53.830  1.00  0.00    -0.191 NA
HETATM   12  N4  UNL     1      23.353  -0.833  53.876  1.00  0.00    -0.301 N 
HETATM   13  C15 UNL     1      23.677   0.430  53.290  1.00  0.00     0.188 C 
HETATM   14  C16 UNL     1      24.911   0.396  52.402  1.00  0.00     0.355 C 
HETATM   15  N5  UNL     1      25.902  -0.256  53.097  1.00  0.00    -0.345 N 
HETATM   16  C17 UNL     1      26.186  -1.621  52.737  1.00  0.00     0.148 C 
HETATM   17  C18 UNL     1      27.712  -1.526  52.602  1.00  0.00     0.191 C 
HETATM   18  O1  UNL     1      28.043  -0.676  53.653  1.00  0.00    -0.355 OA
HETATM   19  H14 UNL     1      23.781  -1.696  54.324  1.00  0.00     0.183 HD
ENDROOT
BRANCH   5  20
HETATM   20  C5  UNL     1      26.093   3.362  50.596  1.00  0.00    -0.004 A 
HETATM   21  C6  UNL     1      26.964   3.601  49.527  1.00  0.00     0.014 A 
HETATM   22  C7  UNL     1      26.892   4.781  48.783  1.00  0.00     0.043 A 
HETATM   23  C8  UNL     1      25.921   5.680  49.168  1.00  0.00     0.116 A 
HETATM   24  F1  UNL     1      25.876   6.816  48.426  1.00  0.00    -0.206 F 
HETATM   25  C9  UNL     1      25.049   5.470  50.220  1.00  0.00     0.043 A 
HETATM   26  C10 UNL     1      25.160   4.293  50.921  1.00  0.00     0.014 A 
ENDBRANCH   5  20
TORSDOF 1
ENDMDL
MODEL 4
REMARK VINA RESULT:      -8.4      3.156      5.471
REMARK  1 active torsions:
REMARK  status: ('A' for Active; 'I' for Inactive)
REMARK    1  A    between atoms: C4_5  and  C5_6 
ROOT
HETATM    1  C1  UNL     1      26.465   0.608  55.361  1.00  0.00     0.077 C 
HETATM    2  C2  UNL     1      26.464   0.372  53.858  1.00  0.00     0.165 C 
HETATM    3  C3  UNL     1      26.682   1.693  53.234  1.00  0.00     0.146 C 
HETATM    4  N1  UNL     1      26.113   2.361  52.291  1.00  0.00    -0.261 NA
HETATM    5  C4  UNL     1      24.981   1.820  51.581  1.00  0.00     0.380 C 
HETATM    6  N2  UNL     1      23.978   1.286  52.439  1.00  0.00     0.146 N 
HETATM    7  C11 UNL     1      22.750   1.263  51.662  1.00  0.00     0.306 C 
HETATM    8  C12 UNL     1      21.722   0.382  52.252  1.00  0.00     0.014 C 
HETATM    9  C13 UNL     1      21.848  -0.319  53.364  1.00  0.00    -0.013 C 
HETATM   10  C14 UNL     1      21.090  -1.242  54.198  1.00  0.00     0.147 C 
HETATM   11  N3  UNL     1      21.918  -1.870  54.959  1.00  0.00    -0.191 NA
HETATM   12  N4  UNL     1      23.239  -1.463  54.734  1.00  0.00    -0.301 N 
HETATM   13  C15 UNL     1      23.169  -0.193  54.081  1.00  0.00     0.188 C 
HETATM   14  C16 UNL     1      24.195  -0.017  52.971  1.00  0.00     0.355 C 
HETATM   15  N5  UNL     1      25.414  -0.410  53.470  1.00  0.00    -0.345 N 
HETATM   16  C17 UNL     1      25.913  -1.702  53.079  1.00  0.00     0.148 C 
HETATM   17  C18 UNL     1      27.331  -1.298  52.650  1.00  0.00     0.191 C 
HETATM   18  O1  UNL     1      27.660  -0.344  53.607  1.00  0.00    -0.355 OA
HETATM   19  H14 UNL     1      23.918  -2.193  55.101  1.00  0.00     0.183 HD
ENDROOT
BRANCH   5  20
HETATM   20  C5  UNL     1      24.354   3.031  50.934  1.00  0.00    -0.004 A 
HETATM   21  C6  UNL     1      23.934   4.006  51.845  1.00  0.00     0.014 A 
HETATM   22  C7  UNL     1      23.333   5.190  51.412  1.00  0.00     0.043 A 
HETATM   23  C8  UNL     1      23.183   5.329  50.049  1.00  0.00     0.116 A 
HETATM   24  F1  UNL     1      22.595   6.489  49.660  1.00  0.00    -0.206 F 
HETATM   25  C9  UNL     1      23.587   4.381  49.128  1.00  0.00     0.043 A 
HETATM   26  C10 UNL     1      24.174   3.233  49.605  1.00  0.00     0.014 A 
ENDBRANCH   5  20
TORSDOF 1
ENDMDL
MODEL 5
REMARK VINA RESULT:      -8.2      2.879      5.776
REMARK  1 active torsions:
REMARK  status: ('A' for Active; 'I' for Inactive)
REMARK    1  A    between atoms: C4_5  and  C5_6 
ROOT
HETATM    1  C1  UNL     1      23.883   5.110  53.126  1.00  0.00     0.077 C 
HETATM    2  C2  UNL     1      23.592   4.090  52.035  1.00  0.00     0.165 C 
HETATM    3  C3  UNL     1      22.166   3.732  52.176  1.00  0.00     0.146 C 
HETATM    4  N1  UNL     1      21.504   2.628  52.228  1.00  0.00    -0.261 NA
HETATM    5  C4  UNL     1      22.179   1.357  52.141  1.00  0.00     0.380 C 
HETATM    6  N2  UNL     1      23.311   1.258  52.999  1.00  0.00     0.146 N 
HETATM    7  C11 UNL     1      23.555  -0.163  53.185  1.00  0.00     0.306 C 
HETATM    8  C12 UNL     1      24.908  -0.442  53.707  1.00  0.00     0.014 C 
HETATM    9  C13 UNL     1      25.827   0.460  54.000  1.00  0.00    -0.013 C 
HETATM   10  C14 UNL     1      27.191   0.547  54.505  1.00  0.00     0.147 C 
HETATM   11  N3  UNL     1      27.657   1.709  54.207  1.00  0.00    -0.191 NA
HETATM   12  N4  UNL     1      26.718   2.482  53.513  1.00  0.00    -0.301 N 
HETATM   13  C15 UNL     1      25.438   1.900  53.774  1.00  0.00     0.188 C 
HETATM   14  C16 UNL     1      24.522   1.865  52.560  1.00  0.00     0.355 C 
HETATM   15  N5  UNL     1      24.547   3.115  51.988  1.00  0.00    -0.345 N 
HETATM   16  C17 UNL     1      25.336   3.291  50.797  1.00  0.00     0.148 C 
HETATM   17  C18 UNL     1      24.295   3.994  49.915  1.00  0.00     0.191 C 
HETATM   18  O1  UNL     1      23.659   4.828  50.829  1.00  0.00    -0.355 OA
HETATM   19  H14 UNL     1      27.201   3.274  52.994  1.00  0.00     0.183 HD
ENDROOT
BRANCH   5  20
HETATM   20  C5  UNL     1      21.170   0.380  52.693  1.00  0.00    -0.004 A 
HETATM   21  C6  UNL     1      19.983   0.314  51.956  1.00  0.00     0.014 A 
HETATM   22  C7  UNL     1      18.944  -0.541  52.330  1.00  0.00     0.043 A 
HETATM   23  C8  UNL     1      19.164  -1.303  53.458  1.00  0.00     0.116 A 
HETATM   24  F1  UNL     1      18.137  -2.123  53.796  1.00  0.00    -0.206 F 
HETATM   25  C9  UNL     1      20.327  -1.256  54.204  1.00  0.00     0.043 A 
HETATM   26  C10 UNL     1      21.319  -0.398  53.794  1.00  0.00     0.014 A 
ENDBRANCH   5  20
TORSDOF 1
ENDMDL
MODEL 6
REMARK VINA RESULT:      -7.6      3.495      5.621
REMARK  1 active torsions:
REMARK  status: ('A' for Active; 'I' for Inactive)
REMARK    1  A    between atoms: C4_5  and  C5_6 
ROOT
HETATM    1  C1  UNL     1      18.439   4.193  50.814  1.00  0.00     0.077 C 
HETATM    2  C2  UNL     1      19.382   3.160  50.215  1.00  0.00     0.165 C 
HETATM    3  C3  UNL     1      19.244   1.946  51.045  1.00  0.00     0.146 C 
HETATM    4  N1  UNL     1      20.065   1.139  51.623  1.00  0.00    -0.261 NA
HETATM    5  C4  UNL     1      21.489   1.338  51.526  1.00  0.00     0.380 C 
HETATM    6  N2  UNL     1      21.893   2.677  51.794  1.00  0.00     0.146 N 
HETATM    7  C11 UNL     1      23.299   2.612  52.156  1.00  0.00     0.306 C 
HETATM    8  C12 UNL     1      23.967   3.927  52.074  1.00  0.00     0.014 C 
HETATM    9  C13 UNL     1      23.396   5.066  51.726  1.00  0.00    -0.013 C 
HETATM   10  C14 UNL     1      23.725   6.474  51.544  1.00  0.00     0.147 C 
HETATM   11  N3  UNL     1      22.802   7.012  50.826  1.00  0.00    -0.191 NA
HETATM   12  N4  UNL     1      21.815   6.085  50.469  1.00  0.00    -0.301 N 
HETATM   13  C15 UNL     1      21.928   4.995  51.388  1.00  0.00     0.188 C 
HETATM   14  C16 UNL     1      21.746   3.629  50.744  1.00  0.00     0.355 C 
HETATM   15  N5  UNL     1      20.616   3.688  49.963  1.00  0.00    -0.345 N 
HETATM   16  C17 UNL     1      20.791   3.810  48.540  1.00  0.00     0.148 C 
HETATM   17  C18 UNL     1      19.850   2.688  48.080  1.00  0.00     0.191 C 
HETATM   18  O1  UNL     1      18.792   2.814  48.975  1.00  0.00    -0.355 OA
HETATM   19  H14 UNL     1      21.263   6.436  49.632  1.00  0.00     0.183 HD
ENDROOT
BRANCH   5  20
HETATM   20  C5  UNL     1      22.042   0.517  52.665  1.00  0.00    -0.004 A 
HETATM   21  C6  UNL     1      21.133   0.306  53.707  1.00  0.00     0.014 A 
HETATM   22  C7  UNL     1      21.485  -0.434  54.837  1.00  0.00     0.043 A 
HETATM   23  C8  UNL     1      22.769  -0.934  54.857  1.00  0.00     0.116 A 
HETATM   24  F1  UNL     1      23.081  -1.648  55.968  1.00  0.00    -0.206 F 
HETATM   25  C9  UNL     1      23.688  -0.740  53.843  1.00  0.00     0.043 A 
HETATM   26  C10 UNL     1      23.292  -0.004  52.751  1.00  0.00     0.014 A 
ENDBRANCH   5  20
TORSDOF 1
ENDMDL
MODEL 7
REMARK VINA RESULT:      -7.3      3.078      6.036
REMARK  1 active torsions:
REMARK  status: ('A' for Active; 'I' for Inactive)
REMARK    1  A    between atoms: C4_5  and  C5_6 
ROOT
HETATM    1  C1  UNL     1      22.678  -2.000  52.162  1.00  0.00     0.077 C 
HETATM    2  C2  UNL     1      22.605  -0.819  53.119  1.00  0.00     0.165 C 
HETATM    3  C3  UNL     1      21.931   0.268  52.380  1.00  0.00     0.146 C 
HETATM    4  N1  UNL     1      22.171   1.516  52.176  1.00  0.00    -0.261 NA
HETATM    5  C4  UNL     1      23.339   2.146  52.738  1.00  0.00     0.380 C 
HETATM    6  N2  UNL     1      24.537   1.405  52.529  1.00  0.00     0.146 N 
HETATM    7  C11 UNL     1      25.630   2.352  52.673  1.00  0.00     0.306 C 
HETATM    8  C12 UNL     1      26.932   1.688  52.884  1.00  0.00     0.014 C 
HETATM    9  C13 UNL     1      27.138   0.384  52.933  1.00  0.00    -0.013 C 
HETATM   10  C14 UNL     1      28.222  -0.573  53.115  1.00  0.00     0.147 C 
HETATM   11  N3  UNL     1      27.706  -1.708  53.435  1.00  0.00    -0.191 NA
HETATM   12  N4  UNL     1      26.308  -1.643  53.499  1.00  0.00    -0.301 N 
HETATM   13  C15 UNL     1      25.919  -0.486  52.755  1.00  0.00     0.188 C 
HETATM   14  C16 UNL     1      24.786   0.302  53.394  1.00  0.00     0.355 C 
HETATM   15  N5  UNL     1      23.802  -0.595  53.737  1.00  0.00    -0.345 N 
HETATM   16  C17 UNL     1      23.690  -0.970  55.122  1.00  0.00     0.148 C 
HETATM   17  C18 UNL     1      22.182  -0.755  55.313  1.00  0.00     0.191 C 
HETATM   18  O1  UNL     1      21.670  -1.216  54.105  1.00  0.00    -0.355 OA
HETATM   19  H14 UNL     1      25.926  -2.453  54.071  1.00  0.00     0.183 HD
ENDROOT
BRANCH   5  20
HETATM   20  C5  UNL     1      23.496   3.403  51.918  1.00  0.00    -0.004 A 
HETATM   21  C6  UNL     1      23.648   3.171  50.547  1.00  0.00     0.014 A 
HETATM   22  C7  UNL     1      23.805   4.226  49.647  1.00  0.00     0.043 A 
HETATM   23  C8  UNL     1      23.801   5.492  50.191  1.00  0.00     0.116 A 
HETATM   24  F1  UNL     1      23.956   6.496  49.291  1.00  0.00    -0.206 F 
HETATM   25  C9  UNL     1      23.655   5.750  51.541  1.00  0.00     0.043 A 
HETATM   26  C10 UNL     1      23.503   4.677  52.387  1.00  0.00     0.014 A 
ENDBRANCH   5  20
TORSDOF 1
ENDMDL
MODEL 8
REMARK VINA RESULT:      -7.3      2.685      3.726
REMARK  1 active torsions:
REMARK  status: ('A' for Active; 'I' for Inactive)
REMARK    1  A    between atoms: C4_5  and  C5_6 
ROOT
HETATM    1  C1  UNL     1      22.797   5.231  47.998  1.00  0.00     0.077 C 
HETATM    2  C2  UNL     1      23.234   5.552  49.419  1.00  0.00     0.165 C 
HETATM    3  C3  UNL     1      24.409   4.699  49.691  1.00  0.00     0.146 C 
HETATM    4  N1  UNL     1      24.763   3.912  50.647  1.00  0.00    -0.261 NA
HETATM    5  C4  UNL     1      23.913   3.714  51.794  1.00  0.00     0.380 C 
HETATM    6  N2  UNL     1      22.556   3.447  51.454  1.00  0.00     0.146 N 
HETATM    7  C11 UNL     1      21.970   2.789  52.610  1.00  0.00     0.306 C 
HETATM    8  C12 UNL     1      20.494   2.806  52.584  1.00  0.00     0.014 C 
HETATM    9  C13 UNL     1      19.742   3.335  51.636  1.00  0.00    -0.013 C 
HETATM   10  C14 UNL     1      18.337   3.526  51.297  1.00  0.00     0.147 C 
HETATM   11  N3  UNL     1      18.262   4.456  50.409  1.00  0.00    -0.191 NA
HETATM   12  N4  UNL     1      19.526   4.959  50.076  1.00  0.00    -0.301 N 
HETATM   13  C15 UNL     1      20.478   3.974  50.485  1.00  0.00     0.188 C 
HETATM   14  C16 UNL     1      21.736   4.559  51.109  1.00  0.00     0.355 C 
HETATM   15  N5  UNL     1      22.177   5.565  50.283  1.00  0.00    -0.345 N 
HETATM   16  C17 UNL     1      21.917   6.923  50.683  1.00  0.00     0.148 C 
HETATM   17  C18 UNL     1      23.325   7.506  50.503  1.00  0.00     0.191 C 
HETATM   18  O1  UNL     1      23.755   6.866  49.345  1.00  0.00    -0.355 OA
HETATM   19  H14 UNL     1      19.435   5.914  49.620  1.00  0.00     0.183 HD
ENDROOT
BRANCH   5  20
HETATM   20  C5  UNL     1      24.432   2.437  52.407  1.00  0.00    -0.004 A 
HETATM   21  C6  UNL     1      25.353   2.638  53.441  1.00  0.00     0.014 A 
HETATM   22  C7  UNL     1      25.931   1.560  54.116  1.00  0.00     0.043 A 
HETATM   23  C8  UNL     1      25.539   0.306  53.700  1.00  0.00     0.116 A 
HETATM   24  F1  UNL     1      26.118  -0.720  54.375  1.00  0.00    -0.206 F 
HETATM   25  C9  UNL     1      24.633   0.079  52.681  1.00  0.00     0.043 A 
HETATM   26  C10 UNL     1      24.093   1.173  52.048  1.00  0.00     0.014 A 
ENDBRANCH   5  20
TORSDOF 1
ENDMDL
MODEL 9
REMARK VINA RESULT:      -7.3      5.378      7.999
REMARK  1 active torsions:
REMARK  status: ('A' for Active; 'I' for Inactive)
REMARK    1  A    between atoms: C4_5  and  C5_6 
ROOT
HETATM    1  C1  UNL     1      14.797  -0.464  49.919  1.00  0.00     0.077 C 
HETATM    2  C2  UNL     1      15.301   0.413  51.056  1.00  0.00     0.165 C 
HETATM    3  C3  UNL     1      16.416   1.206  50.501  1.00  0.00     0.146 C 
HETATM    4  N1  UNL     1      17.621   1.470  50.873  1.00  0.00    -0.261 NA
HETATM    5  C4  UNL     1      18.148   0.936  52.103  1.00  0.00     0.380 C 
HETATM    6  N2  UNL     1      17.911  -0.460  52.262  1.00  0.00     0.146 N 
HETATM    7  C11 UNL     1      18.892  -0.931  53.225  1.00  0.00     0.306 C 
HETATM    8  C12 UNL     1      18.538  -2.245  53.799  1.00  0.00     0.014 C 
HETATM    9  C13 UNL     1      17.468  -2.958  53.498  1.00  0.00    -0.013 C 
HETATM   10  C14 UNL     1      16.831  -4.222  53.844  1.00  0.00     0.147 C 
HETATM   11  N3  UNL     1      15.600  -4.168  53.471  1.00  0.00    -0.191 NA
HETATM   12  N4  UNL     1      15.294  -2.940  52.871  1.00  0.00    -0.301 N 
HETATM   13  C15 UNL     1      16.538  -2.359  52.472  1.00  0.00     0.188 C 
HETATM   14  C16 UNL     1      16.619  -0.859  52.708  1.00  0.00     0.355 C 
HETATM   15  N5  UNL     1      15.467  -0.300  52.208  1.00  0.00    -0.345 N 
HETATM   16  C17 UNL     1      14.446   0.085  53.147  1.00  0.00     0.148 C 
HETATM   17  C18 UNL     1      14.178   1.511  52.647  1.00  0.00     0.191 C 
HETATM   18  O1  UNL     1      14.264   1.354  51.267  1.00  0.00    -0.355 OA
HETATM   19  H14 UNL     1      14.244  -2.777  52.875  1.00  0.00     0.183 HD
ENDROOT
BRANCH   5  20
HETATM   20  C5  UNL     1      19.642   1.073  51.941  1.00  0.00    -0.004 A 
HETATM   21  C6  UNL     1      20.120   0.638  50.700  1.00  0.00     0.014 A 
HETATM   22  C7  UNL     1      21.479   0.696  50.386  1.00  0.00     0.043 A 
HETATM   23  C8  UNL     1      22.305   1.203  51.366  1.00  0.00     0.116 A 
HETATM   24  F1  UNL     1      23.620   1.247  51.031  1.00  0.00    -0.206 F 
HETATM   25  C9  UNL     1      21.860   1.639  52.600  1.00  0.00     0.043 A 
HETATM   26  C10 UNL     1      20.512   1.560  52.860  1.00  0.00     0.014 A 
ENDBRANCH   5  20
TORSDOF 1
ENDMDL
