MODEL 1
REMARK VINA RESULT:      -7.9      0.000      0.000
REMARK  1 active torsions:
REMARK  status: ('A' for Active; 'I' for Inactive)
REMARK    1  A    between atoms: C17_20  and  N2_21 
ROOT
HETATM    1  C1  UNL     1      27.648  -0.517  53.939  1.00  0.00     0.038 A 
HETATM    2  C2  UNL     1      26.395  -0.216  53.625  1.00  0.00    -0.076 A 
HETATM    3  C3  UNL     1      25.065  -0.513  54.205  1.00  0.00     0.010 C 
HETATM    4  C4  UNL     1      24.257   0.133  53.323  1.00  0.00     0.059 C 
HETATM    5  C5  UNL     1      22.772   0.233  53.334  1.00  0.00    -0.080 C 
HETATM    6  C6  UNL     1      21.427  -0.102  53.991  1.00  0.00     0.043 C 
HETATM    7  C7  UNL     1      22.529   0.974  52.230  1.00  0.00    -0.004 C 
HETATM    8  C8  UNL     1      23.362   1.580  51.209  1.00  0.00     0.095 C 
HETATM    9  C9  UNL     1      22.677   1.934  49.901  1.00  0.00     0.051 C 
HETATM   10  C10 UNL     1      22.605   3.396  50.366  1.00  0.00     0.029 C 
HETATM   11  C11 UNL     1      21.338   3.680  51.042  1.00  0.00     0.054 C 
HETATM   12  C12 UNL     1      20.805   5.055  50.835  1.00  0.00    -0.010 C 
HETATM   13  C13 UNL     1      21.189   5.897  49.855  1.00  0.00    -0.015 C 
HETATM   14 BR1  UNL     1      20.417   7.641  49.708  1.00  0.00    -0.056 Br
HETATM   15  C14 UNL     1      22.221   5.428  48.907  1.00  0.00     0.048 C 
HETATM   16  C15 UNL     1      23.105   4.349  49.372  1.00  0.00     0.032 C 
HETATM   17  N1  UNL     1      23.649   2.991  51.337  1.00  0.00    -0.240 NA
HETATM   18  S1  UNL     1      25.280   3.160  50.581  1.00  0.00    -0.068 SA
HETATM   19  C16 UNL     1      26.539   2.618  51.655  1.00  0.00     0.135 C 
HETATM   20  C17 UNL     1      27.161   1.630  52.333  1.00  0.00     0.043 C 
HETATM   21  O1  UNL     1      27.369   0.297  52.766  1.00  0.00     0.000 OA
ENDROOT
BRANCH  20  22
HETATM   22  N2  UNL     1      28.140   2.488  52.905  1.00  0.00    -0.400 N 
HETATM   23  H20 UNL     1      28.136   2.940  53.848  1.00  0.00     0.156 HD
HETATM   24  H21 UNL     1      29.074   2.944  52.692  1.00  0.00     0.156 HD
ENDBRANCH  20  22
TORSDOF 1
ENDMDL
MODEL 2
REMARK VINA RESULT:      -7.9      2.610      3.609
REMARK  1 active torsions:
REMARK  status: ('A' for Active; 'I' for Inactive)
REMARK    1  A    between atoms: C17_20  and  N2_21 
ROOT
HETATM    1  C1  UNL     1      23.145  -1.136  54.723  1.00  0.00     0.038 A 
HETATM    2  C2  UNL     1      22.867  -0.125  53.910  1.00  0.00    -0.076 A 
HETATM    3  C3  UNL     1      21.723   0.798  53.732  1.00  0.00     0.010 C 
HETATM    4  C4  UNL     1      22.171   1.556  52.696  1.00  0.00     0.059 C 
HETATM    5  C5  UNL     1      21.487   2.692  52.020  1.00  0.00    -0.080 C 
HETATM    6  C6  UNL     1      20.274   3.623  51.895  1.00  0.00     0.043 C 
HETATM    7  C7  UNL     1      22.386   3.044  51.075  1.00  0.00    -0.004 C 
HETATM    8  C8  UNL     1      23.697   2.556  50.687  1.00  0.00     0.095 C 
HETATM    9  C9  UNL     1      24.169   2.924  49.292  1.00  0.00     0.051 C 
HETATM   10  C10 UNL     1      25.032   4.036  49.906  1.00  0.00     0.029 C 
HETATM   11  C11 UNL     1      24.315   5.312  49.939  1.00  0.00     0.054 C 
HETATM   12  C12 UNL     1      25.163   6.519  49.739  1.00  0.00    -0.010 C 
HETATM   13  C13 UNL     1      26.406   6.517  49.214  1.00  0.00    -0.015 C 
HETATM   14 BR1  UNL     1      27.384   8.149  49.015  1.00  0.00    -0.056 Br
HETATM   15  C14 UNL     1      26.979   5.219  48.803  1.00  0.00     0.048 C 
HETATM   16  C15 UNL     1      26.422   4.018  49.443  1.00  0.00     0.032 C 
HETATM   17  N1  UNL     1      24.847   3.286  51.171  1.00  0.00    -0.240 NA
HETATM   18  S1  UNL     1      26.122   2.017  51.317  1.00  0.00    -0.068 SA
HETATM   19  C16 UNL     1      25.901   1.054  52.750  1.00  0.00     0.135 C 
HETATM   20  C17 UNL     1      25.189   0.156  53.465  1.00  0.00     0.043 C 
HETATM   21  O1  UNL     1      24.110  -0.729  53.714  1.00  0.00     0.000 OA
ENDROOT
BRANCH  20  22
HETATM   22  N2  UNL     1      26.087   0.155  54.567  1.00  0.00    -0.400 N 
HETATM   23  H20 UNL     1      25.883  -0.056  55.571  1.00  0.00     0.156 HD
HETATM   24  H21 UNL     1      27.105   0.324  54.810  1.00  0.00     0.156 HD
ENDBRANCH  20  22
TORSDOF 1
ENDMDL
MODEL 3
REMARK VINA RESULT:      -7.9      2.681      4.253
REMARK  1 active torsions:
REMARK  status: ('A' for Active; 'I' for Inactive)
REMARK    1  A    between atoms: C17_20  and  N2_21 
ROOT
HETATM    1  C1  UNL     1      21.744  -1.592  54.580  1.00  0.00     0.038 A 
HETATM    2  C2  UNL     1      22.510  -0.686  53.987  1.00  0.00    -0.076 A 
HETATM    3  C3  UNL     1      23.878  -0.675  53.418  1.00  0.00     0.010 C 
HETATM    4  C4  UNL     1      23.963   0.615  52.996  1.00  0.00     0.059 C 
HETATM    5  C5  UNL     1      25.102   1.291  52.318  1.00  0.00    -0.080 C 
HETATM    6  C6  UNL     1      26.521   1.233  51.737  1.00  0.00     0.043 C 
HETATM    7  C7  UNL     1      24.629   2.546  52.150  1.00  0.00    -0.004 C 
HETATM    8  C8  UNL     1      23.386   3.217  52.482  1.00  0.00     0.095 C 
HETATM    9  C9  UNL     1      23.431   4.733  52.538  1.00  0.00     0.051 C 
HETATM   10  C10 UNL     1      22.798   4.777  51.139  1.00  0.00     0.029 C 
HETATM   11  C11 UNL     1      23.820   4.841  50.093  1.00  0.00     0.054 C 
HETATM   12  C12 UNL     1      23.445   5.637  48.891  1.00  0.00    -0.010 C 
HETATM   13  C13 UNL     1      22.443   6.537  48.838  1.00  0.00    -0.015 C 
HETATM   14 BR1  UNL     1      22.072   7.490  47.222  1.00  0.00    -0.056 Br
HETATM   15  C14 UNL     1      21.647   6.757  50.063  1.00  0.00     0.048 C 
HETATM   16  C15 UNL     1      21.639   5.668  51.051  1.00  0.00     0.032 C 
HETATM   17  N1  UNL     1      22.413   3.374  51.424  1.00  0.00    -0.240 NA
HETATM   18  S1  UNL     1      20.833   3.343  52.296  1.00  0.00    -0.068 SA
HETATM   19  C16 UNL     1      20.374   1.720  52.727  1.00  0.00     0.135 C 
HETATM   20  C17 UNL     1      20.577   0.591  53.439  1.00  0.00     0.043 C 
HETATM   21  O1  UNL     1      21.244  -0.242  54.372  1.00  0.00     0.000 OA
ENDROOT
BRANCH  20  22
HETATM   22  N2  UNL     1      19.458  -0.091  52.887  1.00  0.00    -0.400 N 
HETATM   23  H20 UNL     1      18.979  -0.948  53.245  1.00  0.00     0.156 HD
HETATM   24  H21 UNL     1      18.779  -0.051  52.074  1.00  0.00     0.156 HD
ENDBRANCH  20  22
TORSDOF 1
ENDMDL
MODEL 4
REMARK VINA RESULT:      -7.9      3.752      6.402
REMARK  1 active torsions:
REMARK  status: ('A' for Active; 'I' for Inactive)
REMARK    1  A    between atoms: C17_20  and  N2_21 
ROOT
HETATM    1  C1  UNL     1      19.583   2.124  49.032  1.00  0.00     0.038 A 
HETATM    2  C2  UNL     1      20.247   1.657  50.081  1.00  0.00    -0.076 A 
HETATM    3  C3  UNL     1      20.006   0.606  51.096  1.00  0.00     0.010 C 
HETATM    4  C4  UNL     1      21.132   0.721  51.850  1.00  0.00     0.059 C 
HETATM    5  C5  UNL     1      21.523  -0.065  53.051  1.00  0.00    -0.080 C 
HETATM    6  C6  UNL     1      21.218  -1.175  54.065  1.00  0.00     0.043 C 
HETATM    7  C7  UNL     1      22.714   0.487  53.376  1.00  0.00    -0.004 C 
HETATM    8  C8  UNL     1      23.525   1.554  52.822  1.00  0.00     0.095 C 
HETATM    9  C9  UNL     1      24.562   2.164  53.746  1.00  0.00     0.051 C 
HETATM   10  C10 UNL     1      25.640   1.315  53.054  1.00  0.00     0.029 C 
HETATM   11  C11 UNL     1      25.847   0.044  53.751  1.00  0.00     0.054 C 
HETATM   12  C12 UNL     1      27.246  -0.466  53.732  1.00  0.00    -0.010 C 
HETATM   13  C13 UNL     1      28.337   0.272  53.444  1.00  0.00    -0.015 C 
HETATM   14 BR1  UNL     1      30.080  -0.517  53.458  1.00  0.00    -0.056 Br
HETATM   15  C14 UNL     1      28.140   1.700  53.121  1.00  0.00     0.048 C 
HETATM   16  C15 UNL     1      26.809   2.089  52.631  1.00  0.00     0.032 C 
HETATM   17  N1  UNL     1      24.633   1.174  51.975  1.00  0.00    -0.240 NA
HETATM   18  S1  UNL     1      24.779   2.558  50.824  1.00  0.00    -0.068 SA
HETATM   19  C16 UNL     1      23.564   2.483  49.580  1.00  0.00     0.135 C 
HETATM   20  C17 UNL     1      22.271   2.541  49.194  1.00  0.00     0.043 C 
HETATM   21  O1  UNL     1      20.875   2.691  49.384  1.00  0.00     0.000 OA
ENDROOT
BRANCH  20  22
HETATM   22  N2  UNL     1      22.556   2.313  47.820  1.00  0.00    -0.400 N 
HETATM   23  H20 UNL     1      22.146   1.593  47.182  1.00  0.00     0.156 HD
HETATM   24  H21 UNL     1      23.156   2.675  47.024  1.00  0.00     0.156 HD
ENDBRANCH  20  22
TORSDOF 1
ENDMDL
MODEL 5
REMARK VINA RESULT:      -7.7      3.471      5.532
REMARK  1 active torsions:
REMARK  status: ('A' for Active; 'I' for Inactive)
REMARK    1  A    between atoms: C17_20  and  N2_21 
ROOT
HETATM    1  C1  UNL     1      17.988  -0.145  51.790  1.00  0.00     0.038 A 
HETATM    2  C2  UNL     1      19.249   0.119  52.107  1.00  0.00    -0.076 A 
HETATM    3  C3  UNL     1      20.337  -0.616  52.792  1.00  0.00     0.010 C 
HETATM    4  C4  UNL     1      21.333   0.308  52.744  1.00  0.00     0.059 C 
HETATM    5  C5  UNL     1      22.723   0.197  53.265  1.00  0.00    -0.080 C 
HETATM    6  C6  UNL     1      23.810  -0.623  53.973  1.00  0.00     0.043 C 
HETATM    7  C7  UNL     1      23.244   1.403  52.948  1.00  0.00    -0.004 C 
HETATM    8  C8  UNL     1      22.731   2.590  52.290  1.00  0.00     0.095 C 
HETATM    9  C9  UNL     1      23.488   3.881  52.542  1.00  0.00     0.051 C 
HETATM   10  C10 UNL     1      24.172   3.715  51.176  1.00  0.00     0.029 C 
HETATM   11  C11 UNL     1      25.448   3.008  51.300  1.00  0.00     0.054 C 
HETATM   12  C12 UNL     1      26.507   3.443  50.347  1.00  0.00    -0.010 C 
HETATM   13  C13 UNL     1      26.501   4.601  49.656  1.00  0.00    -0.015 C 
HETATM   14 BR1  UNL     1      27.932   5.031  48.462  1.00  0.00    -0.056 Br
HETATM   15  C14 UNL     1      25.359   5.516  49.852  1.00  0.00     0.048 C 
HETATM   16  C15 UNL     1      24.108   4.918  50.341  1.00  0.00     0.032 C 
HETATM   17  N1  UNL     1      23.064   2.771  50.895  1.00  0.00    -0.240 NA
HETATM   18  S1  UNL     1      21.647   3.677  50.237  1.00  0.00    -0.068 SA
HETATM   19  C16 UNL     1      20.288   2.623  49.966  1.00  0.00     0.135 C 
HETATM   20  C17 UNL     1      19.316   1.814  50.437  1.00  0.00     0.043 C 
HETATM   21  O1  UNL     1      18.572   1.140  51.438  1.00  0.00     0.000 OA
ENDROOT
BRANCH  20  22
HETATM   22  N2  UNL     1      18.794   1.507  49.151  1.00  0.00    -0.400 N 
HETATM   23  H20 UNL     1      19.299   1.128  48.318  1.00  0.00     0.156 HD
HETATM   24  H21 UNL     1      17.890   1.522  48.595  1.00  0.00     0.156 HD
ENDBRANCH  20  22
TORSDOF 1
ENDMDL
MODEL 6
REMARK VINA RESULT:      -7.6      4.116      7.536
REMARK  1 active torsions:
REMARK  status: ('A' for Active; 'I' for Inactive)
REMARK    1  A    between atoms: C17_20  and  N2_21 
ROOT
HETATM    1  C1  UNL     1      22.733   8.924  48.405  1.00  0.00     0.038 A 
HETATM    2  C2  UNL     1      23.673   7.998  48.537  1.00  0.00    -0.076 A 
HETATM    3  C3  UNL     1      25.129   7.932  48.268  1.00  0.00     0.010 C 
HETATM    4  C4  UNL     1      25.396   6.654  48.651  1.00  0.00     0.059 C 
HETATM    5  C5  UNL     1      26.701   5.941  48.637  1.00  0.00    -0.080 C 
HETATM    6  C6  UNL     1      28.208   5.941  48.347  1.00  0.00     0.043 C 
HETATM    7  C7  UNL     1      26.364   4.720  49.108  1.00  0.00    -0.004 C 
HETATM    8  C8  UNL     1      25.124   4.107  49.546  1.00  0.00     0.095 C 
HETATM    9  C9  UNL     1      25.090   2.590  49.563  1.00  0.00     0.051 C 
HETATM   10  C10 UNL     1      25.324   2.628  51.081  1.00  0.00     0.029 C 
HETATM   11  C11 UNL     1      26.750   2.544  51.403  1.00  0.00     0.054 C 
HETATM   12  C12 UNL     1      27.071   1.811  52.659  1.00  0.00    -0.010 C 
HETATM   13  C13 UNL     1      26.237   0.969  53.302  1.00  0.00    -0.015 C 
HETATM   14 BR1  UNL     1      26.785   0.093  54.912  1.00  0.00    -0.056 Br
HETATM   15  C14 UNL     1      24.895   0.751  52.724  1.00  0.00     0.048 C 
HETATM   16  C15 UNL     1      24.378   1.805  51.838  1.00  0.00     0.032 C 
HETATM   17  N1  UNL     1      24.884   4.039  50.970  1.00  0.00    -0.240 NA
HETATM   18  S1  UNL     1      23.085   4.126  51.100  1.00  0.00    -0.068 SA
HETATM   19  C16 UNL     1      22.510   5.757  50.895  1.00  0.00     0.135 C 
HETATM   20  C17 UNL     1      22.321   6.848  50.122  1.00  0.00     0.043 C 
HETATM   21  O1  UNL     1      22.391   7.611  48.930  1.00  0.00     0.000 OA
ENDROOT
BRANCH  20  22
HETATM   22  N2  UNL     1      21.705   7.608  51.154  1.00  0.00    -0.400 N 
HETATM   23  H20 UNL     1      21.187   7.263  51.995  1.00  0.00     0.156 HD
HETATM   24  H21 UNL     1      21.533   8.609  51.460  1.00  0.00     0.156 HD
ENDBRANCH  20  22
TORSDOF 1
ENDMDL
MODEL 7
REMARK VINA RESULT:      -7.6      1.339      1.707
REMARK  1 active torsions:
REMARK  status: ('A' for Active; 'I' for Inactive)
REMARK    1  A    between atoms: C17_20  and  N2_21 
ROOT
HETATM    1  C1  UNL     1      25.358  -0.620  54.455  1.00  0.00     0.038 A 
HETATM    2  C2  UNL     1      24.381  -0.227  53.648  1.00  0.00    -0.076 A 
HETATM    3  C3  UNL     1      22.920  -0.464  53.573  1.00  0.00     0.010 C 
HETATM    4  C4  UNL     1      22.605   0.268  52.470  1.00  0.00     0.059 C 
HETATM    5  C5  UNL     1      21.270   0.460  51.841  1.00  0.00    -0.080 C 
HETATM    6  C6  UNL     1      19.761   0.185  51.826  1.00  0.00     0.043 C 
HETATM    7  C7  UNL     1      21.563   1.260  50.792  1.00  0.00    -0.004 C 
HETATM    8  C8  UNL     1      22.782   1.853  50.275  1.00  0.00     0.095 C 
HETATM    9  C9  UNL     1      22.752   2.303  48.826  1.00  0.00     0.051 C 
HETATM   10  C10 UNL     1      22.541   3.747  49.306  1.00  0.00     0.029 C 
HETATM   11  C11 UNL     1      21.118   4.082  49.381  1.00  0.00     0.054 C 
HETATM   12  C12 UNL     1      20.784   5.495  49.051  1.00  0.00    -0.010 C 
HETATM   13  C13 UNL     1      21.591   6.351  48.392  1.00  0.00    -0.015 C 
HETATM   14 BR1  UNL     1      21.030   8.144  48.036  1.00  0.00    -0.056 Br
HETATM   15  C14 UNL     1      22.914   5.856  47.958  1.00  0.00     0.048 C 
HETATM   16  C15 UNL     1      23.463   4.706  48.691  1.00  0.00     0.032 C 
HETATM   17  N1  UNL     1      23.039   3.237  50.606  1.00  0.00    -0.240 NA
HETATM   18  S1  UNL     1      24.842   3.333  50.646  1.00  0.00    -0.068 SA
HETATM   19  C16 UNL     1      25.482   2.670  52.123  1.00  0.00     0.135 C 
HETATM   20  C17 UNL     1      25.706   1.618  52.939  1.00  0.00     0.043 C 
HETATM   21  O1  UNL     1      25.651   0.258  53.333  1.00  0.00     0.000 OA
ENDROOT
BRANCH  20  22
HETATM   22  N2  UNL     1      26.368   2.389  53.933  1.00  0.00    -0.400 N 
HETATM   23  H20 UNL     1      26.130   3.346  54.279  1.00  0.00     0.156 HD
HETATM   24  H21 UNL     1      27.190   2.353  54.602  1.00  0.00     0.156 HD
ENDBRANCH  20  22
TORSDOF 1
ENDMDL
MODEL 8
REMARK VINA RESULT:      -7.5      3.010      4.420
REMARK  1 active torsions:
REMARK  status: ('A' for Active; 'I' for Inactive)
REMARK    1  A    between atoms: C17_20  and  N2_21 
ROOT
HETATM    1  C1  UNL     1      28.071   0.893  53.129  1.00  0.00     0.038 A 
HETATM    2  C2  UNL     1      27.032   1.454  52.525  1.00  0.00    -0.076 A 
HETATM    3  C3  UNL     1      26.849   2.337  51.350  1.00  0.00     0.010 C 
HETATM    4  C4  UNL     1      25.498   2.491  51.360  1.00  0.00     0.059 C 
HETATM    5  C5  UNL     1      24.651   3.275  50.422  1.00  0.00    -0.080 C 
HETATM    6  C6  UNL     1      24.529   4.180  49.189  1.00  0.00     0.043 C 
HETATM    7  C7  UNL     1      23.411   3.073  50.920  1.00  0.00    -0.004 C 
HETATM    8  C8  UNL     1      22.877   2.332  52.046  1.00  0.00     0.095 C 
HETATM    9  C9  UNL     1      21.493   2.733  52.525  1.00  0.00     0.051 C 
HETATM   10  C10 UNL     1      20.912   1.529  51.768  1.00  0.00     0.029 C 
HETATM   11  C11 UNL     1      20.491   1.900  50.416  1.00  0.00     0.054 C 
HETATM   12  C12 UNL     1      19.293   1.177  49.906  1.00  0.00    -0.010 C 
HETATM   13  C13 UNL     1      18.410   0.503  50.670  1.00  0.00    -0.015 C 
HETATM   14 BR1  UNL     1      16.911  -0.383  49.877  1.00  0.00    -0.056 Br
HETATM   15  C14 UNL     1      18.640   0.473  52.129  1.00  0.00     0.048 C 
HETATM   16  C15 UNL     1      20.019   0.704  52.586  1.00  0.00     0.032 C 
HETATM   17  N1  UNL     1      22.308   1.031  51.776  1.00  0.00    -0.240 NA
HETATM   18  S1  UNL     1      22.616   0.110  53.298  1.00  0.00    -0.068 SA
HETATM   19  C16 UNL     1      24.268  -0.429  53.393  1.00  0.00     0.135 C 
HETATM   20  C17 UNL     1      25.587  -0.163  53.508  1.00  0.00     0.043 C 
HETATM   21  O1  UNL     1      26.727   0.668  53.638  1.00  0.00     0.000 OA
ENDROOT
BRANCH  20  22
HETATM   22  N2  UNL     1      25.980  -1.528  53.461  1.00  0.00    -0.400 N 
HETATM   23  H20 UNL     1      26.236  -2.158  54.256  1.00  0.00     0.156 HD
HETATM   24  H21 UNL     1      26.150  -2.322  52.779  1.00  0.00     0.156 HD
ENDBRANCH  20  22
TORSDOF 1
ENDMDL
MODEL 9
REMARK VINA RESULT:      -7.4      4.747      7.455
REMARK  1 active torsions:
REMARK  status: ('A' for Active; 'I' for Inactive)
REMARK    1  A    between atoms: C17_20  and  N2_21 
ROOT
HETATM    1  C1  UNL     1      15.812   1.607  49.271  1.00  0.00     0.038 A 
HETATM    2  C2  UNL     1      16.558   1.021  50.199  1.00  0.00    -0.076 A 
HETATM    3  C3  UNL     1      16.465  -0.230  50.988  1.00  0.00     0.010 C 
HETATM    4  C4  UNL     1      17.597  -0.138  51.736  1.00  0.00     0.059 C 
HETATM    5  C5  UNL     1      18.111  -1.095  52.753  1.00  0.00    -0.080 C 
HETATM    6  C6  UNL     1      17.962  -2.410  53.529  1.00  0.00     0.043 C 
HETATM    7  C7  UNL     1      19.245  -0.488  53.168  1.00  0.00    -0.004 C 
HETATM    8  C8  UNL     1      19.917   0.751  52.827  1.00  0.00     0.095 C 
HETATM    9  C9  UNL     1      20.913   1.281  53.842  1.00  0.00     0.051 C 
HETATM   10  C10 UNL     1      22.052   0.710  52.983  1.00  0.00     0.029 C 
HETATM   11  C11 UNL     1      22.418  -0.641  53.411  1.00  0.00     0.054 C 
HETATM   12  C12 UNL     1      23.863  -0.976  53.275  1.00  0.00    -0.010 C 
HETATM   13  C13 UNL     1      24.858  -0.079  53.127  1.00  0.00    -0.015 C 
HETATM   14 BR1  UNL     1      26.675  -0.654  52.963  1.00  0.00    -0.056 Br
HETATM   15  C14 UNL     1      24.497   1.353  53.096  1.00  0.00     0.048 C 
HETATM   16  C15 UNL     1      23.117   1.679  52.709  1.00  0.00     0.032 C 
HETATM   17  N1  UNL     1      21.031   0.672  51.909  1.00  0.00    -0.240 NA
HETATM   18  S1  UNL     1      20.989   2.262  51.055  1.00  0.00    -0.068 SA
HETATM   19  C16 UNL     1      19.748   2.296  49.834  1.00  0.00     0.135 C 
HETATM   20  C17 UNL     1      18.444   2.283  49.482  1.00  0.00     0.043 C 
HETATM   21  O1  UNL     1      17.047   2.235  49.715  1.00  0.00     0.000 OA
ENDROOT
BRANCH  20  22
HETATM   22  N2  UNL     1      18.705   2.363  48.087  1.00  0.00    -0.400 N 
HETATM   23  H20 UNL     1      18.452   3.129  47.422  1.00  0.00     0.156 HD
HETATM   24  H21 UNL     1      19.156   1.824  47.293  1.00  0.00     0.156 HD
ENDBRANCH  20  22
TORSDOF 1
ENDMDL
