MODEL 1
REMARK VINA RESULT:     -11.5      0.000      0.000
REMARK  2 active torsions:
REMARK  status: ('A' for Active; 'I' for Inactive)
REMARK    1  A    between atoms: N1_12  and  C12_13 
REMARK    2  A    between atoms: C20_21  and  N2_22 
ROOT
HETATM    1  C1  UNL     1      17.764   3.153  48.197  1.00  0.00     0.046 C 
HETATM    2  C2  UNL     1      18.476   2.322  49.208  1.00  0.00    -0.042 A 
HETATM    3  C3  UNL     1      19.804   2.093  49.162  1.00  0.00     0.244 A 
HETATM    4  C4  UNL     1      19.524   1.358  50.328  1.00  0.00     0.245 A 
HETATM    5  C5  UNL     1      18.179   1.552  50.429  1.00  0.00     0.027 A 
HETATM    6  C6  UNL     1      20.571   0.677  51.037  1.00  0.00     0.158 A 
HETATM    7  C7  UNL     1      21.518   0.098  51.782  1.00  0.00     0.014 C 
HETATM    8  C8  UNL     1      21.600   0.555  53.162  1.00  0.00     0.074 C 
HETATM    9  C9  UNL     1      22.738  -0.020  53.901  1.00  0.00     0.027 A 
HETATM   10  C10 UNL     1      24.071   0.207  54.063  1.00  0.00     0.040 A 
HETATM   11  C11 UNL     1      24.643   1.327  53.327  1.00  0.00     0.168 C 
HETATM   12  N1  UNL     1      25.993   1.246  52.852  1.00  0.00    -0.376 N 
HETATM   13  C18 UNL     1      26.434   2.434  52.001  1.00  0.00     0.127 C 
HETATM   14  C19 UNL     1      25.500   2.437  50.954  1.00  0.00     0.084 C 
HETATM   15  C20 UNL     1      25.377   3.105  49.597  1.00  0.00     0.359 C 
HETATM   16  O1  UNL     1      24.079   3.002  49.441  1.00  0.00    -0.355 OA
HETATM   17  C23 UNL     1      22.856   2.898  49.288  1.00  0.00     0.199 C 
HETATM   18  C24 UNL     1      22.287   1.491  49.654  1.00  0.00     0.273 C 
HETATM   19  N3  UNL     1      20.865   1.466  49.805  1.00  0.00     0.004 N 
HETATM   20  C25 UNL     1      24.615  -0.789  54.954  1.00  0.00     0.256 A 
HETATM   21  O2  UNL     1      25.813  -0.910  55.350  1.00  0.00    -0.267 OA
HETATM   22  N4  UNL     1      23.611  -1.692  55.387  1.00  0.00    -0.290 N 
HETATM   23  C26 UNL     1      22.437  -1.223  54.736  1.00  0.00     0.255 A 
HETATM   24  O3  UNL     1      21.374  -1.906  54.980  1.00  0.00    -0.268 OA
HETATM   25  H30 UNL     1      23.763  -2.506  56.037  1.00  0.00     0.172 HD
ENDROOT
BRANCH  12  26
HETATM   26  C12 UNL     1      27.087   0.312  53.025  1.00  0.00     0.030 A 
HETATM   27  C13 UNL     1      28.062   1.070  53.716  1.00  0.00     0.029 A 
HETATM   28  C14 UNL     1      29.286   0.573  54.080  1.00  0.00     0.002 A 
HETATM   29  C15 UNL     1      29.603  -0.734  53.774  1.00  0.00     0.000 A 
HETATM   30  C16 UNL     1      28.652  -1.484  53.092  1.00  0.00     0.002 A 
HETATM   31  C17 UNL     1      27.430  -0.982  52.725  1.00  0.00     0.029 A 
ENDBRANCH  12  26
BRANCH  15  32
HETATM   32  N2  UNL     1      25.811   4.514  49.682  1.00  0.00     0.108 N 
HETATM   33  C21 UNL     1      27.077   4.638  48.996  1.00  0.00     0.312 C 
HETATM   34  C22 UNL     1      24.834   5.292  48.962  1.00  0.00     0.312 C 
ENDBRANCH  15  32
TORSDOF 2
ENDMDL
MODEL 2
REMARK VINA RESULT:     -10.4      2.480      7.406
REMARK  2 active torsions:
REMARK  status: ('A' for Active; 'I' for Inactive)
REMARK    1  A    between atoms: N1_12  and  C12_13 
REMARK    2  A    between atoms: C20_21  and  N2_22 
ROOT
HETATM    1  C1  UNL     1      29.722   6.213  48.196  1.00  0.00     0.046 C 
HETATM    2  C2  UNL     1      28.242   6.152  48.356  1.00  0.00    -0.042 A 
HETATM    3  C3  UNL     1      27.591   5.027  48.713  1.00  0.00     0.244 A 
HETATM    4  C4  UNL     1      26.470   5.870  48.607  1.00  0.00     0.245 A 
HETATM    5  C5  UNL     1      27.070   7.038  48.243  1.00  0.00     0.027 A 
HETATM    6  C6  UNL     1      25.149   5.373  48.871  1.00  0.00     0.158 A 
HETATM    7  C7  UNL     1      23.910   4.986  49.190  1.00  0.00     0.014 C 
HETATM    8  C8  UNL     1      23.267   5.748  50.252  1.00  0.00     0.074 C 
HETATM    9  C9  UNL     1      21.957   5.202  50.650  1.00  0.00     0.027 A 
HETATM   10  C10 UNL     1      21.460   4.225  51.460  1.00  0.00     0.040 A 
HETATM   11  C11 UNL     1      22.428   3.420  52.193  1.00  0.00     0.168 C 
HETATM   12  N1  UNL     1      22.143   2.042  52.461  1.00  0.00    -0.376 N 
HETATM   13  C18 UNL     1      23.284   1.283  53.135  1.00  0.00     0.127 C 
HETATM   14  C19 UNL     1      24.346   1.442  52.233  1.00  0.00     0.084 C 
HETATM   15  C20 UNL     1      25.712   0.812  52.025  1.00  0.00     0.359 C 
HETATM   16  O1  UNL     1      26.270   1.772  51.328  1.00  0.00    -0.355 OA
HETATM   17  C23 UNL     1      26.795   2.672  50.663  1.00  0.00     0.199 C 
HETATM   18  C24 UNL     1      25.884   3.241  49.530  1.00  0.00     0.273 C 
HETATM   19  N3  UNL     1      26.342   4.484  48.992  1.00  0.00     0.004 N 
HETATM   20  C25 UNL     1      20.020   4.220  51.364  1.00  0.00     0.256 A 
HETATM   21  O2  UNL     1      19.202   3.463  51.966  1.00  0.00    -0.267 OA
HETATM   22  N4  UNL     1      19.564   5.219  50.467  1.00  0.00    -0.290 N 
HETATM   23  C26 UNL     1      20.762   5.837  50.016  1.00  0.00     0.255 A 
HETATM   24  O3  UNL     1      20.592   6.791  49.170  1.00  0.00    -0.268 OA
HETATM   25  H30 UNL     1      18.555   5.408  50.229  1.00  0.00     0.172 HD
ENDROOT
BRANCH  12  26
HETATM   26  C12 UNL     1      20.993   1.180  52.289  1.00  0.00     0.030 A 
HETATM   27  C13 UNL     1      20.776   0.654  53.585  1.00  0.00     0.029 A 
HETATM   28  C14 UNL     1      19.776  -0.234  53.882  1.00  0.00     0.002 A 
HETATM   29  C15 UNL     1      18.917  -0.645  52.884  1.00  0.00     0.000 A 
HETATM   30  C16 UNL     1      19.126  -0.136  51.608  1.00  0.00     0.002 A 
HETATM   31  C17 UNL     1      20.131   0.748  51.312  1.00  0.00     0.029 A 
ENDBRANCH  12  26
BRANCH  15  32
HETATM   32  N2  UNL     1      26.383   0.613  53.325  1.00  0.00     0.108 N 
HETATM   33  C21 UNL     1      27.620  -0.098  53.090  1.00  0.00     0.312 C 
HETATM   34  C22 UNL     1      26.709   1.925  53.827  1.00  0.00     0.312 C 
ENDBRANCH  15  32
TORSDOF 2
ENDMDL
MODEL 3
REMARK VINA RESULT:      -9.7      2.389      6.416
REMARK  2 active torsions:
REMARK  status: ('A' for Active; 'I' for Inactive)
REMARK    1  A    between atoms: N1_12  and  C12_13 
REMARK    2  A    between atoms: C20_21  and  N2_22 
ROOT
HETATM    1  C1  UNL     1      18.166  -2.380  53.826  1.00  0.00     0.046 C 
HETATM    2  C2  UNL     1      18.405  -1.193  52.957  1.00  0.00    -0.042 A 
HETATM    3  C3  UNL     1      19.465  -0.375  53.113  1.00  0.00     0.244 A 
HETATM    4  C4  UNL     1      18.876   0.281  52.017  1.00  0.00     0.245 A 
HETATM    5  C5  UNL     1      17.785  -0.508  51.810  1.00  0.00     0.027 A 
HETATM    6  C6  UNL     1      19.479   1.457  51.454  1.00  0.00     0.158 A 
HETATM    7  C7  UNL     1      20.042   2.501  50.838  1.00  0.00     0.014 C 
HETATM    8  C8  UNL     1      20.339   2.313  49.425  1.00  0.00     0.074 C 
HETATM    9  C9  UNL     1      21.072   3.443  48.827  1.00  0.00     0.027 A 
HETATM   10  C10 UNL     1      22.354   3.891  48.728  1.00  0.00     0.040 A 
HETATM   11  C11 UNL     1      23.385   3.090  49.374  1.00  0.00     0.168 C 
HETATM   12  N1  UNL     1      24.532   3.736  49.941  1.00  0.00    -0.376 N 
HETATM   13  C18 UNL     1      25.479   2.798  50.686  1.00  0.00     0.127 C 
HETATM   14  C19 UNL     1      24.652   2.226  51.664  1.00  0.00     0.084 C 
HETATM   15  C20 UNL     1      24.853   1.415  52.932  1.00  0.00     0.359 C 
HETATM   16  O1  UNL     1      23.661   0.876  53.013  1.00  0.00    -0.355 OA
HETATM   17  C23 UNL     1      22.534   0.372  53.098  1.00  0.00     0.199 C 
HETATM   18  C24 UNL     1      21.367   1.380  52.850  1.00  0.00     0.273 C 
HETATM   19  N3  UNL     1      20.105   0.752  52.611  1.00  0.00     0.004 N 
HETATM   20  C25 UNL     1      22.365   5.128  47.985  1.00  0.00     0.256 A 
HETATM   21  O2  UNL     1      23.365   5.847  47.682  1.00  0.00    -0.267 OA
HETATM   22  N4  UNL     1      21.056   5.499  47.588  1.00  0.00    -0.290 N 
HETATM   23  C26 UNL     1      20.241   4.456  48.108  1.00  0.00     0.255 A 
HETATM   24  O3  UNL     1      18.983   4.585  47.871  1.00  0.00    -0.268 OA
HETATM   25  H30 UNL     1      20.808   6.363  47.040  1.00  0.00     0.172 HD
ENDROOT
BRANCH  12  26
HETATM   26  C12 UNL     1      25.053   5.087  49.940  1.00  0.00     0.030 A 
HETATM   27  C13 UNL     1      26.133   5.025  49.029  1.00  0.00     0.029 A 
HETATM   28  C14 UNL     1      26.931   6.098  48.728  1.00  0.00     0.002 A 
HETATM   29  C15 UNL     1      26.681   7.315  49.326  1.00  0.00     0.000 A 
HETATM   30  C16 UNL     1      25.624   7.384  50.226  1.00  0.00     0.002 A 
HETATM   31  C17 UNL     1      24.831   6.307  50.529  1.00  0.00     0.029 A 
ENDBRANCH  12  26
BRANCH  15  32
HETATM   32  N2  UNL     1      25.904   0.399  52.724  1.00  0.00     0.108 N 
HETATM   33  C21 UNL     1      27.178   0.993  53.060  1.00  0.00     0.312 C 
HETATM   34  C22 UNL     1      25.643  -0.663  53.663  1.00  0.00     0.312 C 
ENDBRANCH  15  32
TORSDOF 2
ENDMDL
MODEL 4
REMARK VINA RESULT:      -9.5      2.152      5.464
REMARK  2 active torsions:
REMARK  status: ('A' for Active; 'I' for Inactive)
REMARK    1  A    between atoms: N1_12  and  C12_13 
REMARK    2  A    between atoms: C20_21  and  N2_22 
ROOT
HETATM    1  C1  UNL     1      15.720   4.094  50.572  1.00  0.00     0.046 C 
HETATM    2  C2  UNL     1      17.172   4.357  50.365  1.00  0.00    -0.042 A 
HETATM    3  C3  UNL     1      18.122   3.916  51.213  1.00  0.00     0.244 A 
HETATM    4  C4  UNL     1      18.971   4.559  50.293  1.00  0.00     0.245 A 
HETATM    5  C5  UNL     1      18.057   5.032  49.400  1.00  0.00     0.027 A 
HETATM    6  C6  UNL     1      20.394   4.563  50.484  1.00  0.00     0.158 A 
HETATM    7  C7  UNL     1      21.727   4.523  50.567  1.00  0.00     0.014 C 
HETATM    8  C8  UNL     1      22.411   3.933  49.424  1.00  0.00     0.074 C 
HETATM    9  C9  UNL     1      23.865   3.797  49.620  1.00  0.00     0.027 A 
HETATM   10  C10 UNL     1      24.741   2.936  50.207  1.00  0.00     0.040 A 
HETATM   11  C11 UNL     1      24.174   1.769  50.871  1.00  0.00     0.168 C 
HETATM   12  N1  UNL     1      24.815   1.238  52.037  1.00  0.00    -0.376 N 
HETATM   13  C18 UNL     1      24.061   0.088  52.701  1.00  0.00     0.127 C 
HETATM   14  C19 UNL     1      22.811   0.656  52.991  1.00  0.00     0.084 C 
HETATM   15  C20 UNL     1      21.611   0.287  53.845  1.00  0.00     0.359 C 
HETATM   16  O1  UNL     1      20.707   1.023  53.246  1.00  0.00    -0.355 OA
HETATM   17  C23 UNL     1      19.854   1.723  52.688  1.00  0.00     0.199 C 
HETATM   18  C24 UNL     1      20.327   3.179  52.382  1.00  0.00     0.273 C 
HETATM   19  N3  UNL     1      19.491   3.873  51.452  1.00  0.00     0.004 N 
HETATM   20  C25 UNL     1      26.084   3.436  50.034  1.00  0.00     0.256 A 
HETATM   21  O2  UNL     1      27.168   2.916  50.435  1.00  0.00    -0.267 OA
HETATM   22  N4  UNL     1      26.085   4.658  49.315  1.00  0.00    -0.290 N 
HETATM   23  C26 UNL     1      24.708   4.894  49.052  1.00  0.00     0.255 A 
HETATM   24  O3  UNL     1      24.460   5.974  48.400  1.00  0.00    -0.268 OA
HETATM   25  H30 UNL     1      26.943   5.217  49.068  1.00  0.00     0.172 HD
ENDROOT
BRANCH  12  26
HETATM   26  C12 UNL     1      26.058   1.498  52.733  1.00  0.00     0.030 A 
HETATM   27  C13 UNL     1      26.788   0.298  52.564  1.00  0.00     0.029 A 
HETATM   28  C14 UNL     1      28.041   0.097  53.082  1.00  0.00     0.002 A 
HETATM   29  C15 UNL     1      28.645   1.106  53.803  1.00  0.00     0.000 A 
HETATM   30  C16 UNL     1      27.932   2.286  53.977  1.00  0.00     0.002 A 
HETATM   31  C17 UNL     1      26.676   2.482  53.462  1.00  0.00     0.029 A 
ENDBRANCH  12  26
BRANCH  15  32
HETATM   32  N2  UNL     1      21.320  -1.155  53.718  1.00  0.00     0.108 N 
HETATM   33  C21 UNL     1      21.931  -1.838  54.836  1.00  0.00     0.312 C 
HETATM   34  C22 UNL     1      19.890  -1.299  53.833  1.00  0.00     0.312 C 
ENDBRANCH  15  32
TORSDOF 2
ENDMDL
MODEL 5
REMARK VINA RESULT:      -9.0      2.770      5.949
REMARK  2 active torsions:
REMARK  status: ('A' for Active; 'I' for Inactive)
REMARK    1  A    between atoms: N1_12  and  C12_13 
REMARK    2  A    between atoms: C20_21  and  N2_22 
ROOT
HETATM    1  C1  UNL     1      17.500   7.549  47.403  1.00  0.00     0.046 C 
HETATM    2  C2  UNL     1      18.927   7.272  47.735  1.00  0.00    -0.042 A 
HETATM    3  C3  UNL     1      19.299   6.543  48.806  1.00  0.00     0.244 A 
HETATM    4  C4  UNL     1      20.584   6.819  48.308  1.00  0.00     0.245 A 
HETATM    5  C5  UNL     1      20.272   7.565  47.211  1.00  0.00     0.027 A 
HETATM    6  C6  UNL     1      21.755   6.321  48.974  1.00  0.00     0.158 A 
HETATM    7  C7  UNL     1      22.870   5.811  49.505  1.00  0.00     0.014 C 
HETATM    8  C8  UNL     1      23.673   4.988  48.610  1.00  0.00     0.074 C 
HETATM    9  C9  UNL     1      24.821   4.349  49.278  1.00  0.00     0.027 A 
HETATM   10  C10 UNL     1      25.078   3.246  50.035  1.00  0.00     0.040 A 
HETATM   11  C11 UNL     1      23.950   2.374  50.335  1.00  0.00     0.168 C 
HETATM   12  N1  UNL     1      23.907   1.679  51.588  1.00  0.00    -0.376 N 
HETATM   13  C18 UNL     1      22.622   0.889  51.826  1.00  0.00     0.127 C 
HETATM   14  C19 UNL     1      21.626   1.872  51.728  1.00  0.00     0.084 C 
HETATM   15  C20 UNL     1      20.151   1.975  52.074  1.00  0.00     0.359 C 
HETATM   16  O1  UNL     1      19.831   2.970  51.283  1.00  0.00    -0.355 OA
HETATM   17  C23 UNL     1      19.528   3.914  50.544  1.00  0.00     0.199 C 
HETATM   18  C24 UNL     1      20.545   5.099  50.575  1.00  0.00     0.273 C 
HETATM   19  N3  UNL     1      20.388   6.022  49.494  1.00  0.00     0.004 N 
HETATM   20  C25 UNL     1      26.477   3.232  50.387  1.00  0.00     0.256 A 
HETATM   21  O2  UNL     1      27.098   2.369  51.079  1.00  0.00    -0.267 OA
HETATM   22  N4  UNL     1      27.153   4.355  49.847  1.00  0.00    -0.290 N 
HETATM   23  C26 UNL     1      26.130   5.059  49.154  1.00  0.00     0.255 A 
HETATM   24  O3  UNL     1      26.516   6.141  48.575  1.00  0.00    -0.268 OA
HETATM   25  H30 UNL     1      28.177   4.566  49.970  1.00  0.00     0.172 HD
ENDROOT
BRANCH  12  26
HETATM   26  C12 UNL     1      24.827   1.496  52.691  1.00  0.00     0.030 A 
HETATM   27  C13 UNL     1      25.121   0.112  52.651  1.00  0.00     0.029 A 
HETATM   28  C14 UNL     1      25.958  -0.508  53.541  1.00  0.00     0.002 A 
HETATM   29  C15 UNL     1      26.563   0.236  54.532  1.00  0.00     0.000 A 
HETATM   30  C16 UNL     1      26.277   1.595  54.581  1.00  0.00     0.002 A 
HETATM   31  C17 UNL     1      25.435   2.212  53.692  1.00  0.00     0.029 A 
ENDBRANCH  12  26
BRANCH  15  32
HETATM   32  N2  UNL     1      19.452   0.729  51.702  1.00  0.00     0.108 N 
HETATM   33  C21 UNL     1      19.454  -0.149  52.851  1.00  0.00     0.312 C 
HETATM   34  C22 UNL     1      18.086   1.091  51.417  1.00  0.00     0.312 C 
ENDBRANCH  15  32
TORSDOF 2
ENDMDL
MODEL 6
REMARK VINA RESULT:      -8.9      3.335      8.412
REMARK  2 active torsions:
REMARK  status: ('A' for Active; 'I' for Inactive)
REMARK    1  A    between atoms: N1_12  and  C12_13 
REMARK    2  A    between atoms: C20_21  and  N2_22 
ROOT
HETATM    1  C1  UNL     1      26.597   1.093  52.561  1.00  0.00     0.046 C 
HETATM    2  C2  UNL     1      25.180   0.695  52.796  1.00  0.00    -0.042 A 
HETATM    3  C3  UNL     1      24.156   1.570  52.737  1.00  0.00     0.244 A 
HETATM    4  C4  UNL     1      23.406   0.419  53.041  1.00  0.00     0.245 A 
HETATM    5  C5  UNL     1      24.398  -0.512  53.115  1.00  0.00     0.027 A 
HETATM    6  C6  UNL     1      21.979   0.487  53.178  1.00  0.00     0.158 A 
HETATM    7  C7  UNL     1      20.643   0.477  53.232  1.00  0.00     0.014 C 
HETATM    8  C8  UNL     1      19.983  -0.426  52.299  1.00  0.00     0.074 C 
HETATM    9  C9  UNL     1      18.514  -0.306  52.310  1.00  0.00     0.027 A 
HETATM   10  C10 UNL     1      17.550   0.483  51.761  1.00  0.00     0.040 A 
HETATM   11  C11 UNL     1      17.997   1.562  50.889  1.00  0.00     0.168 C 
HETATM   12  N1  UNL     1      17.258   2.790  50.847  1.00  0.00    -0.376 N 
HETATM   13  C18 UNL     1      17.893   3.877  49.983  1.00  0.00     0.127 C 
HETATM   14  C19 UNL     1      19.162   4.038  50.560  1.00  0.00     0.084 C 
HETATM   15  C20 UNL     1      20.285   5.056  50.472  1.00  0.00     0.359 C 
HETATM   16  O1  UNL     1      21.269   4.303  50.899  1.00  0.00    -0.355 OA
HETATM   17  C23 UNL     1      22.198   3.597  51.310  1.00  0.00     0.199 C 
HETATM   18  C24 UNL     1      21.845   2.754  52.575  1.00  0.00     0.273 C 
HETATM   19  N3  UNL     1      22.777   1.704  52.846  1.00  0.00     0.004 N 
HETATM   20  C25 UNL     1      16.257   0.040  52.225  1.00  0.00     0.256 A 
HETATM   21  O2  UNL     1      15.119   0.518  51.935  1.00  0.00    -0.267 OA
HETATM   22  N4  UNL     1      16.380  -1.067  53.102  1.00  0.00    -0.290 N 
HETATM   23  C26 UNL     1      17.783  -1.292  53.163  1.00  0.00     0.255 A 
HETATM   24  O3  UNL     1      18.141  -2.267  53.921  1.00  0.00    -0.268 OA
HETATM   25  H30 UNL     1      15.578  -1.563  53.572  1.00  0.00     0.172 HD
ENDROOT
BRANCH  12  26
HETATM   26  C12 UNL     1      16.000   3.249  51.398  1.00  0.00     0.030 A 
HETATM   27  C13 UNL     1      15.150   3.317  50.269  1.00  0.00     0.029 A 
HETATM   28  C14 UNL     1      13.843   3.725  50.331  1.00  0.00     0.002 A 
HETATM   29  C15 UNL     1      13.304   4.086  51.548  1.00  0.00     0.000 A 
HETATM   30  C16 UNL     1      14.134   4.026  52.661  1.00  0.00     0.002 A 
HETATM   31  C17 UNL     1      15.443   3.622  52.596  1.00  0.00     0.029 A 
ENDBRANCH  12  26
BRANCH  15  32
HETATM   32  N2  UNL     1      20.481   5.477  49.071  1.00  0.00     0.108 N 
HETATM   33  C21 UNL     1      21.502   6.499  49.046  1.00  0.00     0.312 C 
HETATM   34  C22 UNL     1      20.980   4.327  48.360  1.00  0.00     0.312 C 
ENDBRANCH  15  32
TORSDOF 2
ENDMDL
MODEL 7
REMARK VINA RESULT:      -8.9      2.195      7.536
REMARK  2 active torsions:
REMARK  status: ('A' for Active; 'I' for Inactive)
REMARK    1  A    between atoms: N1_12  and  C12_13 
REMARK    2  A    between atoms: C20_21  and  N2_22 
ROOT
HETATM    1  C1  UNL     1      28.676   1.678  53.493  1.00  0.00     0.046 C 
HETATM    2  C2  UNL     1      27.245   1.273  53.584  1.00  0.00    -0.042 A 
HETATM    3  C3  UNL     1      26.231   2.095  53.248  1.00  0.00     0.244 A 
HETATM    4  C4  UNL     1      25.458   0.978  53.615  1.00  0.00     0.245 A 
HETATM    5  C5  UNL     1      26.439   0.102  53.970  1.00  0.00     0.027 A 
HETATM    6  C6  UNL     1      24.025   1.018  53.538  1.00  0.00     0.158 A 
HETATM    7  C7  UNL     1      22.696   0.972  53.404  1.00  0.00     0.014 C 
HETATM    8  C8  UNL     1      22.188  -0.082  52.536  1.00  0.00     0.074 C 
HETATM    9  C9  UNL     1      20.731  -0.010  52.322  1.00  0.00     0.027 A 
HETATM   10  C10 UNL     1      19.847   0.655  51.529  1.00  0.00     0.040 A 
HETATM   11  C11 UNL     1      20.403   1.606  50.574  1.00  0.00     0.168 C 
HETATM   12  N1  UNL     1      19.664   2.788  50.242  1.00  0.00    -0.376 N 
HETATM   13  C18 UNL     1      20.404   3.755  49.320  1.00  0.00     0.127 C 
HETATM   14  C19 UNL     1      21.575   4.042  50.039  1.00  0.00     0.084 C 
HETATM   15  C20 UNL     1      22.687   5.073  49.955  1.00  0.00     0.359 C 
HETATM   16  O1  UNL     1      23.608   4.425  50.626  1.00  0.00    -0.355 OA
HETATM   17  C23 UNL     1      24.476   3.820  51.267  1.00  0.00     0.199 C 
HETATM   18  C24 UNL     1      23.953   3.164  52.584  1.00  0.00     0.273 C 
HETATM   19  N3  UNL     1      24.849   2.197  53.140  1.00  0.00     0.004 N 
HETATM   20  C25 UNL     1      18.506   0.244  51.868  1.00  0.00     0.256 A 
HETATM   21  O2  UNL     1      17.416   0.635  51.351  1.00  0.00    -0.267 OA
HETATM   22  N4  UNL     1      18.514  -0.715  52.911  1.00  0.00    -0.290 N 
HETATM   23  C26 UNL     1      19.895  -0.881  53.203  1.00  0.00     0.255 A 
HETATM   24  O3  UNL     1      20.152  -1.721  54.144  1.00  0.00    -0.268 OA
HETATM   25  H30 UNL     1      17.659  -1.162  53.334  1.00  0.00     0.172 HD
ENDROOT
BRANCH  12  26
HETATM   26  C12 UNL     1      18.335   3.283  50.533  1.00  0.00     0.030 A 
HETATM   27  C13 UNL     1      17.649   3.133  49.305  1.00  0.00     0.029 A 
HETATM   28  C14 UNL     1      16.340   3.495  49.120  1.00  0.00     0.002 A 
HETATM   29  C15 UNL     1      15.631   4.028  50.176  1.00  0.00     0.000 A 
HETATM   30  C16 UNL     1      16.299   4.183  51.385  1.00  0.00     0.002 A 
HETATM   31  C17 UNL     1      17.610   3.825  51.565  1.00  0.00     0.029 A 
ENDBRANCH  12  26
BRANCH  15  32
HETATM   32  N2  UNL     1      23.078   5.286  48.548  1.00  0.00     0.108 N 
HETATM   33  C21 UNL     1      22.211   6.297  47.987  1.00  0.00     0.312 C 
HETATM   34  C22 UNL     1      24.421   5.809  48.568  1.00  0.00     0.312 C 
ENDBRANCH  15  32
TORSDOF 2
ENDMDL
MODEL 8
REMARK VINA RESULT:      -8.8      3.031      7.604
REMARK  2 active torsions:
REMARK  status: ('A' for Active; 'I' for Inactive)
REMARK    1  A    between atoms: N1_12  and  C12_13 
REMARK    2  A    between atoms: C20_21  and  N2_22 
ROOT
HETATM    1  C1  UNL     1      28.148   9.394  45.673  1.00  0.00     0.046 C 
HETATM    2  C2  UNL     1      27.914   8.352  46.713  1.00  0.00    -0.042 A 
HETATM    3  C3  UNL     1      26.688   8.057  47.188  1.00  0.00     0.244 A 
HETATM    4  C4  UNL     1      27.418   7.133  47.957  1.00  0.00     0.245 A 
HETATM    5  C5  UNL     1      28.682   7.386  47.517  1.00  0.00     0.027 A 
HETATM    6  C6  UNL     1      26.754   6.264  48.888  1.00  0.00     0.158 A 
HETATM    7  C7  UNL     1      26.179   5.375  49.703  1.00  0.00     0.014 C 
HETATM    8  C8  UNL     1      26.445   3.976  49.396  1.00  0.00     0.074 C 
HETATM    9  C9  UNL     1      25.688   3.038  50.245  1.00  0.00     0.027 A 
HETATM   10  C10 UNL     1      24.447   2.479  50.295  1.00  0.00     0.040 A 
HETATM   11  C11 UNL     1      23.510   2.858  49.244  1.00  0.00     0.168 C 
HETATM   12  N1  UNL     1      22.111   2.943  49.542  1.00  0.00    -0.376 N 
HETATM   13  C18 UNL     1      21.252   3.459  48.390  1.00  0.00     0.127 C 
HETATM   14  C19 UNL     1      21.815   4.714  48.113  1.00  0.00     0.084 C 
HETATM   15  C20 UNL     1      21.417   5.942  47.315  1.00  0.00     0.359 C 
HETATM   16  O1  UNL     1      22.607   6.467  47.151  1.00  0.00    -0.355 OA
HETATM   17  C23 UNL     1      23.727   6.969  47.003  1.00  0.00     0.199 C 
HETATM   18  C24 UNL     1      24.595   6.982  48.301  1.00  0.00     0.273 C 
HETATM   19  N3  UNL     1      25.982   7.239  48.063  1.00  0.00     0.004 N 
HETATM   20  C25 UNL     1      24.361   1.622  51.452  1.00  0.00     0.256 A 
HETATM   21  O2  UNL     1      23.372   0.928  51.837  1.00  0.00    -0.267 OA
HETATM   22  N4  UNL     1      25.578   1.621  52.179  1.00  0.00    -0.290 N 
HETATM   23  C26 UNL     1      26.413   2.501  51.436  1.00  0.00     0.255 A 
HETATM   24  O3  UNL     1      27.593   2.663  51.921  1.00  0.00    -0.268 OA
HETATM   25  H30 UNL     1      25.759   1.076  53.062  1.00  0.00     0.172 HD
ENDROOT
BRANCH  12  26
HETATM   26  C12 UNL     1      21.282   2.606  50.681  1.00  0.00     0.030 A 
HETATM   27  C13 UNL     1      20.686   1.379  50.305  1.00  0.00     0.029 A 
HETATM   28  C14 UNL     1      19.801   0.695  51.096  1.00  0.00     0.002 A 
HETATM   29  C15 UNL     1      19.465   1.206  52.332  1.00  0.00     0.000 A 
HETATM   30  C16 UNL     1      20.043   2.413  52.707  1.00  0.00     0.002 A 
HETATM   31  C17 UNL     1      20.923   3.098  51.911  1.00  0.00     0.029 A 
ENDBRANCH  12  26
BRANCH  15  32
HETATM   32  N2  UNL     1      20.811   5.539  46.030  1.00  0.00     0.108 N 
HETATM   33  C21 UNL     1      20.361   6.732  45.349  1.00  0.00     0.312 C 
HETATM   34  C22 UNL     1      21.865   4.946  45.245  1.00  0.00     0.312 C 
ENDBRANCH  15  32
TORSDOF 2
ENDMDL
MODEL 9
REMARK VINA RESULT:      -8.6      3.459      6.843
REMARK  2 active torsions:
REMARK  status: ('A' for Active; 'I' for Inactive)
REMARK    1  A    between atoms: N1_12  and  C12_13 
REMARK    2  A    between atoms: C20_21  and  N2_22 
ROOT
HETATM    1  C1  UNL     1      18.813  10.645  48.556  1.00  0.00     0.046 C 
HETATM    2  C2  UNL     1      20.150  10.001  48.693  1.00  0.00    -0.042 A 
HETATM    3  C3  UNL     1      20.373   8.948  49.504  1.00  0.00     0.244 A 
HETATM    4  C4  UNL     1      21.679   9.078  48.996  1.00  0.00     0.245 A 
HETATM    5  C5  UNL     1      21.516  10.140  48.159  1.00  0.00     0.027 A 
HETATM    6  C6  UNL     1      22.723   8.187  49.417  1.00  0.00     0.158 A 
HETATM    7  C7  UNL     1      23.710   7.333  49.707  1.00  0.00     0.014 C 
HETATM    8  C8  UNL     1      24.295   6.637  48.569  1.00  0.00     0.074 C 
HETATM    9  C9  UNL     1      25.287   5.617  48.956  1.00  0.00     0.027 A 
HETATM   10  C10 UNL     1      25.310   4.323  49.377  1.00  0.00     0.040 A 
HETATM   11  C11 UNL     1      24.024   3.654  49.527  1.00  0.00     0.168 C 
HETATM   12  N1  UNL     1      23.854   2.669  50.554  1.00  0.00    -0.376 N 
HETATM   13  C18 UNL     1      22.432   2.127  50.678  1.00  0.00     0.127 C 
HETATM   14  C19 UNL     1      21.674   3.283  50.917  1.00  0.00     0.084 C 
HETATM   15  C20 UNL     1      20.265   3.591  51.392  1.00  0.00     0.359 C 
HETATM   16  O1  UNL     1      20.156   4.807  50.915  1.00  0.00    -0.355 OA
HETATM   17  C23 UNL     1      20.053   5.958  50.474  1.00  0.00     0.199 C 
HETATM   18  C24 UNL     1      21.306   6.853  50.733  1.00  0.00     0.273 C 
HETATM   19  N3  UNL     1      21.335   8.046  49.946  1.00  0.00     0.004 N 
HETATM   20  C25 UNL     1      26.679   3.924  49.603  1.00  0.00     0.256 A 
HETATM   21  O2  UNL     1      27.108   2.798  49.995  1.00  0.00    -0.267 OA
HETATM   22  N4  UNL     1      27.574   4.988  49.323  1.00  0.00    -0.290 N 
HETATM   23  C26 UNL     1      26.717   6.049  48.919  1.00  0.00     0.255 A 
HETATM   24  O3  UNL     1      27.320   7.143  48.614  1.00  0.00    -0.268 OA
HETATM   25  H30 UNL     1      28.622   4.941  49.416  1.00  0.00     0.172 HD
ENDROOT
BRANCH  12  26
HETATM   26  C12 UNL     1      24.732   2.008  51.496  1.00  0.00     0.030 A 
HETATM   27  C13 UNL     1      24.666   2.832  52.644  1.00  0.00     0.029 A 
HETATM   28  C14 UNL     1      25.366   2.582  53.796  1.00  0.00     0.002 A 
HETATM   29  C15 UNL     1      26.178   1.470  53.865  1.00  0.00     0.000 A 
HETATM   30  C16 UNL     1      26.252   0.657  52.740  1.00  0.00     0.002 A 
HETATM   31  C17 UNL     1      25.554   0.913  51.588  1.00  0.00     0.029 A 
ENDBRANCH  12  26
BRANCH  15  32
HETATM   32  N2  UNL     1      19.302   2.664  50.764  1.00  0.00     0.108 N 
HETATM   33  C21 UNL     1      19.153   1.516  51.628  1.00  0.00     0.312 C 
HETATM   34  C22 UNL     1      18.037   3.355  50.714  1.00  0.00     0.312 C 
ENDBRANCH  15  32
TORSDOF 2
ENDMDL
