MODEL 1
REMARK VINA RESULT:      -7.9      0.000      0.000
REMARK  7 active torsions:
REMARK  status: ('A' for Active; 'I' for Inactive)
REMARK    1  A    between atoms: C1_2  and  C2_3 
REMARK    2  A    between atoms: C3_4  and  C4_5 
REMARK    3  A    between atoms: C5_6  and  C6_7 
REMARK    4  A    between atoms: C6_7  and  C7_8 
REMARK    5  A    between atoms: C12_14  and  C13_15 
REMARK    6  A    between atoms: C13_15  and  C14_16 
REMARK    7  A    between atoms: C14_16  and  C15_17 
ROOT
HETATM    1  C7  UNL     1      25.745  -0.611  53.883  1.00  0.00     0.034 A 
HETATM    2  C8  UNL     1      26.647   0.117  54.808  1.00  0.00     0.097 A 
HETATM    3  N1  UNL     1      27.356   1.209  54.633  1.00  0.00    -0.247 NA
HETATM    4  C9  UNL     1      27.226   1.773  53.336  1.00  0.00     0.127 A 
HETATM    5  C10 UNL     1      26.455   1.225  52.416  1.00  0.00    -0.011 A 
HETATM    6  C11 UNL     1      25.625  -0.001  52.530  1.00  0.00     0.050 A 
HETATM    7  C12 UNL     1      26.768   2.257  51.363  1.00  0.00     0.116 A 
HETATM    8  N2  UNL     1      27.567   2.786  52.422  1.00  0.00    -0.366 N 
HETATM    9  H23 UNL     1      28.117   3.650  52.269  1.00  0.00     0.161 HD
ENDROOT
BRANCH   7  10
HETATM   10  C13 UNL     1      25.617   3.084  50.958  1.00  0.00     0.034 C 
BRANCH  10  11
HETATM   11  C14 UNL     1      25.460   3.495  49.553  1.00  0.00     0.041 C 
BRANCH  11  12
HETATM   12  C15 UNL     1      26.308   4.580  49.042  1.00  0.00    -0.058 A 
HETATM   13  C16 UNL     1      25.630   5.786  48.852  1.00  0.00     0.007 A 
HETATM   14  C17 UNL     1      26.215   6.953  48.409  1.00  0.00     0.001 A 
HETATM   15  C18 UNL     1      27.542   6.979  48.128  1.00  0.00     0.000 A 
HETATM   16  C19 UNL     1      28.254   5.812  48.303  1.00  0.00     0.001 A 
HETATM   17  C20 UNL     1      27.642   4.667  48.744  1.00  0.00     0.007 A 
ENDBRANCH  11  12
ENDBRANCH  10  11
ENDBRANCH   7  10
BRANCH   1  18
HETATM   18  C6  UNL     1      24.365  -0.812  54.531  1.00  0.00     0.037 C 
BRANCH  18  19
HETATM   19  C5  UNL     1      23.388  -0.548  53.448  1.00  0.00    -0.026 C 
HETATM   20  C4  UNL     1      22.114  -0.302  53.581  1.00  0.00    -0.004 C 
BRANCH  20  21
HETATM   21  C3  UNL     1      21.262  -0.059  52.427  1.00  0.00    -0.002 C 
HETATM   22  C2  UNL     1      21.002   1.140  51.939  1.00  0.00     0.004 C 
BRANCH  22  23
HETATM   23  C1  UNL     1      21.410   2.513  52.311  1.00  0.00     0.249 C 
HETATM   24  F1  UNL     1      22.756   2.631  52.573  1.00  0.00    -0.251 F 
ENDBRANCH  22  23
ENDBRANCH  20  21
ENDBRANCH  18  19
ENDBRANCH   1  18
TORSDOF 7
ENDMDL
MODEL 2
REMARK VINA RESULT:      -7.9      2.790      4.285
REMARK  7 active torsions:
REMARK  status: ('A' for Active; 'I' for Inactive)
REMARK    1  A    between atoms: C1_2  and  C2_3 
REMARK    2  A    between atoms: C3_4  and  C4_5 
REMARK    3  A    between atoms: C5_6  and  C6_7 
REMARK    4  A    between atoms: C6_7  and  C7_8 
REMARK    5  A    between atoms: C12_14  and  C13_15 
REMARK    6  A    between atoms: C13_15  and  C14_16 
REMARK    7  A    between atoms: C14_16  and  C15_17 
ROOT
HETATM    1  C7  UNL     1      22.135  -0.973  53.275  1.00  0.00     0.034 A 
HETATM    2  C8  UNL     1      21.976  -1.475  54.662  1.00  0.00     0.097 A 
HETATM    3  N1  UNL     1      22.846  -1.584  55.641  1.00  0.00    -0.247 NA
HETATM    4  C9  UNL     1      24.152  -1.145  55.296  1.00  0.00     0.127 A 
HETATM    5  C10 UNL     1      24.430  -0.676  54.095  1.00  0.00    -0.011 A 
HETATM    6  C11 UNL     1      23.513  -0.519  52.938  1.00  0.00     0.050 A 
HETATM    7  C12 UNL     1      25.885  -0.422  54.398  1.00  0.00     0.116 A 
HETATM    8  N2  UNL     1      25.490  -0.930  55.673  1.00  0.00    -0.366 N 
HETATM    9  H23 UNL     1      26.187  -1.007  56.435  1.00  0.00     0.161 HD
ENDROOT
BRANCH   7  10
HETATM   10  C13 UNL     1      26.274   1.000  54.373  1.00  0.00     0.034 C 
BRANCH  10  11
HETATM   11  C14 UNL     1      26.641   1.644  53.100  1.00  0.00     0.041 C 
BRANCH  11  12
HETATM   12  C15 UNL     1      25.588   2.314  52.326  1.00  0.00    -0.058 A 
HETATM   13  C16 UNL     1      24.616   2.934  53.114  1.00  0.00     0.007 A 
HETATM   14  C17 UNL     1      23.545   3.649  52.620  1.00  0.00     0.001 A 
HETATM   15  C18 UNL     1      23.387   3.787  51.280  1.00  0.00     0.000 A 
HETATM   16  C19 UNL     1      24.324   3.194  50.461  1.00  0.00     0.001 A 
HETATM   17  C20 UNL     1      25.377   2.488  50.984  1.00  0.00     0.007 A 
ENDBRANCH  11  12
ENDBRANCH  10  11
ENDBRANCH   7  10
BRANCH   1  18
HETATM   18  C6  UNL     1      21.097   0.121  52.981  1.00  0.00     0.037 C 
BRANCH  18  19
HETATM   19  C5  UNL     1      21.502   0.696  51.676  1.00  0.00    -0.026 C 
HETATM   20  C4  UNL     1      21.037   0.380  50.499  1.00  0.00    -0.004 C 
BRANCH  20  21
HETATM   21  C3  UNL     1      21.525   1.025  49.290  1.00  0.00    -0.002 C 
HETATM   22  C2  UNL     1      21.031   2.147  48.799  1.00  0.00     0.004 C 
BRANCH  22  23
HETATM   23  C1  UNL     1      19.946   3.064  49.216  1.00  0.00     0.249 C 
HETATM   24  F1  UNL     1      20.153   3.626  50.455  1.00  0.00    -0.251 F 
ENDBRANCH  22  23
ENDBRANCH  20  21
ENDBRANCH  18  19
ENDBRANCH   1  18
TORSDOF 7
ENDMDL
MODEL 3
REMARK VINA RESULT:      -7.7      2.381      3.672
REMARK  7 active torsions:
REMARK  status: ('A' for Active; 'I' for Inactive)
REMARK    1  A    between atoms: C1_2  and  C2_3 
REMARK    2  A    between atoms: C3_4  and  C4_5 
REMARK    3  A    between atoms: C5_6  and  C6_7 
REMARK    4  A    between atoms: C6_7  and  C7_8 
REMARK    5  A    between atoms: C12_14  and  C13_15 
REMARK    6  A    between atoms: C13_15  and  C14_16 
REMARK    7  A    between atoms: C14_16  and  C15_17 
ROOT
HETATM    1  C7  UNL     1      22.239  -0.819  54.105  1.00  0.00     0.034 A 
HETATM    2  C8  UNL     1      22.896  -1.385  55.308  1.00  0.00     0.097 A 
HETATM    3  N1  UNL     1      24.162  -1.427  55.655  1.00  0.00    -0.247 NA
HETATM    4  C9  UNL     1      25.034  -0.827  54.708  1.00  0.00     0.127 A 
HETATM    5  C10 UNL     1      24.580  -0.286  53.594  1.00  0.00    -0.011 A 
HETATM    6  C11 UNL     1      23.174  -0.195  53.127  1.00  0.00     0.050 A 
HETATM    7  C12 UNL     1      25.942   0.125  53.094  1.00  0.00     0.116 A 
HETATM    8  N2  UNL     1      26.341  -0.472  54.329  1.00  0.00    -0.366 N 
HETATM    9  H23 UNL     1      27.344  -0.494  54.589  1.00  0.00     0.161 HD
ENDROOT
BRANCH   7  10
HETATM   10  C13 UNL     1      26.142   1.582  52.997  1.00  0.00     0.034 C 
BRANCH  10  11
HETATM   11  C14 UNL     1      26.135   2.244  51.681  1.00  0.00     0.041 C 
BRANCH  11  12
HETATM   12  C15 UNL     1      24.979   3.077  51.324  1.00  0.00    -0.058 A 
HETATM   13  C16 UNL     1      24.087   3.288  52.378  1.00  0.00     0.007 A 
HETATM   14  C17 UNL     1      22.946   4.057  52.297  1.00  0.00     0.001 A 
HETATM   15  C18 UNL     1      22.628   4.672  51.131  1.00  0.00     0.000 A 
HETATM   16  C19 UNL     1      23.480   4.495  50.062  1.00  0.00     0.001 A 
HETATM   17  C20 UNL     1      24.608   3.722  50.175  1.00  0.00     0.007 A 
ENDBRANCH  11  12
ENDBRANCH  10  11
ENDBRANCH   7  10
BRANCH   1  18
HETATM   18  C6  UNL     1      21.124   0.157  54.515  1.00  0.00     0.037 C 
BRANCH  18  19
HETATM   19  C5  UNL     1      20.941   1.047  53.344  1.00  0.00    -0.026 C 
HETATM   20  C4  UNL     1      19.889   1.130  52.576  1.00  0.00    -0.004 C 
BRANCH  20  21
HETATM   21  C3  UNL     1      19.840   2.052  51.452  1.00  0.00    -0.002 C 
HETATM   22  C2  UNL     1      20.503   1.880  50.324  1.00  0.00     0.004 C 
BRANCH  22  23
HETATM   23  C1  UNL     1      21.425   0.837  49.821  1.00  0.00     0.249 C 
HETATM   24  F1  UNL     1      22.735   1.043  50.191  1.00  0.00    -0.251 F 
ENDBRANCH  22  23
ENDBRANCH  20  21
ENDBRANCH  18  19
ENDBRANCH   1  18
TORSDOF 7
ENDMDL
MODEL 4
REMARK VINA RESULT:      -7.7      2.491      4.298
REMARK  7 active torsions:
REMARK  status: ('A' for Active; 'I' for Inactive)
REMARK    1  A    between atoms: C1_2  and  C2_3 
REMARK    2  A    between atoms: C3_4  and  C4_5 
REMARK    3  A    between atoms: C5_6  and  C6_7 
REMARK    4  A    between atoms: C6_7  and  C7_8 
REMARK    5  A    between atoms: C12_14  and  C13_15 
REMARK    6  A    between atoms: C13_15  and  C14_16 
REMARK    7  A    between atoms: C14_16  and  C15_17 
ROOT
HETATM    1  C7  UNL     1      25.042   0.194  53.356  1.00  0.00     0.034 A 
HETATM    2  C8  UNL     1      23.587  -0.059  53.493  1.00  0.00     0.097 A 
HETATM    3  N1  UNL     1      22.552   0.651  53.105  1.00  0.00    -0.247 NA
HETATM    4  C9  UNL     1      22.903   1.861  52.448  1.00  0.00     0.127 A 
HETATM    5  C10 UNL     1      24.162   2.207  52.261  1.00  0.00    -0.011 A 
HETATM    6  C11 UNL     1      25.384   1.468  52.664  1.00  0.00     0.050 A 
HETATM    7  C12 UNL     1      23.830   3.502  51.564  1.00  0.00     0.116 A 
HETATM    8  N2  UNL     1      22.499   3.041  51.799  1.00  0.00    -0.366 N 
HETATM    9  H23 UNL     1      21.693   3.612  51.485  1.00  0.00     0.161 HD
ENDROOT
BRANCH   7  10
HETATM   10  C13 UNL     1      24.244   3.558  50.150  1.00  0.00     0.034 C 
BRANCH  10  11
HETATM   11  C14 UNL     1      24.461   4.858  49.494  1.00  0.00     0.041 C 
BRANCH  11  12
HETATM   12  C15 UNL     1      25.815   5.191  49.032  1.00  0.00    -0.058 A 
HETATM   13  C16 UNL     1      25.945   6.498  48.558  1.00  0.00     0.007 A 
HETATM   14  C17 UNL     1      27.121   7.052  48.099  1.00  0.00     0.001 A 
HETATM   15  C18 UNL     1      28.258   6.312  48.090  1.00  0.00     0.000 A 
HETATM   16  C19 UNL     1      28.179   5.016  48.551  1.00  0.00     0.001 A 
HETATM   17  C20 UNL     1      26.992   4.494  49.001  1.00  0.00     0.007 A 
ENDBRANCH  11  12
ENDBRANCH  10  11
ENDBRANCH   7  10
BRANCH   1  18
HETATM   18  C6  UNL     1      25.732  -1.008  52.691  1.00  0.00     0.037 C 
BRANCH  18  19
HETATM   19  C5  UNL     1      27.174  -0.664  52.674  1.00  0.00    -0.026 C 
HETATM   20  C4  UNL     1      28.108  -1.152  53.443  1.00  0.00    -0.004 C 
BRANCH  20  21
HETATM   21  C3  UNL     1      29.493  -0.725  53.321  1.00  0.00    -0.002 C 
HETATM   22  C2  UNL     1      29.942   0.453  53.712  1.00  0.00     0.004 C 
BRANCH  22  23
HETATM   23  C1  UNL     1      29.312   1.637  54.339  1.00  0.00     0.249 C 
HETATM   24  F1  UNL     1      28.644   2.439  53.442  1.00  0.00    -0.251 F 
ENDBRANCH  22  23
ENDBRANCH  20  21
ENDBRANCH  18  19
ENDBRANCH   1  18
TORSDOF 7
ENDMDL
MODEL 5
REMARK VINA RESULT:      -7.7      2.529      7.015
REMARK  7 active torsions:
REMARK  status: ('A' for Active; 'I' for Inactive)
REMARK    1  A    between atoms: C1_2  and  C2_3 
REMARK    2  A    between atoms: C3_4  and  C4_5 
REMARK    3  A    between atoms: C5_6  and  C6_7 
REMARK    4  A    between atoms: C6_7  and  C7_8 
REMARK    5  A    between atoms: C12_14  and  C13_15 
REMARK    6  A    between atoms: C13_15  and  C14_16 
REMARK    7  A    between atoms: C14_16  and  C15_17 
ROOT
HETATM    1  C7  UNL     1      25.406   4.306  49.198  1.00  0.00     0.034 A 
HETATM    2  C8  UNL     1      25.673   5.657  49.751  1.00  0.00     0.097 A 
HETATM    3  N1  UNL     1      24.977   6.396  50.585  1.00  0.00    -0.247 NA
HETATM    4  C9  UNL     1      23.771   5.786  51.019  1.00  0.00     0.127 A 
HETATM    5  C10 UNL     1      23.413   4.586  50.604  1.00  0.00    -0.011 A 
HETATM    6  C11 UNL     1      24.135   3.688  49.668  1.00  0.00     0.050 A 
HETATM    7  C12 UNL     1      22.128   4.562  51.393  1.00  0.00     0.116 A 
HETATM    8  N2  UNL     1      22.601   5.847  51.798  1.00  0.00    -0.366 N 
HETATM    9  H23 UNL     1      22.042   6.416  52.459  1.00  0.00     0.161 HD
ENDROOT
BRANCH   7  10
HETATM   10  C13 UNL     1      22.082   3.537  52.452  1.00  0.00     0.034 C 
BRANCH  10  11
HETATM   11  C14 UNL     1      21.210   2.359  52.304  1.00  0.00     0.041 C 
BRANCH  11  12
HETATM   12  C15 UNL     1      21.530   1.152  53.076  1.00  0.00    -0.058 A 
HETATM   13  C16 UNL     1      22.805   0.641  52.824  1.00  0.00     0.007 A 
HETATM   14  C17 UNL     1      23.343  -0.466  53.445  1.00  0.00     0.001 A 
HETATM   15  C18 UNL     1      22.619  -1.137  54.376  1.00  0.00     0.000 A 
HETATM   16  C19 UNL     1      21.354  -0.668  54.660  1.00  0.00     0.001 A 
HETATM   17  C20 UNL     1      20.847   0.436  54.023  1.00  0.00     0.007 A 
ENDBRANCH  11  12
ENDBRANCH  10  11
ENDBRANCH   7  10
BRANCH   1  18
HETATM   18  C6  UNL     1      26.607   3.380  49.449  1.00  0.00     0.037 C 
BRANCH  18  19
HETATM   19  C5  UNL     1      26.525   3.023  50.885  1.00  0.00    -0.026 C 
HETATM   20  C4  UNL     1      26.617   1.830  51.406  1.00  0.00    -0.004 C 
BRANCH  20  21
HETATM   21  C3  UNL     1      26.518   1.618  52.841  1.00  0.00    -0.002 C 
HETATM   22  C2  UNL     1      26.875   0.502  53.451  1.00  0.00     0.004 C 
BRANCH  22  23
HETATM   23  C1  UNL     1      27.434  -0.789  52.990  1.00  0.00     0.249 C 
HETATM   24  F1  UNL     1      26.613  -1.457  52.111  1.00  0.00    -0.251 F 
ENDBRANCH  22  23
ENDBRANCH  20  21
ENDBRANCH  18  19
ENDBRANCH   1  18
TORSDOF 7
ENDMDL
MODEL 6
REMARK VINA RESULT:      -7.5      2.961      6.764
REMARK  7 active torsions:
REMARK  status: ('A' for Active; 'I' for Inactive)
REMARK    1  A    between atoms: C1_2  and  C2_3 
REMARK    2  A    between atoms: C3_4  and  C4_5 
REMARK    3  A    between atoms: C5_6  and  C6_7 
REMARK    4  A    between atoms: C6_7  and  C7_8 
REMARK    5  A    between atoms: C12_14  and  C13_15 
REMARK    6  A    between atoms: C13_15  and  C14_16 
REMARK    7  A    between atoms: C14_16  and  C15_17 
ROOT
HETATM    1  C7  UNL     1      21.504   1.034  51.119  1.00  0.00     0.034 A 
HETATM    2  C8  UNL     1      20.100   1.050  51.594  1.00  0.00     0.097 A 
HETATM    3  N1  UNL     1      19.529   0.440  52.608  1.00  0.00    -0.247 NA
HETATM    4  C9  UNL     1      20.420  -0.366  53.365  1.00  0.00     0.127 A 
HETATM    5  C10 UNL     1      21.697  -0.469  53.051  1.00  0.00    -0.011 A 
HETATM    6  C11 UNL     1      22.419   0.181  51.928  1.00  0.00     0.050 A 
HETATM    7  C12 UNL     1      22.025  -1.413  54.180  1.00  0.00     0.116 A 
HETATM    8  N2  UNL     1      20.634  -1.232  54.452  1.00  0.00    -0.366 N 
HETATM    9  H23 UNL     1      20.200  -1.717  55.258  1.00  0.00     0.161 HD
ENDROOT
BRANCH   7  10
HETATM   10  C13 UNL     1      22.948  -0.862  55.188  1.00  0.00     0.034 C 
BRANCH  10  11
HETATM   11  C14 UNL     1      24.317  -1.393  55.306  1.00  0.00     0.041 C 
BRANCH  11  12
HETATM   12  C15 UNL     1      25.404  -0.683  54.622  1.00  0.00    -0.058 A 
HETATM   13  C16 UNL     1      25.496  -0.969  53.258  1.00  0.00     0.007 A 
HETATM   14  C17 UNL     1      26.416  -0.406  52.399  1.00  0.00     0.001 A 
HETATM   15  C18 UNL     1      27.313   0.497  52.868  1.00  0.00     0.000 A 
HETATM   16  C19 UNL     1      27.260   0.812  54.208  1.00  0.00     0.001 A 
HETATM   17  C20 UNL     1      26.333   0.233  55.037  1.00  0.00     0.007 A 
ENDBRANCH  11  12
ENDBRANCH  10  11
ENDBRANCH   7  10
BRANCH   1  18
HETATM   18  C6  UNL     1      22.042   2.468  50.991  1.00  0.00     0.037 C 
BRANCH  18  19
HETATM   19  C5  UNL     1      23.465   2.314  50.605  1.00  0.00    -0.026 C 
HETATM   20  C4  UNL     1      24.479   3.004  51.048  1.00  0.00    -0.004 C 
BRANCH  20  21
HETATM   21  C3  UNL     1      25.833   2.749  50.583  1.00  0.00    -0.002 C 
HETATM   22  C2  UNL     1      26.540   3.598  49.860  1.00  0.00     0.004 C 
BRANCH  22  23
HETATM   23  C1  UNL     1      26.281   4.949  49.313  1.00  0.00     0.249 C 
HETATM   24  F1  UNL     1      27.084   5.267  48.242  1.00  0.00    -0.251 F 
ENDBRANCH  22  23
ENDBRANCH  20  21
ENDBRANCH  18  19
ENDBRANCH   1  18
TORSDOF 7
ENDMDL
MODEL 7
REMARK VINA RESULT:      -7.5      4.057      6.347
REMARK  7 active torsions:
REMARK  status: ('A' for Active; 'I' for Inactive)
REMARK    1  A    between atoms: C1_2  and  C2_3 
REMARK    2  A    between atoms: C3_4  and  C4_5 
REMARK    3  A    between atoms: C5_6  and  C6_7 
REMARK    4  A    between atoms: C6_7  and  C7_8 
REMARK    5  A    between atoms: C12_14  and  C13_15 
REMARK    6  A    between atoms: C13_15  and  C14_16 
REMARK    7  A    between atoms: C14_16  and  C15_17 
ROOT
HETATM    1  C7  UNL     1      23.983  -0.177  54.029  1.00  0.00     0.034 A 
HETATM    2  C8  UNL     1      23.453  -1.212  54.949  1.00  0.00     0.097 A 
HETATM    3  N1  UNL     1      22.219  -1.590  55.197  1.00  0.00    -0.247 NA
HETATM    4  C9  UNL     1      21.243  -0.876  54.453  1.00  0.00     0.127 A 
HETATM    5  C10 UNL     1      21.579   0.072  53.599  1.00  0.00    -0.011 A 
HETATM    6  C11 UNL     1      22.941   0.558  53.260  1.00  0.00     0.050 A 
HETATM    7  C12 UNL     1      20.160   0.386  53.199  1.00  0.00     0.116 A 
HETATM    8  N2  UNL     1      19.890  -0.661  54.132  1.00  0.00    -0.366 N 
HETATM    9  H23 UNL     1      18.912  -0.949  54.314  1.00  0.00     0.161 HD
ENDROOT
BRANCH   7  10
HETATM   10  C13 UNL     1      19.841   0.082  51.792  1.00  0.00     0.034 C 
BRANCH  10  11
HETATM   11  C14 UNL     1      19.594   1.176  50.837  1.00  0.00     0.041 C 
BRANCH  11  12
HETATM   12  C15 UNL     1      20.701   1.620  49.980  1.00  0.00    -0.058 A 
HETATM   13  C16 UNL     1      21.488   2.624  50.548  1.00  0.00     0.007 A 
HETATM   14  C17 UNL     1      22.598   3.182  49.951  1.00  0.00     0.001 A 
HETATM   15  C18 UNL     1      22.992   2.754  48.725  1.00  0.00     0.000 A 
HETATM   16  C19 UNL     1      22.247   1.762  48.126  1.00  0.00     0.001 A 
HETATM   17  C20 UNL     1      21.146   1.228  48.746  1.00  0.00     0.007 A 
ENDBRANCH  11  12
ENDBRANCH  10  11
ENDBRANCH   7  10
BRANCH   1  18
HETATM   18  C6  UNL     1      25.044  -0.783  53.096  1.00  0.00     0.037 C 
BRANCH  18  19
HETATM   19  C5  UNL     1      26.326  -0.172  53.520  1.00  0.00    -0.026 C 
HETATM   20  C4  UNL     1      27.235   0.361  52.751  1.00  0.00    -0.004 C 
BRANCH  20  21
HETATM   21  C3  UNL     1      28.456   0.930  53.300  1.00  0.00    -0.002 C 
HETATM   22  C2  UNL     1      29.496   0.216  53.689  1.00  0.00     0.004 C 
BRANCH  22  23
HETATM   23  C1  UNL     1      29.795  -1.234  53.720  1.00  0.00     0.249 C 
HETATM   24  F1  UNL     1      31.033  -1.524  54.246  1.00  0.00    -0.251 F 
ENDBRANCH  22  23
ENDBRANCH  20  21
ENDBRANCH  18  19
ENDBRANCH   1  18
TORSDOF 7
ENDMDL
MODEL 8
REMARK VINA RESULT:      -7.5      3.232      8.034
REMARK  7 active torsions:
REMARK  status: ('A' for Active; 'I' for Inactive)
REMARK    1  A    between atoms: C1_2  and  C2_3 
REMARK    2  A    between atoms: C3_4  and  C4_5 
REMARK    3  A    between atoms: C5_6  and  C6_7 
REMARK    4  A    between atoms: C6_7  and  C7_8 
REMARK    5  A    between atoms: C12_14  and  C13_15 
REMARK    6  A    between atoms: C13_15  and  C14_16 
REMARK    7  A    between atoms: C14_16  and  C15_17 
ROOT
HETATM    1  C7  UNL     1      25.975   5.230  48.936  1.00  0.00     0.034 A 
HETATM    2  C8  UNL     1      25.990   6.605  49.492  1.00  0.00     0.097 A 
HETATM    3  N1  UNL     1      25.316   7.137  50.487  1.00  0.00    -0.247 NA
HETATM    4  C9  UNL     1      24.428   6.230  51.124  1.00  0.00     0.127 A 
HETATM    5  C10 UNL     1      24.316   4.977  50.729  1.00  0.00    -0.011 A 
HETATM    6  C11 UNL     1      25.035   4.299  49.621  1.00  0.00     0.050 A 
HETATM    7  C12 UNL     1      23.276   4.616  51.759  1.00  0.00     0.116 A 
HETATM    8  N2  UNL     1      23.472   5.983  52.125  1.00  0.00    -0.366 N 
HETATM    9  H23 UNL     1      22.934   6.386  52.914  1.00  0.00     0.161 HD
ENDROOT
BRANCH   7  10
HETATM   10  C13 UNL     1      23.719   3.621  52.751  1.00  0.00     0.034 C 
BRANCH  10  11
HETATM   11  C14 UNL     1      23.317   2.210  52.614  1.00  0.00     0.041 C 
BRANCH  11  12
HETATM   12  C15 UNL     1      24.361   1.179  52.662  1.00  0.00    -0.058 A 
HETATM   13  C16 UNL     1      25.506   1.498  51.928  1.00  0.00     0.007 A 
HETATM   14  C17 UNL     1      26.629   0.703  51.843  1.00  0.00     0.001 A 
HETATM   15  C18 UNL     1      26.671  -0.480  52.504  1.00  0.00     0.000 A 
HETATM   16  C19 UNL     1      25.564  -0.838  53.244  1.00  0.00     0.001 A 
HETATM   17  C20 UNL     1      24.461  -0.025  53.307  1.00  0.00     0.007 A 
ENDBRANCH  11  12
ENDBRANCH  10  11
ENDBRANCH   7  10
BRANCH   1  18
HETATM   18  C6  UNL     1      27.400   4.656  48.891  1.00  0.00     0.037 C 
BRANCH  18  19
HETATM   19  C5  UNL     1      28.224   5.717  48.264  1.00  0.00    -0.026 C 
HETATM   20  C4  UNL     1      29.507   5.683  48.035  1.00  0.00    -0.004 C 
BRANCH  20  21
HETATM   21  C3  UNL     1      30.197   6.800  47.409  1.00  0.00    -0.002 C 
HETATM   22  C2  UNL     1      30.992   7.634  48.053  1.00  0.00     0.004 C 
BRANCH  22  23
HETATM   23  C1  UNL     1      31.438   7.752  49.460  1.00  0.00     0.249 C 
HETATM   24  F1  UNL     1      32.121   6.646  49.910  1.00  0.00    -0.251 F 
ENDBRANCH  22  23
ENDBRANCH  20  21
ENDBRANCH  18  19
ENDBRANCH   1  18
TORSDOF 7
ENDMDL
MODEL 9
REMARK VINA RESULT:      -7.5      2.458      5.690
REMARK  7 active torsions:
REMARK  status: ('A' for Active; 'I' for Inactive)
REMARK    1  A    between atoms: C1_2  and  C2_3 
REMARK    2  A    between atoms: C3_4  and  C4_5 
REMARK    3  A    between atoms: C5_6  and  C6_7 
REMARK    4  A    between atoms: C6_7  and  C7_8 
REMARK    5  A    between atoms: C12_14  and  C13_15 
REMARK    6  A    between atoms: C13_15  and  C14_16 
REMARK    7  A    between atoms: C14_16  and  C15_17 
ROOT
HETATM    1  C7  UNL     1      26.136   1.466  52.904  1.00  0.00     0.034 A 
HETATM    2  C8  UNL     1      26.633   0.328  53.715  1.00  0.00     0.097 A 
HETATM    3  N1  UNL     1      25.985  -0.637  54.327  1.00  0.00    -0.247 NA
HETATM    4  C9  UNL     1      24.575  -0.563  54.179  1.00  0.00     0.127 A 
HETATM    5  C10 UNL     1      24.002   0.399  53.481  1.00  0.00    -0.011 A 
HETATM    6  C11 UNL     1      24.654   1.522  52.762  1.00  0.00     0.050 A 
HETATM    7  C12 UNL     1      22.598  -0.093  53.726  1.00  0.00     0.116 A 
HETATM    8  N2  UNL     1      23.304  -1.102  54.449  1.00  0.00    -0.366 N 
HETATM    9  H23 UNL     1      22.779  -1.858  54.924  1.00  0.00     0.161 HD
ENDROOT
BRANCH   7  10
HETATM   10  C13 UNL     1      21.892  -0.552  52.516  1.00  0.00     0.034 C 
BRANCH  10  11
HETATM   11  C14 UNL     1      20.945   0.342  51.828  1.00  0.00     0.041 C 
BRANCH  11  12
HETATM   12  C15 UNL     1      21.484   1.425  50.996  1.00  0.00    -0.058 A 
HETATM   13  C16 UNL     1      21.348   2.694  51.562  1.00  0.00     0.007 A 
HETATM   14  C17 UNL     1      21.800   3.862  50.986  1.00  0.00     0.001 A 
HETATM   15  C18 UNL     1      22.430   3.823  49.785  1.00  0.00     0.000 A 
HETATM   16  C19 UNL     1      22.589   2.591  49.188  1.00  0.00     0.001 A 
HETATM   17  C20 UNL     1      22.126   1.447  49.787  1.00  0.00     0.007 A 
ENDBRANCH  11  12
ENDBRANCH  10  11
ENDBRANCH   7  10
BRANCH   1  18
HETATM   18  C6  UNL     1      26.831   1.488  51.533  1.00  0.00     0.037 C 
BRANCH  18  19
HETATM   19  C5  UNL     1      26.587   2.849  50.998  1.00  0.00    -0.026 C 
HETATM   20  C4  UNL     1      26.188   3.162  49.797  1.00  0.00    -0.004 C 
BRANCH  20  21
HETATM   21  C3  UNL     1      25.986   4.547  49.400  1.00  0.00    -0.002 C 
HETATM   22  C2  UNL     1      26.912   5.295  48.827  1.00  0.00     0.004 C 
BRANCH  22  23
HETATM   23  C1  UNL     1      28.316   5.063  48.420  1.00  0.00     0.249 C 
HETATM   24  F1  UNL     1      29.064   6.216  48.361  1.00  0.00    -0.251 F 
ENDBRANCH  22  23
ENDBRANCH  20  21
ENDBRANCH  18  19
ENDBRANCH   1  18
TORSDOF 7
ENDMDL
