MODEL 1
REMARK VINA RESULT:      -6.8      0.000      0.000
REMARK  8 active torsions:
REMARK  status: ('A' for Active; 'I' for Inactive)
REMARK    1  A    between atoms: O1_2  and  C2_3 
REMARK    2  A    between atoms: C6_9  and  N3_10 
REMARK    3  A    between atoms: N3_10  and  C8_12 
REMARK    4  A    between atoms: C8_12  and  P1_13 
REMARK    5  A    between atoms: C8_12  and  C9_14 
REMARK    6  A    between atoms: C10_15  and  C12_17 
REMARK    7  A    between atoms: C12_17  and  C13_18 
REMARK    8  A    between atoms: C16_24  and  O2_25 
ROOT
HETATM    1  C2  UNL     1      25.936  -0.482  53.795  1.00  0.00     0.103 A 
HETATM    2  C3  UNL     1      24.966  -0.968  54.672  1.00  0.00     0.072 A 
HETATM    3  C4  UNL     1      23.632  -0.739  54.353  1.00  0.00     0.075 A 
HETATM    4  N1  UNL     1      22.612  -1.167  55.136  1.00  0.00    -0.241 NA
HETATM    5  C5  UNL     1      21.317  -0.925  54.792  1.00  0.00     0.236 A 
HETATM    6  N2  UNL     1      21.041  -0.247  53.656  1.00  0.00    -0.224 NA
HETATM    7  C6  UNL     1      22.028   0.205  52.833  1.00  0.00     0.140 A 
HETATM    8  C14 UNL     1      23.334  -0.048  53.196  1.00  0.00     0.041 A 
HETATM    9  C15 UNL     1      24.302   0.421  52.346  1.00  0.00     0.057 A 
HETATM   10  C16 UNL     1      25.635   0.208  52.636  1.00  0.00     0.102 A 
ENDROOT
BRANCH   7  11
HETATM   11  N3  UNL     1      21.585   0.902  51.674  1.00  0.00    -0.358 N 
HETATM   12  C7  UNL     1      21.232   0.256  50.422  1.00  0.00     0.152 C 
BRANCH  11  13
HETATM   13  C8  UNL     1      21.473   2.355  51.724  1.00  0.00     0.131 C 
BRANCH  13  14
HETATM   14  P1  UNL     1      19.680   2.790  51.823  1.00  0.00    -0.113 P 
HETATM   15  H10 UNL     1      19.186   2.394  53.125  1.00  0.00     0.057 HD
HETATM   16  H11 UNL     1      18.885   2.146  50.824  1.00  0.00     0.057 HD
ENDBRANCH  13  14
BRANCH  13  17
HETATM   17  C9  UNL     1      22.087   2.905  50.490  1.00  0.00     0.005 C 
HETATM   18  C10 UNL     1      23.209   3.635  50.529  1.00  0.00    -0.077 C 
HETATM   19  C11 UNL     1      23.833   4.194  49.273  1.00  0.00     0.043 C 
BRANCH  18  20
HETATM   20  C12 UNL     1      23.912   3.943  51.796  1.00  0.00     0.151 C 
BRANCH  20  21
HETATM   21  C13 UNL     1      23.491   5.277  52.371  1.00  0.00     0.391 C 
HETATM   22  F1  UNL     1      22.137   5.489  52.215  1.00  0.00    -0.171 F 
HETATM   23  F2  UNL     1      23.733   5.277  53.748  1.00  0.00    -0.171 F 
HETATM   24  F3  UNL     1      24.228   6.297  51.830  1.00  0.00    -0.171 F 
ENDBRANCH  20  21
ENDBRANCH  18  20
ENDBRANCH  13  17
ENDBRANCH  11  13
ENDBRANCH   7  11
BRANCH  10  25
HETATM   25  O2  UNL     1      26.672   0.656  51.821  1.00  0.00    -0.353 OA
HETATM   26  C17 UNL     1      26.958   2.044  51.830  1.00  0.00     0.210 C 
ENDBRANCH  10  25
BRANCH   1  27
HETATM   27  O1  UNL     1      27.279  -0.695  54.087  1.00  0.00    -0.353 OA
HETATM   28  C1  UNL     1      27.952   0.212  54.938  1.00  0.00     0.210 C 
ENDBRANCH   1  27
TORSDOF 8
ENDMDL
MODEL 2
REMARK VINA RESULT:      -6.5      3.189      4.892
REMARK  8 active torsions:
REMARK  status: ('A' for Active; 'I' for Inactive)
REMARK    1  A    between atoms: O1_2  and  C2_3 
REMARK    2  A    between atoms: C6_9  and  N3_10 
REMARK    3  A    between atoms: N3_10  and  C8_12 
REMARK    4  A    between atoms: C8_12  and  P1_13 
REMARK    5  A    between atoms: C8_12  and  C9_14 
REMARK    6  A    between atoms: C10_15  and  C12_17 
REMARK    7  A    between atoms: C12_17  and  C13_18 
REMARK    8  A    between atoms: C16_24  and  O2_25 
ROOT
HETATM    1  C2  UNL     1      27.056   0.086  53.416  1.00  0.00     0.103 A 
HETATM    2  C3  UNL     1      27.550   1.068  52.557  1.00  0.00     0.072 A 
HETATM    3  C4  UNL     1      26.626   1.860  51.881  1.00  0.00     0.075 A 
HETATM    4  N1  UNL     1      26.999   2.841  51.023  1.00  0.00    -0.241 NA
HETATM    5  C5  UNL     1      26.068   3.597  50.379  1.00  0.00     0.236 A 
HETATM    6  N2  UNL     1      24.753   3.368  50.595  1.00  0.00    -0.224 NA
HETATM    7  C6  UNL     1      24.325   2.395  51.446  1.00  0.00     0.140 A 
HETATM    8  C14 UNL     1      25.281   1.638  52.090  1.00  0.00     0.041 A 
HETATM    9  C15 UNL     1      24.816   0.668  52.940  1.00  0.00     0.057 A 
HETATM   10  C16 UNL     1      25.708  -0.133  53.625  1.00  0.00     0.102 A 
ENDROOT
BRANCH   7  11
HETATM   11  N3  UNL     1      22.912   2.271  51.571  1.00  0.00    -0.358 N 
HETATM   12  C7  UNL     1      22.096   3.108  52.431  1.00  0.00     0.152 C 
BRANCH  11  13
HETATM   13  C8  UNL     1      22.223   1.245  50.798  1.00  0.00     0.131 C 
BRANCH  13  14
HETATM   14  P1  UNL     1      22.174   1.790  49.033  1.00  0.00    -0.113 P 
HETATM   15  H10 UNL     1      22.480   0.650  48.195  1.00  0.00     0.057 HD
HETATM   16  H11 UNL     1      23.107   2.832  48.737  1.00  0.00     0.057 HD
ENDBRANCH  13  14
BRANCH  13  17
HETATM   17  C9  UNL     1      20.854   1.097  51.349  1.00  0.00     0.005 C 
HETATM   18  C10 UNL     1      20.546   0.123  52.215  1.00  0.00    -0.077 C 
HETATM   19  C11 UNL     1      19.151  -0.026  52.775  1.00  0.00     0.043 C 
BRANCH  18  20
HETATM   20  C12 UNL     1      21.542  -0.870  52.681  1.00  0.00     0.151 C 
BRANCH  20  21
HETATM   21  C13 UNL     1      21.410  -1.157  54.160  1.00  0.00     0.391 C 
HETATM   22  F1  UNL     1      20.261  -1.868  54.435  1.00  0.00    -0.171 F 
HETATM   23  F2  UNL     1      22.478  -1.962  54.565  1.00  0.00    -0.171 F 
HETATM   24  F3  UNL     1      21.475   0.001  54.890  1.00  0.00    -0.171 F 
ENDBRANCH  20  21
ENDBRANCH  18  20
ENDBRANCH  13  17
ENDBRANCH  11  13
ENDBRANCH   7  11
BRANCH  10  25
HETATM   25  O2  UNL     1      25.309  -1.137  54.503  1.00  0.00    -0.353 OA
HETATM   26  C17 UNL     1      25.116  -0.781  55.861  1.00  0.00     0.210 C 
ENDBRANCH  10  25
BRANCH   1  27
HETATM   27  O1  UNL     1      27.954  -0.721  54.106  1.00  0.00    -0.353 OA
HETATM   28  C1  UNL     1      29.311  -0.736  53.710  1.00  0.00     0.210 C 
ENDBRANCH   1  27
TORSDOF 8
ENDMDL
MODEL 3
REMARK VINA RESULT:      -6.5      3.025      4.707
REMARK  8 active torsions:
REMARK  status: ('A' for Active; 'I' for Inactive)
REMARK    1  A    between atoms: O1_2  and  C2_3 
REMARK    2  A    between atoms: C6_9  and  N3_10 
REMARK    3  A    between atoms: N3_10  and  C8_12 
REMARK    4  A    between atoms: C8_12  and  P1_13 
REMARK    5  A    between atoms: C8_12  and  C9_14 
REMARK    6  A    between atoms: C10_15  and  C12_17 
REMARK    7  A    between atoms: C12_17  and  C13_18 
REMARK    8  A    between atoms: C16_24  and  O2_25 
ROOT
HETATM    1  C2  UNL     1      25.640  -0.021  52.676  1.00  0.00     0.103 A 
HETATM    2  C3  UNL     1      26.459   0.608  51.738  1.00  0.00     0.072 A 
HETATM    3  C4  UNL     1      26.093   1.879  51.309  1.00  0.00     0.075 A 
HETATM    4  N1  UNL     1      26.818   2.578  50.400  1.00  0.00    -0.241 NA
HETATM    5  C5  UNL     1      26.429   3.820  50.003  1.00  0.00     0.236 A 
HETATM    6  N2  UNL     1      25.306   4.368  50.518  1.00  0.00    -0.224 NA
HETATM    7  C6  UNL     1      24.542   3.710  51.433  1.00  0.00     0.140 A 
HETATM    8  C14 UNL     1      24.949   2.452  51.825  1.00  0.00     0.041 A 
HETATM    9  C15 UNL     1      24.158   1.818  52.748  1.00  0.00     0.057 A 
HETATM   10  C16 UNL     1      24.496   0.556  53.193  1.00  0.00     0.102 A 
ENDROOT
BRANCH   7  11
HETATM   11  N3  UNL     1      23.390   4.413  51.886  1.00  0.00    -0.358 N 
HETATM   12  C7  UNL     1      23.309   5.109  53.157  1.00  0.00     0.152 C 
BRANCH  11  13
HETATM   13  C8  UNL     1      22.206   4.446  51.036  1.00  0.00     0.131 C 
BRANCH  13  14
HETATM   14  P1  UNL     1      21.716   6.212  50.800  1.00  0.00    -0.113 P 
HETATM   15  H10 UNL     1      20.676   6.267  49.795  1.00  0.00     0.057 HD
HETATM   16  H11 UNL     1      22.797   7.047  50.376  1.00  0.00     0.057 HD
ENDBRANCH  13  14
BRANCH  13  17
HETATM   17  C9  UNL     1      21.131   3.681  51.715  1.00  0.00     0.005 C 
HETATM   18  C10 UNL     1      20.441   2.725  51.082  1.00  0.00    -0.077 C 
HETATM   19  C11 UNL     1      19.347   1.947  51.774  1.00  0.00     0.043 C 
BRANCH  18  20
HETATM   20  C12 UNL     1      20.697   2.364  49.668  1.00  0.00     0.151 C 
BRANCH  20  21
HETATM   21  C13 UNL     1      21.810   1.350  49.531  1.00  0.00     0.391 C 
HETATM   22  F1  UNL     1      21.956   0.602  50.681  1.00  0.00    -0.171 F 
HETATM   23  F2  UNL     1      21.484   0.449  48.514  1.00  0.00    -0.171 F 
HETATM   24  F3  UNL     1      22.985   1.959  49.173  1.00  0.00    -0.171 F 
ENDBRANCH  20  21
ENDBRANCH  18  20
ENDBRANCH  13  17
ENDBRANCH  11  13
ENDBRANCH   7  11
BRANCH  10  25
HETATM   25  O2  UNL     1      23.741  -0.149  54.127  1.00  0.00    -0.353 OA
HETATM   26  C17 UNL     1      22.529  -0.734  53.681  1.00  0.00     0.210 C 
ENDBRANCH  10  25
BRANCH   1  27
HETATM   27  O1  UNL     1      25.980  -1.293  53.125  1.00  0.00    -0.353 OA
HETATM   28  C1  UNL     1      27.119  -1.933  52.584  1.00  0.00     0.210 C 
ENDBRANCH   1  27
TORSDOF 8
ENDMDL
MODEL 4
REMARK VINA RESULT:      -6.4      2.238      3.618
REMARK  8 active torsions:
REMARK  status: ('A' for Active; 'I' for Inactive)
REMARK    1  A    between atoms: O1_2  and  C2_3 
REMARK    2  A    between atoms: C6_9  and  N3_10 
REMARK    3  A    between atoms: N3_10  and  C8_12 
REMARK    4  A    between atoms: C8_12  and  P1_13 
REMARK    5  A    between atoms: C8_12  and  C9_14 
REMARK    6  A    between atoms: C10_15  and  C12_17 
REMARK    7  A    between atoms: C12_17  and  C13_18 
REMARK    8  A    between atoms: C16_24  and  O2_25 
ROOT
HETATM    1  C2  UNL     1      26.311   0.310  53.380  1.00  0.00     0.103 A 
HETATM    2  C3  UNL     1      27.015   1.173  52.539  1.00  0.00     0.072 A 
HETATM    3  C4  UNL     1      26.285   1.926  51.626  1.00  0.00     0.075 A 
HETATM    4  N1  UNL     1      26.870   2.793  50.764  1.00  0.00    -0.241 NA
HETATM    5  C5  UNL     1      26.124   3.514  49.884  1.00  0.00     0.236 A 
HETATM    6  N2  UNL     1      24.780   3.366  49.865  1.00  0.00    -0.224 NA
HETATM    7  C6  UNL     1      24.142   2.510  50.710  1.00  0.00     0.140 A 
HETATM    8  C14 UNL     1      24.913   1.786  51.595  1.00  0.00     0.041 A 
HETATM    9  C15 UNL     1      24.238   0.933  52.431  1.00  0.00     0.057 A 
HETATM   10  C16 UNL     1      24.936   0.173  53.348  1.00  0.00     0.102 A 
ENDROOT
BRANCH   7  11
HETATM   11  N3  UNL     1      22.726   2.461  50.575  1.00  0.00    -0.358 N 
HETATM   12  C7  UNL     1      22.012   1.410  49.873  1.00  0.00     0.152 C 
BRANCH  11  13
HETATM   13  C8  UNL     1      21.923   3.523  51.170  1.00  0.00     0.131 C 
BRANCH  13  14
HETATM   14  P1  UNL     1      20.632   2.741  52.235  1.00  0.00    -0.113 P 
HETATM   15  H10 UNL     1      21.191   2.536  53.555  1.00  0.00     0.057 HD
HETATM   16  H11 UNL     1      20.177   1.479  51.738  1.00  0.00     0.057 HD
ENDBRANCH  13  14
BRANCH  13  17
HETATM   17  C9  UNL     1      21.306   4.304  50.070  1.00  0.00     0.005 C 
HETATM   18  C10 UNL     1      21.314   5.642  50.067  1.00  0.00    -0.077 C 
HETATM   19  C11 UNL     1      20.686   6.435  48.946  1.00  0.00     0.043 C 
BRANCH  18  20
HETATM   20  C12 UNL     1      21.935   6.435  51.153  1.00  0.00     0.151 C 
BRANCH  20  21
HETATM   21  C13 UNL     1      23.403   6.699  50.899  1.00  0.00     0.391 C 
HETATM   22  F1  UNL     1      23.733   6.483  49.577  1.00  0.00    -0.171 F 
HETATM   23  F2  UNL     1      23.676   8.044  51.159  1.00  0.00    -0.171 F 
HETATM   24  F3  UNL     1      24.186   5.955  51.743  1.00  0.00    -0.171 F 
ENDBRANCH  20  21
ENDBRANCH  18  20
ENDBRANCH  13  17
ENDBRANCH  11  13
ENDBRANCH   7  11
BRANCH  10  25
HETATM   25  O2  UNL     1      24.320  -0.714  54.227  1.00  0.00    -0.353 OA
HETATM   26  C17 UNL     1      22.906  -0.802  54.183  1.00  0.00     0.210 C 
ENDBRANCH  10  25
BRANCH   1  27
HETATM   27  O1  UNL     1      27.013  -0.456  54.303  1.00  0.00    -0.353 OA
HETATM   28  C1  UNL     1      28.329  -0.076  54.656  1.00  0.00     0.210 C 
ENDBRANCH   1  27
TORSDOF 8
ENDMDL
MODEL 5
REMARK VINA RESULT:      -6.4      3.529      5.876
REMARK  8 active torsions:
REMARK  status: ('A' for Active; 'I' for Inactive)
REMARK    1  A    between atoms: O1_2  and  C2_3 
REMARK    2  A    between atoms: C6_9  and  N3_10 
REMARK    3  A    between atoms: N3_10  and  C8_12 
REMARK    4  A    between atoms: C8_12  and  P1_13 
REMARK    5  A    between atoms: C8_12  and  C9_14 
REMARK    6  A    between atoms: C10_15  and  C12_17 
REMARK    7  A    between atoms: C12_17  and  C13_18 
REMARK    8  A    between atoms: C16_24  and  O2_25 
ROOT
HETATM    1  C2  UNL     1      26.175   5.015  49.072  1.00  0.00     0.103 A 
HETATM    2  C3  UNL     1      26.916   4.042  49.743  1.00  0.00     0.072 A 
HETATM    3  C4  UNL     1      26.217   3.079  50.465  1.00  0.00     0.075 A 
HETATM    4  N1  UNL     1      26.839   2.090  51.153  1.00  0.00    -0.241 NA
HETATM    5  C5  UNL     1      26.122   1.166  51.848  1.00  0.00     0.236 A 
HETATM    6  N2  UNL     1      24.772   1.231  51.855  1.00  0.00    -0.224 NA
HETATM    7  C6  UNL     1      24.098   2.203  51.181  1.00  0.00     0.140 A 
HETATM    8  C14 UNL     1      24.838   3.133  50.483  1.00  0.00     0.041 A 
HETATM    9  C15 UNL     1      24.128   4.098  49.815  1.00  0.00     0.057 A 
HETATM   10  C16 UNL     1      24.795   5.065  49.091  1.00  0.00     0.102 A 
ENDROOT
BRANCH   7  11
HETATM   11  N3  UNL     1      22.679   2.144  51.281  1.00  0.00    -0.358 N 
HETATM   12  C7  UNL     1      21.867   3.154  51.935  1.00  0.00     0.152 C 
BRANCH  11  13
HETATM   13  C8  UNL     1      21.978   1.006  50.698  1.00  0.00     0.131 C 
BRANCH  13  14
HETATM   14  P1  UNL     1      21.500   1.449  48.969  1.00  0.00    -0.113 P 
HETATM   15  H10 UNL     1      22.429   2.446  48.480  1.00  0.00     0.057 HD
HETATM   16  H11 UNL     1      20.175   1.978  48.867  1.00  0.00     0.057 HD
ENDBRANCH  13  14
BRANCH  13  17
HETATM   17  C9  UNL     1      20.779   0.731  51.529  1.00  0.00     0.005 C 
HETATM   18  C10 UNL     1      20.787  -0.205  52.486  1.00  0.00    -0.077 C 
HETATM   19  C11 UNL     1      19.567  -0.484  53.330  1.00  0.00     0.043 C 
BRANCH  18  20
HETATM   20  C12 UNL     1      21.983  -1.028  52.782  1.00  0.00     0.151 C 
BRANCH  20  21
HETATM   21  C13 UNL     1      22.657  -0.610  54.070  1.00  0.00     0.391 C 
HETATM   22  F1  UNL     1      22.420   0.718  54.356  1.00  0.00    -0.171 F 
HETATM   23  F2  UNL     1      22.113  -1.344  55.128  1.00  0.00    -0.171 F 
HETATM   24  F3  UNL     1      23.998  -0.888  54.032  1.00  0.00    -0.171 F 
ENDBRANCH  20  21
ENDBRANCH  18  20
ENDBRANCH  13  17
ENDBRANCH  11  13
ENDBRANCH   7  11
BRANCH  10  25
HETATM   25  O2  UNL     1      24.141   6.075  48.389  1.00  0.00    -0.353 OA
HETATM   26  C17 UNL     1      22.891   5.759  47.800  1.00  0.00     0.210 C 
ENDBRANCH  10  25
BRANCH   1  27
HETATM   27  O1  UNL     1      26.846   5.990  48.343  1.00  0.00    -0.353 OA
HETATM   28  C1  UNL     1      28.258   5.953  48.278  1.00  0.00     0.210 C 
ENDBRANCH   1  27
TORSDOF 8
ENDMDL
MODEL 6
REMARK VINA RESULT:      -6.3      1.636      2.064
REMARK  8 active torsions:
REMARK  status: ('A' for Active; 'I' for Inactive)
REMARK    1  A    between atoms: O1_2  and  C2_3 
REMARK    2  A    between atoms: C6_9  and  N3_10 
REMARK    3  A    between atoms: N3_10  and  C8_12 
REMARK    4  A    between atoms: C8_12  and  P1_13 
REMARK    5  A    between atoms: C8_12  and  C9_14 
REMARK    6  A    between atoms: C10_15  and  C12_17 
REMARK    7  A    between atoms: C12_17  and  C13_18 
REMARK    8  A    between atoms: C16_24  and  O2_25 
ROOT
HETATM    1  C2  UNL     1      26.936   1.512  52.420  1.00  0.00     0.103 A 
HETATM    2  C3  UNL     1      26.250   0.565  53.181  1.00  0.00     0.072 A 
HETATM    3  C4  UNL     1      24.889   0.402  52.938  1.00  0.00     0.075 A 
HETATM    4  N1  UNL     1      24.129  -0.489  53.620  1.00  0.00    -0.241 NA
HETATM    5  C5  UNL     1      22.801  -0.622  53.356  1.00  0.00     0.236 A 
HETATM    6  N2  UNL     1      22.228   0.145  52.401  1.00  0.00    -0.224 NA
HETATM    7  C6  UNL     1      22.945   1.055  51.686  1.00  0.00     0.140 A 
HETATM    8  C14 UNL     1      24.290   1.177  51.967  1.00  0.00     0.041 A 
HETATM    9  C15 UNL     1      24.983   2.102  51.228  1.00  0.00     0.057 A 
HETATM   10  C16 UNL     1      26.333   2.286  51.447  1.00  0.00     0.102 A 
ENDROOT
BRANCH   7  11
HETATM   11  N3  UNL     1      22.207   1.788  50.715  1.00  0.00    -0.358 N 
HETATM   12  C7  UNL     1      21.709   1.223  49.474  1.00  0.00     0.152 C 
BRANCH  11  13
HETATM   13  C8  UNL     1      21.923   3.197  50.962  1.00  0.00     0.131 C 
BRANCH  13  14
HETATM   14  P1  UNL     1      20.362   3.306  51.945  1.00  0.00    -0.113 P 
HETATM   15  H10 UNL     1      19.404   4.091  51.195  1.00  0.00     0.057 HD
HETATM   16  H11 UNL     1      20.542   3.918  53.225  1.00  0.00     0.057 HD
ENDBRANCH  13  14
BRANCH  13  17
HETATM   17  C9  UNL     1      21.774   3.872  49.649  1.00  0.00     0.005 C 
HETATM   18  C10 UNL     1      22.609   4.844  49.259  1.00  0.00    -0.077 C 
HETATM   19  C11 UNL     1      22.456   5.530  47.923  1.00  0.00     0.043 C 
BRANCH  18  20
HETATM   20  C12 UNL     1      23.732   5.312  50.104  1.00  0.00     0.151 C 
BRANCH  20  21
HETATM   21  C13 UNL     1      23.279   6.296  51.159  1.00  0.00     0.391 C 
HETATM   22  F1  UNL     1      21.946   6.615  51.013  1.00  0.00    -0.171 F 
HETATM   23  F2  UNL     1      23.406   5.704  52.419  1.00  0.00    -0.171 F 
HETATM   24  F3  UNL     1      24.071   7.415  51.156  1.00  0.00    -0.171 F 
ENDBRANCH  20  21
ENDBRANCH  18  20
ENDBRANCH  13  17
ENDBRANCH  11  13
ENDBRANCH   7  11
BRANCH  10  25
HETATM   25  O2  UNL     1      27.100   3.206  50.737  1.00  0.00    -0.353 OA
HETATM   26  C17 UNL     1      26.680   3.534  49.424  1.00  0.00     0.210 C 
ENDBRANCH  10  25
BRANCH   1  27
HETATM   27  O1  UNL     1      28.296   1.697  52.640  1.00  0.00    -0.353 OA
HETATM   28  C1  UNL     1      28.717   2.436  53.770  1.00  0.00     0.210 C 
ENDBRANCH   1  27
TORSDOF 8
ENDMDL
MODEL 7
REMARK VINA RESULT:      -6.2      2.072      3.041
REMARK  8 active torsions:
REMARK  status: ('A' for Active; 'I' for Inactive)
REMARK    1  A    between atoms: O1_2  and  C2_3 
REMARK    2  A    between atoms: C6_9  and  N3_10 
REMARK    3  A    between atoms: N3_10  and  C8_12 
REMARK    4  A    between atoms: C8_12  and  P1_13 
REMARK    5  A    between atoms: C8_12  and  C9_14 
REMARK    6  A    between atoms: C10_15  and  C12_17 
REMARK    7  A    between atoms: C12_17  and  C13_18 
REMARK    8  A    between atoms: C16_24  and  O2_25 
ROOT
HETATM    1  C2  UNL     1      25.940  -0.315  53.271  1.00  0.00     0.103 A 
HETATM    2  C3  UNL     1      24.604  -0.675  53.449  1.00  0.00     0.072 A 
HETATM    3  C4  UNL     1      23.631   0.259  53.107  1.00  0.00     0.075 A 
HETATM    4  N1  UNL     1      22.305   0.012  53.241  1.00  0.00    -0.241 NA
HETATM    5  C5  UNL     1      21.381   0.949  52.896  1.00  0.00     0.236 A 
HETATM    6  N2  UNL     1      21.787   2.145  52.413  1.00  0.00    -0.224 NA
HETATM    7  C6  UNL     1      23.106   2.445  52.258  1.00  0.00     0.140 A 
HETATM    8  C14 UNL     1      24.029   1.484  52.613  1.00  0.00     0.041 A 
HETATM    9  C15 UNL     1      25.349   1.818  52.444  1.00  0.00     0.057 A 
HETATM   10  C16 UNL     1      26.336   0.912  52.775  1.00  0.00     0.102 A 
ENDROOT
BRANCH   7  11
HETATM   11  N3  UNL     1      23.381   3.741  51.739  1.00  0.00    -0.358 N 
HETATM   12  C7  UNL     1      23.528   4.930  52.557  1.00  0.00     0.152 C 
BRANCH  11  13
HETATM   13  C8  UNL     1      23.527   3.907  50.297  1.00  0.00     0.131 C 
BRANCH  13  14
HETATM   14  P1  UNL     1      22.605   2.539  49.464  1.00  0.00    -0.113 P 
HETATM   15  H10 UNL     1      23.568   1.607  48.917  1.00  0.00     0.057 HD
HETATM   16  H11 UNL     1      21.760   2.991  48.403  1.00  0.00     0.057 HD
ENDBRANCH  13  14
BRANCH  13  17
HETATM   17  C9  UNL     1      24.974   3.849  49.973  1.00  0.00     0.005 C 
HETATM   18  C10 UNL     1      25.572   4.806  49.252  1.00  0.00    -0.077 C 
HETATM   19  C11 UNL     1      27.044   4.745  48.923  1.00  0.00     0.043 C 
BRANCH  18  20
HETATM   20  C12 UNL     1      24.838   5.982  48.730  1.00  0.00     0.151 C 
BRANCH  20  21
HETATM   21  C13 UNL     1      25.111   7.229  49.541  1.00  0.00     0.391 C 
HETATM   22  F1  UNL     1      25.571   6.920  50.803  1.00  0.00    -0.171 F 
HETATM   23  F2  UNL     1      26.125   7.964  48.920  1.00  0.00    -0.171 F 
HETATM   24  F3  UNL     1      24.001   8.032  49.590  1.00  0.00    -0.171 F 
ENDBRANCH  20  21
ENDBRANCH  18  20
ENDBRANCH  13  17
ENDBRANCH  11  13
ENDBRANCH   7  11
BRANCH  10  25
HETATM   25  O2  UNL     1      27.695   1.181  52.631  1.00  0.00    -0.353 OA
HETATM   26  C17 UNL     1      28.247   2.208  53.437  1.00  0.00     0.210 C 
ENDBRANCH  10  25
BRANCH   1  27
HETATM   27  O1  UNL     1      26.935  -1.228  53.604  1.00  0.00    -0.353 OA
HETATM   28  C1  UNL     1      27.250  -2.266  52.698  1.00  0.00     0.210 C 
ENDBRANCH   1  27
TORSDOF 8
ENDMDL
MODEL 8
REMARK VINA RESULT:      -6.1      2.880      3.599
REMARK  8 active torsions:
REMARK  status: ('A' for Active; 'I' for Inactive)
REMARK    1  A    between atoms: O1_2  and  C2_3 
REMARK    2  A    between atoms: C6_9  and  N3_10 
REMARK    3  A    between atoms: N3_10  and  C8_12 
REMARK    4  A    between atoms: C8_12  and  P1_13 
REMARK    5  A    between atoms: C8_12  and  C9_14 
REMARK    6  A    between atoms: C10_15  and  C12_17 
REMARK    7  A    between atoms: C12_17  and  C13_18 
REMARK    8  A    between atoms: C16_24  and  O2_25 
ROOT
HETATM    1  C2  UNL     1      27.050  -0.337  53.453  1.00  0.00     0.103 A 
HETATM    2  C3  UNL     1      25.827  -0.977  53.657  1.00  0.00     0.072 A 
HETATM    3  C4  UNL     1      24.669  -0.271  53.346  1.00  0.00     0.075 A 
HETATM    4  N1  UNL     1      23.430  -0.798  53.507  1.00  0.00    -0.241 NA
HETATM    5  C5  UNL     1      22.319  -0.079  53.192  1.00  0.00     0.236 A 
HETATM    6  N2  UNL     1      22.448   1.179  52.712  1.00  0.00    -0.224 NA
HETATM    7  C6  UNL     1      23.668   1.755  52.531  1.00  0.00     0.140 A 
HETATM    8  C14 UNL     1      24.784   1.013  52.856  1.00  0.00     0.041 A 
HETATM    9  C15 UNL     1      25.997   1.624  52.661  1.00  0.00     0.057 A 
HETATM   10  C16 UNL     1      27.162   0.949  52.961  1.00  0.00     0.102 A 
ENDROOT
BRANCH   7  11
HETATM   11  N3  UNL     1      23.646   3.083  52.019  1.00  0.00    -0.358 N 
HETATM   12  C7  UNL     1      23.792   4.273  52.838  1.00  0.00     0.152 C 
BRANCH  11  13
HETATM   13  C8  UNL     1      23.466   3.284  50.586  1.00  0.00     0.131 C 
BRANCH  13  14
HETATM   14  P1  UNL     1      25.084   3.819  49.872  1.00  0.00    -0.113 P 
HETATM   15  H10 UNL     1      25.838   2.636  49.514  1.00  0.00     0.057 HD
HETATM   16  H11 UNL     1      25.871   4.599  50.777  1.00  0.00     0.057 HD
ENDBRANCH  13  14
BRANCH  13  17
HETATM   17  C9  UNL     1      22.428   4.327  50.395  1.00  0.00     0.005 C 
HETATM   18  C10 UNL     1      21.422   4.166  49.527  1.00  0.00    -0.077 C 
HETATM   19  C11 UNL     1      20.366   5.229  49.334  1.00  0.00     0.043 C 
BRANCH  18  20
HETATM   20  C12 UNL     1      21.273   2.946  48.700  1.00  0.00     0.151 C 
BRANCH  20  21
HETATM   21  C13 UNL     1      21.975   3.073  47.367  1.00  0.00     0.391 C 
HETATM   22  F1  UNL     1      22.765   1.973  47.105  1.00  0.00    -0.171 F 
HETATM   23  F2  UNL     1      21.017   3.121  46.350  1.00  0.00    -0.171 F 
HETATM   24  F3  UNL     1      22.694   4.239  47.302  1.00  0.00    -0.171 F 
ENDBRANCH  20  21
ENDBRANCH  18  20
ENDBRANCH  13  17
ENDBRANCH  11  13
ENDBRANCH   7  11
BRANCH  10  25
HETATM   25  O2  UNL     1      28.428   1.504  52.790  1.00  0.00    -0.353 OA
HETATM   26  C17 UNL     1      28.807   2.551  53.667  1.00  0.00     0.210 C 
ENDBRANCH  10  25
BRANCH   1  27
HETATM   27  O1  UNL     1      28.226  -1.017  53.755  1.00  0.00    -0.353 OA
HETATM   28  C1  UNL     1      28.554  -2.183  53.026  1.00  0.00     0.210 C 
ENDBRANCH   1  27
TORSDOF 8
ENDMDL
MODEL 9
REMARK VINA RESULT:      -5.8      3.474      4.926
REMARK  8 active torsions:
REMARK  status: ('A' for Active; 'I' for Inactive)
REMARK    1  A    between atoms: O1_2  and  C2_3 
REMARK    2  A    between atoms: C6_9  and  N3_10 
REMARK    3  A    between atoms: N3_10  and  C8_12 
REMARK    4  A    between atoms: C8_12  and  P1_13 
REMARK    5  A    between atoms: C8_12  and  C9_14 
REMARK    6  A    between atoms: C10_15  and  C12_17 
REMARK    7  A    between atoms: C12_17  and  C13_18 
REMARK    8  A    between atoms: C16_24  and  O2_25 
ROOT
HETATM    1  C2  UNL     1      22.835  -0.241  53.322  1.00  0.00     0.103 A 
HETATM    2  C3  UNL     1      24.199  -0.375  53.062  1.00  0.00     0.072 A 
HETATM    3  C4  UNL     1      24.862   0.717  52.510  1.00  0.00     0.075 A 
HETATM    4  N1  UNL     1      26.186   0.693  52.218  1.00  0.00    -0.241 NA
HETATM    5  C5  UNL     1      26.802   1.780  51.679  1.00  0.00     0.236 A 
HETATM    6  N2  UNL     1      26.088   2.900  51.429  1.00  0.00    -0.224 NA
HETATM    7  C6  UNL     1      24.756   2.978  51.703  1.00  0.00     0.140 A 
HETATM    8  C14 UNL     1      24.147   1.868  52.249  1.00  0.00     0.041 A 
HETATM    9  C15 UNL     1      22.806   1.979  52.513  1.00  0.00     0.057 A 
HETATM   10  C16 UNL     1      22.121   0.913  53.061  1.00  0.00     0.102 A 
ENDROOT
BRANCH   7  11
HETATM   11  N3  UNL     1      24.138   4.220  51.387  1.00  0.00    -0.358 N 
HETATM   12  C7  UNL     1      23.668   5.170  52.378  1.00  0.00     0.152 C 
BRANCH  11  13
HETATM   13  C8  UNL     1      23.956   4.580  49.986  1.00  0.00     0.131 C 
BRANCH  13  14
HETATM   14  P1  UNL     1      25.142   5.938  49.581  1.00  0.00    -0.113 P 
HETATM   15  H10 UNL     1      26.480   5.387  49.571  1.00  0.00     0.057 HD
HETATM   16  H11 UNL     1      25.105   7.018  50.517  1.00  0.00     0.057 HD
ENDBRANCH  13  14
BRANCH  13  17
HETATM   17  C9  UNL     1      22.552   5.027  49.806  1.00  0.00     0.005 C 
HETATM   18  C10 UNL     1      21.805   4.601  48.780  1.00  0.00    -0.077 C 
HETATM   19  C11 UNL     1      20.377   5.056  48.598  1.00  0.00     0.043 C 
BRANCH  18  20
HETATM   20  C12 UNL     1      22.321   3.660  47.758  1.00  0.00     0.151 C 
BRANCH  20  21
HETATM   21  C13 UNL     1      21.915   2.232  48.042  1.00  0.00     0.391 C 
HETATM   22  F1  UNL     1      21.983   1.946  49.389  1.00  0.00    -0.171 F 
HETATM   23  F2  UNL     1      20.579   2.054  47.669  1.00  0.00    -0.171 F 
HETATM   24  F3  UNL     1      22.663   1.355  47.301  1.00  0.00    -0.171 F 
ENDBRANCH  20  21
ENDBRANCH  18  20
ENDBRANCH  13  17
ENDBRANCH  11  13
ENDBRANCH   7  11
BRANCH  10  25
HETATM   25  O2  UNL     1      20.760   0.953  53.355  1.00  0.00    -0.353 OA
HETATM   26  C17 UNL     1      19.892   1.476  52.364  1.00  0.00     0.210 C 
ENDBRANCH  10  25
BRANCH   1  27
HETATM   27  O1  UNL     1      22.144  -1.315  53.873  1.00  0.00    -0.353 OA
HETATM   28  C1  UNL     1      22.364  -1.653  55.228  1.00  0.00     0.210 C 
ENDBRANCH   1  27
TORSDOF 8
ENDMDL
