MODEL 1
REMARK VINA RESULT:      -7.1      0.000      0.000
REMARK  6 active torsions:
REMARK  status: ('A' for Active; 'I' for Inactive)
REMARK    1  A    between atoms: C2_2  and  C3_3 
REMARK    2  A    between atoms: C3_3  and  C4_4 
REMARK    3  A    between atoms: C4_4  and  N1_6 
REMARK    4  A    between atoms: N1_6  and  C6_7 
REMARK    5  A    between atoms: C9_10  and  C10_11 
REMARK    6  A    between atoms: C10_11  and  N2_12 
ROOT
HETATM    1  C6  UNL     1      22.995   0.197  52.807  1.00  0.00     0.024 C 
HETATM    2  C7  UNL     1      22.169  -0.643  53.539  1.00  0.00     0.072 C 
HETATM    3  C8  UNL     1      20.679  -0.877  53.570  1.00  0.00    -0.010 C 
HETATM    4  C9  UNL     1      19.478  -0.518  52.995  1.00  0.00    -0.064 C 
HETATM    5  C11 UNL     1      19.832   0.255  51.758  1.00  0.00     0.055 C 
HETATM    6  C12 UNL     1      19.466   1.658  51.868  1.00  0.00     0.118 C 
HETATM    7  N3  UNL     1      19.908   2.608  50.927  1.00  0.00    -0.412 N 
HETATM    8  C13 UNL     1      21.200   3.113  50.852  1.00  0.00     0.117 C 
HETATM    9  C14 UNL     1      22.230   2.557  49.974  1.00  0.00     0.000 C 
HETATM   10  C15 UNL     1      22.556   1.341  50.349  1.00  0.00     0.011 C 
HETATM   11  C16 UNL     1      22.796   1.287  51.777  1.00  0.00    -0.016 C 
HETATM   12  C17 UNL     1      22.725   2.301  52.622  1.00  0.00     0.004 C 
HETATM   13  C18 UNL     1      21.839   3.402  52.219  1.00  0.00     0.107 C 
HETATM   14 BR1  UNL     1      22.895   5.039  52.042  1.00  0.00    -0.085 Br
HETATM   15  H19 UNL     1      19.243   2.863  50.188  1.00  0.00     0.153 HD
ENDROOT
BRANCH   1  16
HETATM   16  N1  UNL     1      24.180  -0.277  53.435  1.00  0.00    -0.386 N 
HETATM   17  H8  UNL     1      24.111  -1.213  53.875  1.00  0.00     0.160 HD
BRANCH  16  18
HETATM   18  C4  UNL     1      25.411   0.475  53.472  1.00  0.00     0.093 C 
HETATM   19  C5  UNL     1      26.173   0.044  54.716  1.00  0.00     0.033 C 
BRANCH  18  20
HETATM   20  C3  UNL     1      26.237   0.378  52.278  1.00  0.00     0.091 C 
BRANCH  20  21
HETATM   21  C2  UNL     1      26.475   1.426  51.530  1.00  0.00    -0.174 C 
HETATM   22  C1  UNL     1      26.447   2.552  50.831  1.00  0.00     0.091 C 
ENDBRANCH  20  21
ENDBRANCH  18  20
ENDBRANCH  16  18
ENDBRANCH   1  16
BRANCH   4  23
HETATM   23  C10 UNL     1      18.102  -0.894  53.229  1.00  0.00     0.145 C 
BRANCH  23  24
HETATM   24  N2  UNL     1      17.912  -2.069  54.010  1.00  0.00    -0.427 N 
HETATM   25  H13 UNL     1      18.737  -2.641  54.184  1.00  0.00     0.150 HD
HETATM   26  H14 UNL     1      16.991  -2.494  54.035  1.00  0.00     0.150 HD
ENDBRANCH  23  24
ENDBRANCH   4  23
TORSDOF 6
ENDMDL
MODEL 2
REMARK VINA RESULT:      -7.1      2.313      5.898
REMARK  6 active torsions:
REMARK  status: ('A' for Active; 'I' for Inactive)
REMARK    1  A    between atoms: C2_2  and  C3_3 
REMARK    2  A    between atoms: C3_3  and  C4_4 
REMARK    3  A    between atoms: C4_4  and  N1_6 
REMARK    4  A    between atoms: N1_6  and  C6_7 
REMARK    5  A    between atoms: C9_10  and  C10_11 
REMARK    6  A    between atoms: C10_11  and  N2_12 
ROOT
HETATM    1  C6  UNL     1      23.978   0.527  53.528  1.00  0.00     0.024 C 
HETATM    2  C7  UNL     1      25.040  -0.282  53.902  1.00  0.00     0.072 C 
HETATM    3  C8  UNL     1      26.539  -0.152  53.799  1.00  0.00    -0.010 C 
HETATM    4  C9  UNL     1      27.566   0.678  53.399  1.00  0.00    -0.064 C 
HETATM    5  C11 UNL     1      26.934   2.016  53.149  1.00  0.00     0.055 C 
HETATM    6  C12 UNL     1      26.953   2.375  51.739  1.00  0.00     0.118 C 
HETATM    7  N3  UNL     1      26.218   3.471  51.251  1.00  0.00    -0.412 N 
HETATM    8  C13 UNL     1      24.840   3.492  51.076  1.00  0.00     0.117 C 
HETATM    9  C14 UNL     1      23.910   4.004  52.083  1.00  0.00     0.000 C 
HETATM   10  C15 UNL     1      23.923   3.248  53.157  1.00  0.00     0.011 C 
HETATM   11  C16 UNL     1      23.819   1.847  52.805  1.00  0.00    -0.016 C 
HETATM   12  C17 UNL     1      23.708   1.352  51.584  1.00  0.00     0.004 C 
HETATM   13  C18 UNL     1      24.262   2.186  50.509  1.00  0.00     0.107 C 
HETATM   14 BR1  UNL     1      22.827   2.667  49.270  1.00  0.00    -0.085 Br
HETATM   15  H19 UNL     1      26.738   4.346  51.111  1.00  0.00     0.153 HD
ENDROOT
BRANCH   1  16
HETATM   16  N1  UNL     1      23.000  -0.384  54.015  1.00  0.00    -0.386 N 
HETATM   17  H8  UNL     1      23.330  -1.058  54.729  1.00  0.00     0.160 HD
BRANCH  16  18
HETATM   18  C4  UNL     1      21.629  -0.392  53.560  1.00  0.00     0.093 C 
HETATM   19  C5  UNL     1      20.995  -1.688  54.041  1.00  0.00     0.033 C 
BRANCH  18  20
HETATM   20  C3  UNL     1      20.839   0.766  53.946  1.00  0.00     0.091 C 
BRANCH  20  21
HETATM   21  C2  UNL     1      20.346   1.583  53.049  1.00  0.00    -0.174 C 
HETATM   22  C1  UNL     1      20.059   2.580  52.223  1.00  0.00     0.091 C 
ENDBRANCH  20  21
ENDBRANCH  18  20
ENDBRANCH  16  18
ENDBRANCH   1  16
BRANCH   4  23
HETATM   23  C10 UNL     1      29.006   0.558  53.386  1.00  0.00     0.145 C 
BRANCH  23  24
HETATM   24  N2  UNL     1      29.712   1.575  54.091  1.00  0.00    -0.427 N 
HETATM   25  H13 UNL     1      29.681   2.513  53.693  1.00  0.00     0.150 HD
HETATM   26  H14 UNL     1      30.490   1.306  54.683  1.00  0.00     0.150 HD
ENDBRANCH  23  24
ENDBRANCH   4  23
TORSDOF 6
ENDMDL
MODEL 3
REMARK VINA RESULT:      -7.0      3.182      5.558
REMARK  6 active torsions:
REMARK  status: ('A' for Active; 'I' for Inactive)
REMARK    1  A    between atoms: C2_2  and  C3_3 
REMARK    2  A    between atoms: C3_3  and  C4_4 
REMARK    3  A    between atoms: C4_4  and  N1_6 
REMARK    4  A    between atoms: N1_6  and  C6_7 
REMARK    5  A    between atoms: C9_10  and  C10_11 
REMARK    6  A    between atoms: C10_11  and  N2_12 
ROOT
HETATM    1  C6  UNL     1      24.903   1.529  52.024  1.00  0.00     0.024 C 
HETATM    2  C7  UNL     1      26.157   1.711  51.461  1.00  0.00     0.072 C 
HETATM    3  C8  UNL     1      26.734   2.718  50.497  1.00  0.00    -0.010 C 
HETATM    4  C9  UNL     1      26.455   3.855  49.766  1.00  0.00    -0.064 C 
HETATM    5  C11 UNL     1      25.142   4.362  50.286  1.00  0.00     0.055 C 
HETATM    6  C12 UNL     1      24.081   4.242  49.298  1.00  0.00     0.118 C 
HETATM    7  N3  UNL     1      22.731   4.441  49.643  1.00  0.00    -0.412 N 
HETATM    8  C13 UNL     1      21.950   3.544  50.360  1.00  0.00     0.117 C 
HETATM    9  C14 UNL     1      21.774   3.613  51.811  1.00  0.00     0.000 C 
HETATM   10  C15 UNL     1      22.906   3.370  52.430  1.00  0.00     0.011 C 
HETATM   11  C16 UNL     1      23.547   2.188  51.893  1.00  0.00    -0.016 C 
HETATM   12  C17 UNL     1      23.085   1.418  50.923  1.00  0.00     0.004 C 
HETATM   13  C18 UNL     1      22.175   2.073  49.973  1.00  0.00     0.107 C 
HETATM   14 BR1  UNL     1      20.437   1.177  50.033  1.00  0.00    -0.085 Br
HETATM   15  H19 UNL     1      22.335   5.365  49.428  1.00  0.00     0.153 HD
ENDROOT
BRANCH   1  16
HETATM   16  N1  UNL     1      25.308   0.388  52.771  1.00  0.00    -0.386 N 
HETATM   17  H8  UNL     1      24.599  -0.363  52.863  1.00  0.00     0.160 HD
BRANCH  16  18
HETATM   18  C4  UNL     1      26.613   0.259  53.375  1.00  0.00     0.093 C 
HETATM   19  C5  UNL     1      26.434   0.380  54.881  1.00  0.00     0.033 C 
BRANCH  18  20
HETATM   20  C3  UNL     1      27.347  -0.944  53.018  1.00  0.00     0.091 C 
BRANCH  20  21
HETATM   21  C2  UNL     1      28.633  -1.048  53.243  1.00  0.00    -0.174 C 
HETATM   22  C1  UNL     1      29.888  -0.945  53.659  1.00  0.00     0.091 C 
ENDBRANCH  20  21
ENDBRANCH  18  20
ENDBRANCH  16  18
ENDBRANCH   1  16
BRANCH   4  23
HETATM   23  C10 UNL     1      27.218   4.667  48.846  1.00  0.00     0.145 C 
BRANCH  23  24
HETATM   24  N2  UNL     1      27.365   6.035  49.214  1.00  0.00    -0.427 N 
HETATM   25  H13 UNL     1      27.469   6.705  48.453  1.00  0.00     0.150 HD
HETATM   26  H14 UNL     1      27.739   6.255  50.131  1.00  0.00     0.150 HD
ENDBRANCH  23  24
ENDBRANCH   4  23
TORSDOF 6
ENDMDL
MODEL 4
REMARK VINA RESULT:      -7.0      2.177      3.802
REMARK  6 active torsions:
REMARK  status: ('A' for Active; 'I' for Inactive)
REMARK    1  A    between atoms: C2_2  and  C3_3 
REMARK    2  A    between atoms: C3_3  and  C4_4 
REMARK    3  A    between atoms: C4_4  and  N1_6 
REMARK    4  A    between atoms: N1_6  and  C6_7 
REMARK    5  A    between atoms: C9_10  and  C10_11 
REMARK    6  A    between atoms: C10_11  and  N2_12 
ROOT
HETATM    1  C6  UNL     1      23.577   2.020  51.629  1.00  0.00     0.024 C 
HETATM    2  C7  UNL     1      24.332   1.532  52.685  1.00  0.00     0.072 C 
HETATM    3  C8  UNL     1      24.112   0.453  53.716  1.00  0.00    -0.010 C 
HETATM    4  C9  UNL     1      23.243  -0.531  54.139  1.00  0.00    -0.064 C 
HETATM    5  C11 UNL     1      22.237  -0.688  53.035  1.00  0.00     0.055 C 
HETATM    6  C12 UNL     1      20.913  -0.240  53.435  1.00  0.00     0.118 C 
HETATM    7  N3  UNL     1      19.876  -0.083  52.496  1.00  0.00    -0.412 N 
HETATM    8  C13 UNL     1      19.779   0.957  51.582  1.00  0.00     0.117 C 
HETATM    9  C14 UNL     1      20.283   0.871  50.211  1.00  0.00     0.000 C 
HETATM   10  C15 UNL     1      21.592   0.770  50.200  1.00  0.00     0.011 C 
HETATM   11  C16 UNL     1      22.195   1.759  51.070  1.00  0.00    -0.016 C 
HETATM   12  C17 UNL     1      21.555   2.669  51.784  1.00  0.00     0.004 C 
HETATM   13  C18 UNL     1      20.173   2.329  52.153  1.00  0.00     0.107 C 
HETATM   14 BR1  UNL     1      18.962   3.657  51.382  1.00  0.00    -0.085 Br
HETATM   15  H19 UNL     1      19.201  -0.855  52.427  1.00  0.00     0.153 HD
ENDROOT
BRANCH   1  16
HETATM   16  N1  UNL     1      24.562   2.973  51.250  1.00  0.00    -0.386 N 
HETATM   17  H8  UNL     1      24.939   3.558  52.018  1.00  0.00     0.160 HD
BRANCH  16  18
HETATM   18  C4  UNL     1      25.025   3.137  49.893  1.00  0.00     0.093 C 
HETATM   19  C5  UNL     1      24.316   4.349  49.311  1.00  0.00     0.033 C 
BRANCH  18  20
HETATM   20  C3  UNL     1      26.468   3.232  49.734  1.00  0.00     0.091 C 
BRANCH  20  21
HETATM   21  C2  UNL     1      27.014   4.218  49.067  1.00  0.00    -0.174 C 
HETATM   22  C1  UNL     1      27.798   5.150  48.543  1.00  0.00     0.091 C 
ENDBRANCH  20  21
ENDBRANCH  18  20
ENDBRANCH  16  18
ENDBRANCH   1  16
BRANCH   4  23
HETATM   23  C10 UNL     1      23.252  -1.476  55.232  1.00  0.00     0.145 C 
BRANCH  23  24
HETATM   24  N2  UNL     1      24.485  -1.585  55.937  1.00  0.00    -0.427 N 
HETATM   25  H13 UNL     1      24.606  -2.413  56.520  1.00  0.00     0.150 HD
HETATM   26  H14 UNL     1      24.999  -0.738  56.153  1.00  0.00     0.150 HD
ENDBRANCH  23  24
ENDBRANCH   4  23
TORSDOF 6
ENDMDL
MODEL 5
REMARK VINA RESULT:      -6.9      2.784      5.821
REMARK  6 active torsions:
REMARK  status: ('A' for Active; 'I' for Inactive)
REMARK    1  A    between atoms: C2_2  and  C3_3 
REMARK    2  A    between atoms: C3_3  and  C4_4 
REMARK    3  A    between atoms: C4_4  and  N1_6 
REMARK    4  A    between atoms: N1_6  and  C6_7 
REMARK    5  A    between atoms: C9_10  and  C10_11 
REMARK    6  A    between atoms: C10_11  and  N2_12 
ROOT
HETATM    1  C6  UNL     1      25.171   2.021  52.135  1.00  0.00     0.024 C 
HETATM    2  C7  UNL     1      26.386   2.292  51.525  1.00  0.00     0.072 C 
HETATM    3  C8  UNL     1      26.827   3.265  50.459  1.00  0.00    -0.010 C 
HETATM    4  C9  UNL     1      26.408   4.290  49.636  1.00  0.00    -0.064 C 
HETATM    5  C11 UNL     1      25.053   4.690  50.143  1.00  0.00     0.055 C 
HETATM    6  C12 UNL     1      23.997   4.360  49.198  1.00  0.00     0.118 C 
HETATM    7  N3  UNL     1      22.638   4.436  49.559  1.00  0.00    -0.412 N 
HETATM    8  C13 UNL     1      21.978   3.525  50.374  1.00  0.00     0.117 C 
HETATM    9  C14 UNL     1      21.818   3.708  51.817  1.00  0.00     0.000 C 
HETATM   10  C15 UNL     1      22.981   3.653  52.426  1.00  0.00     0.011 C 
HETATM   11  C16 UNL     1      23.746   2.507  51.980  1.00  0.00    -0.016 C 
HETATM   12  C17 UNL     1      23.360   1.604  51.096  1.00  0.00     0.004 C 
HETATM   13  C18 UNL     1      22.365   2.061  50.115  1.00  0.00     0.107 C 
HETATM   14 BR1  UNL     1      20.744   0.982  50.302  1.00  0.00    -0.085 Br
HETATM   15  H19 UNL     1      22.136   5.285  49.273  1.00  0.00     0.153 HD
ENDROOT
BRANCH   1  16
HETATM   16  N1  UNL     1      25.716   1.008  52.970  1.00  0.00    -0.386 N 
HETATM   17  H8  UNL     1      26.505   1.303  53.576  1.00  0.00     0.160 HD
BRANCH  16  18
HETATM   18  C4  UNL     1      25.226  -0.349  52.993  1.00  0.00     0.093 C 
HETATM   19  C5  UNL     1      26.431  -1.273  52.922  1.00  0.00     0.033 C 
BRANCH  18  20
HETATM   20  C3  UNL     1      24.363  -0.680  54.117  1.00  0.00     0.091 C 
BRANCH  20  21
HETATM   21  C2  UNL     1      23.061  -0.567  54.031  1.00  0.00    -0.174 C 
HETATM   22  C1  UNL     1      21.785  -0.212  54.087  1.00  0.00     0.091 C 
ENDBRANCH  20  21
ENDBRANCH  18  20
ENDBRANCH  16  18
ENDBRANCH   1  16
BRANCH   4  23
HETATM   23  C10 UNL     1      27.056   5.095  48.627  1.00  0.00     0.145 C 
BRANCH  23  24
HETATM   24  N2  UNL     1      28.358   5.567  48.962  1.00  0.00    -0.427 N 
HETATM   25  H13 UNL     1      29.045   4.862  49.228  1.00  0.00     0.150 HD
HETATM   26  H14 UNL     1      28.460   6.519  49.295  1.00  0.00     0.150 HD
ENDBRANCH  23  24
ENDBRANCH   4  23
TORSDOF 6
ENDMDL
MODEL 6
REMARK VINA RESULT:      -6.9      1.231      1.715
REMARK  6 active torsions:
REMARK  status: ('A' for Active; 'I' for Inactive)
REMARK    1  A    between atoms: C2_2  and  C3_3 
REMARK    2  A    between atoms: C3_3  and  C4_4 
REMARK    3  A    between atoms: C4_4  and  N1_6 
REMARK    4  A    between atoms: N1_6  and  C6_7 
REMARK    5  A    between atoms: C9_10  and  C10_11 
REMARK    6  A    between atoms: C10_11  and  N2_12 
ROOT
HETATM    1  C6  UNL     1      23.726   0.625  52.564  1.00  0.00     0.024 C 
HETATM    2  C7  UNL     1      22.998  -0.270  53.333  1.00  0.00     0.072 C 
HETATM    3  C8  UNL     1      21.528  -0.584  53.460  1.00  0.00    -0.010 C 
HETATM    4  C9  UNL     1      20.272  -0.279  52.977  1.00  0.00    -0.064 C 
HETATM    5  C11 UNL     1      20.500   0.533  51.735  1.00  0.00     0.055 C 
HETATM    6  C12 UNL     1      20.070   1.913  51.899  1.00  0.00     0.118 C 
HETATM    7  N3  UNL     1      20.396   2.901  50.951  1.00  0.00    -0.412 N 
HETATM    8  C13 UNL     1      21.651   3.475  50.797  1.00  0.00     0.117 C 
HETATM    9  C14 UNL     1      22.645   2.990  49.839  1.00  0.00     0.000 C 
HETATM   10  C15 UNL     1      23.058   1.787  50.166  1.00  0.00     0.011 C 
HETATM   11  C16 UNL     1      23.400   1.721  51.572  1.00  0.00    -0.016 C 
HETATM   12  C17 UNL     1      23.336   2.714  52.442  1.00  0.00     0.004 C 
HETATM   13  C18 UNL     1      22.368   3.773  52.124  1.00  0.00     0.107 C 
HETATM   14 BR1  UNL     1      23.322   5.467  51.909  1.00  0.00    -0.085 Br
HETATM   15  H19 UNL     1      19.668   3.133  50.264  1.00  0.00     0.153 HD
ENDROOT
BRANCH   1  16
HETATM   16  N1  UNL     1      24.975   0.204  53.098  1.00  0.00    -0.386 N 
HETATM   17  H8  UNL     1      25.010   0.101  54.129  1.00  0.00     0.160 HD
BRANCH  16  18
HETATM   18  C4  UNL     1      26.134  -0.068  52.283  1.00  0.00     0.093 C 
HETATM   19  C5  UNL     1      26.954   1.210  52.210  1.00  0.00     0.033 C 
BRANCH  18  20
HETATM   20  C3  UNL     1      26.944  -1.199  52.710  1.00  0.00     0.091 C 
BRANCH  20  21
HETATM   21  C2  UNL     1      28.162  -1.031  53.162  1.00  0.00    -0.174 C 
HETATM   22  C1  UNL     1      29.449  -1.095  53.471  1.00  0.00     0.091 C 
ENDBRANCH  20  21
ENDBRANCH  18  20
ENDBRANCH  16  18
ENDBRANCH   1  16
BRANCH   4  23
HETATM   23  C10 UNL     1      18.938  -0.731  53.296  1.00  0.00     0.145 C 
BRANCH  23  24
HETATM   24  N2  UNL     1      18.860  -1.978  53.980  1.00  0.00    -0.427 N 
HETATM   25  H13 UNL     1      19.744  -2.433  54.203  1.00  0.00     0.150 HD
HETATM   26  H14 UNL     1      18.019  -2.536  53.882  1.00  0.00     0.150 HD
ENDBRANCH  23  24
ENDBRANCH   4  23
TORSDOF 6
ENDMDL
MODEL 7
REMARK VINA RESULT:      -6.4      1.905      5.694
REMARK  6 active torsions:
REMARK  status: ('A' for Active; 'I' for Inactive)
REMARK    1  A    between atoms: C2_2  and  C3_3 
REMARK    2  A    between atoms: C3_3  and  C4_4 
REMARK    3  A    between atoms: C4_4  and  N1_6 
REMARK    4  A    between atoms: N1_6  and  C6_7 
REMARK    5  A    between atoms: C9_10  and  C10_11 
REMARK    6  A    between atoms: C10_11  and  N2_12 
ROOT
HETATM    1  C6  UNL     1      21.566   0.769  52.049  1.00  0.00     0.024 C 
HETATM    2  C7  UNL     1      22.237  -0.274  52.669  1.00  0.00     0.072 C 
HETATM    3  C8  UNL     1      23.619  -0.427  53.253  1.00  0.00    -0.010 C 
HETATM    4  C9  UNL     1      24.802   0.231  53.518  1.00  0.00    -0.064 C 
HETATM    5  C11 UNL     1      24.514   1.688  53.303  1.00  0.00     0.055 C 
HETATM    6  C12 UNL     1      25.220   2.220  52.148  1.00  0.00     0.118 C 
HETATM    7  N3  UNL     1      24.923   3.495  51.629  1.00  0.00    -0.412 N 
HETATM    8  C13 UNL     1      23.793   3.808  50.885  1.00  0.00     0.117 C 
HETATM    9  C14 UNL     1      22.569   4.353  51.473  1.00  0.00     0.000 C 
HETATM   10  C15 UNL     1      22.000   3.473  52.264  1.00  0.00     0.011 C 
HETATM   11  C16 UNL     1      21.911   2.179  51.620  1.00  0.00    -0.016 C 
HETATM   12  C17 UNL     1      22.318   1.882  50.398  1.00  0.00     0.004 C 
HETATM   13  C18 UNL     1      23.397   2.728  49.866  1.00  0.00     0.107 C 
HETATM   14 BR1  UNL     1      22.759   3.640  48.258  1.00  0.00    -0.085 Br
HETATM   15  H19 UNL     1      25.546   4.261  51.912  1.00  0.00     0.153 HD
ENDROOT
BRANCH   1  16
HETATM   16  N1  UNL     1      20.377   0.012  51.865  1.00  0.00    -0.386 N 
HETATM   17  H8  UNL     1      20.496  -1.018  51.867  1.00  0.00     0.160 HD
BRANCH  16  18
HETATM   18  C4  UNL     1      19.076   0.610  51.682  1.00  0.00     0.093 C 
HETATM   19  C5  UNL     1      18.911   0.905  50.200  1.00  0.00     0.033 C 
BRANCH  18  20
HETATM   20  C3  UNL     1      17.958  -0.161  52.203  1.00  0.00     0.091 C 
BRANCH  20  21
HETATM   21  C2  UNL     1      18.151  -1.263  52.883  1.00  0.00    -0.174 C 
HETATM   22  C1  UNL     1      18.114  -2.298  53.711  1.00  0.00     0.091 C 
ENDBRANCH  20  21
ENDBRANCH  18  20
ENDBRANCH  16  18
ENDBRANCH   1  16
BRANCH   4  23
HETATM   23  C10 UNL     1      26.061  -0.165  54.104  1.00  0.00     0.145 C 
BRANCH  23  24
HETATM   24  N2  UNL     1      26.608   0.743  55.055  1.00  0.00    -0.427 N 
HETATM   25  H13 UNL     1      26.916   1.647  54.699  1.00  0.00     0.150 HD
HETATM   26  H14 UNL     1      27.020   0.371  55.904  1.00  0.00     0.150 HD
ENDBRANCH  23  24
ENDBRANCH   4  23
TORSDOF 6
ENDMDL
MODEL 8
REMARK VINA RESULT:      -6.4      3.314      6.344
REMARK  6 active torsions:
REMARK  status: ('A' for Active; 'I' for Inactive)
REMARK    1  A    between atoms: C2_2  and  C3_3 
REMARK    2  A    between atoms: C3_3  and  C4_4 
REMARK    3  A    between atoms: C4_4  and  N1_6 
REMARK    4  A    between atoms: N1_6  and  C6_7 
REMARK    5  A    between atoms: C9_10  and  C10_11 
REMARK    6  A    between atoms: C10_11  and  N2_12 
ROOT
HETATM    1  C6  UNL     1      24.734   2.860  51.024  1.00  0.00     0.024 C 
HETATM    2  C7  UNL     1      25.984   2.838  50.424  1.00  0.00     0.072 C 
HETATM    3  C8  UNL     1      26.773   3.837  49.614  1.00  0.00    -0.010 C 
HETATM    4  C9  UNL     1      26.770   5.121  49.110  1.00  0.00    -0.064 C 
HETATM    5  C11 UNL     1      25.631   5.823  49.790  1.00  0.00     0.055 C 
HETATM    6  C12 UNL     1      24.556   6.143  48.866  1.00  0.00     0.118 C 
HETATM    7  N3  UNL     1      23.303   6.593  49.324  1.00  0.00    -0.412 N 
HETATM    8  C13 UNL     1      22.338   5.792  49.922  1.00  0.00     0.117 C 
HETATM    9  C14 UNL     1      22.211   5.634  51.371  1.00  0.00     0.000 C 
HETATM   10  C15 UNL     1      23.260   5.019  51.867  1.00  0.00     0.011 C 
HETATM   11  C16 UNL     1      23.581   3.837  51.094  1.00  0.00    -0.016 C 
HETATM   12  C17 UNL     1      22.925   3.391  50.036  1.00  0.00     0.004 C 
HETATM   13  C18 UNL     1      22.187   4.407  49.273  1.00  0.00     0.107 C 
HETATM   14 BR1  UNL     1      20.283   3.957  49.286  1.00  0.00    -0.085 Br
HETATM   15  H19 UNL     1      23.143   7.608  49.297  1.00  0.00     0.153 HD
ENDROOT
BRANCH   1  16
HETATM   16  N1  UNL     1      24.860   1.539  51.535  1.00  0.00    -0.386 N 
HETATM   17  H8  UNL     1      25.239   0.836  50.875  1.00  0.00     0.160 HD
BRANCH  16  18
HETATM   18  C4  UNL     1      24.489   1.173  52.881  1.00  0.00     0.093 C 
HETATM   19  C5  UNL     1      23.095   0.569  52.825  1.00  0.00     0.033 C 
BRANCH  18  20
HETATM   20  C3  UNL     1      25.425   0.295  53.567  1.00  0.00     0.091 C 
BRANCH  20  21
HETATM   21  C2  UNL     1      26.082  -0.636  52.921  1.00  0.00    -0.174 C 
HETATM   22  C1  UNL     1      26.784  -1.688  52.525  1.00  0.00     0.091 C 
ENDBRANCH  20  21
ENDBRANCH  18  20
ENDBRANCH  16  18
ENDBRANCH   1  16
BRANCH   4  23
HETATM   23  C10 UNL     1      27.692   5.882  48.298  1.00  0.00     0.145 C 
BRANCH  23  24
HETATM   24  N2  UNL     1      29.036   5.920  48.769  1.00  0.00    -0.427 N 
HETATM   25  H13 UNL     1      29.192   5.622  49.731  1.00  0.00     0.150 HD
HETATM   26  H14 UNL     1      29.688   6.560  48.329  1.00  0.00     0.150 HD
ENDBRANCH  23  24
ENDBRANCH   4  23
TORSDOF 6
ENDMDL
MODEL 9
REMARK VINA RESULT:      -6.4      2.734      5.017
REMARK  6 active torsions:
REMARK  status: ('A' for Active; 'I' for Inactive)
REMARK    1  A    between atoms: C2_2  and  C3_3 
REMARK    2  A    between atoms: C3_3  and  C4_4 
REMARK    3  A    between atoms: C4_4  and  N1_6 
REMARK    4  A    between atoms: N1_6  and  C6_7 
REMARK    5  A    between atoms: C9_10  and  C10_11 
REMARK    6  A    between atoms: C10_11  and  N2_12 
ROOT
HETATM    1  C6  UNL     1      25.046   2.279  51.399  1.00  0.00     0.024 C 
HETATM    2  C7  UNL     1      23.800   2.181  50.798  1.00  0.00     0.072 C 
HETATM    3  C8  UNL     1      22.526   1.454  51.147  1.00  0.00    -0.010 C 
HETATM    4  C9  UNL     1      21.918   0.648  52.088  1.00  0.00    -0.064 C 
HETATM    5  C11 UNL     1      22.821   0.670  53.287  1.00  0.00     0.055 C 
HETATM    6  C12 UNL     1      23.449  -0.621  53.521  1.00  0.00     0.118 C 
HETATM    7  N3  UNL     1      24.500  -0.769  54.446  1.00  0.00    -0.412 N 
HETATM    8  C13 UNL     1      25.807  -0.347  54.240  1.00  0.00     0.117 C 
HETATM    9  C14 UNL     1      26.312   0.951  54.688  1.00  0.00     0.000 C 
HETATM   10  C15 UNL     1      25.725   1.929  54.038  1.00  0.00     0.011 C 
HETATM   11  C16 UNL     1      25.717   1.672  52.612  1.00  0.00    -0.016 C 
HETATM   12  C17 UNL     1      26.234   0.619  52.003  1.00  0.00     0.004 C 
HETATM   13  C18 UNL     1      26.329  -0.601  52.817  1.00  0.00     0.107 C 
HETATM   14 BR1  UNL     1      28.207  -1.126  52.963  1.00  0.00    -0.085 Br
HETATM   15  H19 UNL     1      24.246  -1.127  55.374  1.00  0.00     0.153 HD
ENDROOT
BRANCH   1  16
HETATM   16  N1  UNL     1      25.560   3.145  50.395  1.00  0.00    -0.386 N 
HETATM   17  H8  UNL     1      26.472   2.867  49.986  1.00  0.00     0.160 HD
BRANCH  16  18
HETATM   18  C4  UNL     1      24.879   4.339  49.953  1.00  0.00     0.093 C 
HETATM   19  C5  UNL     1      24.409   5.083  51.193  1.00  0.00     0.033 C 
BRANCH  18  20
HETATM   20  C3  UNL     1      25.647   5.202  49.070  1.00  0.00     0.091 C 
BRANCH  20  21
HETATM   21  C2  UNL     1      26.920   4.989  48.849  1.00  0.00    -0.174 C 
HETATM   22  C1  UNL     1      28.198   5.025  48.498  1.00  0.00     0.091 C 
ENDBRANCH  20  21
ENDBRANCH  18  20
ENDBRANCH  16  18
ENDBRANCH   1  16
BRANCH   4  23
HETATM   23  C10 UNL     1      20.616   0.031  52.189  1.00  0.00     0.145 C 
BRANCH  23  24
HETATM   24  N2  UNL     1      19.507   0.918  52.076  1.00  0.00    -0.427 N 
HETATM   25  H13 UNL     1      18.945   0.842  51.229  1.00  0.00     0.150 HD
HETATM   26  H14 UNL     1      19.530   1.794  52.586  1.00  0.00     0.150 HD
ENDBRANCH  23  24
ENDBRANCH   4  23
TORSDOF 6
ENDMDL
