MODEL 1
REMARK VINA RESULT:      -7.8      0.000      0.000
REMARK  4 active torsions:
REMARK  status: ('A' for Active; 'I' for Inactive)
REMARK    1  A    between atoms: C3_3  and  C4_4 
REMARK    2  A    between atoms: C4_4  and  O1_5 
REMARK    3  A    between atoms: O1_5  and  C5_6 
REMARK    4  A    between atoms: C6_7  and  O2_8 
ROOT
HETATM    1  C1  UNL     1      29.361  -0.199  54.087  1.00  0.00     0.091 C 
HETATM    2  C2  UNL     1      28.468  -0.941  53.451  1.00  0.00    -0.174 C 
HETATM    3  C3  UNL     1      27.532  -1.517  52.721  1.00  0.00     0.092 C 
ENDROOT
BRANCH   3   4
HETATM    4  C4  UNL     1      26.519  -0.658  52.102  1.00  0.00     0.186 C 
BRANCH   4   5
HETATM    5  O1  UNL     1      25.810  -0.016  53.120  1.00  0.00    -0.377 OA
BRANCH   5   6
HETATM    6  C5  UNL     1      24.629   0.512  52.729  1.00  0.00     0.188 C 
HETATM    7  C6  UNL     1      24.706   2.020  53.059  1.00  0.00     0.080 C 
HETATM    8  C7  UNL     1      24.404   3.418  52.972  1.00  0.00     0.162 C 
HETATM    9  C8  UNL     1      23.382   3.355  51.886  1.00  0.00     0.047 A 
HETATM   10  C9  UNL     1      22.484   2.376  51.416  1.00  0.00     0.078 A 
HETATM   11  N2  UNL     1      22.901   4.144  50.915  1.00  0.00    -0.246 NA
HETATM   12  C10 UNL     1      21.581   1.558  50.849  1.00  0.00     0.131 A 
HETATM   13  N1  UNL     1      21.357   2.572  50.046  1.00  0.00    -0.224 NA
HETATM   14  N3  UNL     1      21.522   0.299  51.451  1.00  0.00    -0.340 N 
HETATM   15  C11 UNL     1      21.934   3.783  50.029  1.00  0.00     0.235 A 
HETATM   16  C12 UNL     1      22.154  -0.166  52.633  1.00  0.00     0.044 A 
HETATM   17  H11 UNL     1      20.901  -0.067  50.731  1.00  0.00     0.167 HD
HETATM   18  C13 UNL     1      21.131  -0.833  53.287  1.00  0.00     0.030 A 
HETATM   19  C17 UNL     1      23.415  -0.122  53.212  1.00  0.00     0.022 A 
HETATM   20  C14 UNL     1      21.263  -1.489  54.518  1.00  0.00     0.004 A 
HETATM   21  C15 UNL     1      22.521  -1.442  55.086  1.00  0.00     0.024 A 
HETATM   22  C16 UNL     1      23.516  -0.775  54.418  1.00  0.00     0.045 A 
HETATM   23 CL1  UNL     1      25.064  -0.815  55.248  1.00  0.00    -0.084 Cl
BRANCH   7  24
HETATM   24  O2  UNL     1      25.682   1.626  54.044  1.00  0.00    -0.391 OA
HETATM   25  H7  UNL     1      25.527   0.728  54.487  1.00  0.00     0.210 HD
ENDBRANCH   7  24
ENDBRANCH   5   6
ENDBRANCH   4   5
ENDBRANCH   3   4
TORSDOF 4
ENDMDL
MODEL 2
REMARK VINA RESULT:      -7.3      2.631      3.696
REMARK  4 active torsions:
REMARK  status: ('A' for Active; 'I' for Inactive)
REMARK    1  A    between atoms: C3_3  and  C4_4 
REMARK    2  A    between atoms: C4_4  and  O1_5 
REMARK    3  A    between atoms: O1_5  and  C5_6 
REMARK    4  A    between atoms: C6_7  and  O2_8 
ROOT
HETATM    1  C1  UNL     1      27.133   5.614  48.574  1.00  0.00     0.091 C 
HETATM    2  C2  UNL     1      26.916   4.414  49.089  1.00  0.00    -0.174 C 
HETATM    3  C3  UNL     1      26.513   3.244  49.548  1.00  0.00     0.092 C 
ENDROOT
BRANCH   3   4
HETATM    4  C4  UNL     1      25.083   3.067  49.814  1.00  0.00     0.186 C 
BRANCH   4   5
HETATM    5  O1  UNL     1      24.903   2.992  51.197  1.00  0.00    -0.377 OA
BRANCH   5   6
HETATM    6  C5  UNL     1      23.691   2.532  51.579  1.00  0.00     0.188 C 
HETATM    7  C6  UNL     1      22.957   3.734  52.214  1.00  0.00     0.080 C 
HETATM    8  C7  UNL     1      21.857   4.540  52.654  1.00  0.00     0.162 C 
HETATM    9  C8  UNL     1      20.743   3.647  52.221  1.00  0.00     0.047 A 
HETATM   10  C9  UNL     1      20.601   2.262  52.003  1.00  0.00     0.078 A 
HETATM   11  N2  UNL     1      19.460   3.753  51.848  1.00  0.00    -0.246 NA
HETATM   12  C10 UNL     1      20.304   0.976  51.749  1.00  0.00     0.131 A 
HETATM   13  N1  UNL     1      19.114   1.444  51.451  1.00  0.00    -0.224 NA
HETATM   14  N3  UNL     1      21.382   0.111  51.949  1.00  0.00    -0.340 N 
HETATM   15  C11 UNL     1      18.670   2.709  51.478  1.00  0.00     0.235 A 
HETATM   16  C12 UNL     1      22.657   0.373  52.511  1.00  0.00     0.044 A 
HETATM   17  H11 UNL     1      20.879  -0.681  51.550  1.00  0.00     0.167 HD
HETATM   18  C13 UNL     1      22.841  -0.694  53.375  1.00  0.00     0.030 A 
HETATM   19  C17 UNL     1      23.653   1.334  52.400  1.00  0.00     0.022 A 
HETATM   20  C14 UNL     1      23.977  -0.896  54.168  1.00  0.00     0.004 A 
HETATM   21  C15 UNL     1      24.963   0.063  54.050  1.00  0.00     0.024 A 
HETATM   22  C16 UNL     1      24.758   1.111  53.188  1.00  0.00     0.045 A 
HETATM   23 CL1  UNL     1      26.102   2.240  53.126  1.00  0.00    -0.084 Cl
BRANCH   7  24
HETATM   24  O2  UNL     1      24.280   4.248  52.464  1.00  0.00    -0.391 OA
HETATM   25  H7  UNL     1      24.392   5.250  52.367  1.00  0.00     0.210 HD
ENDBRANCH   7  24
ENDBRANCH   5   6
ENDBRANCH   4   5
ENDBRANCH   3   4
TORSDOF 4
ENDMDL
MODEL 3
REMARK VINA RESULT:      -7.3      2.930      5.884
REMARK  4 active torsions:
REMARK  status: ('A' for Active; 'I' for Inactive)
REMARK    1  A    between atoms: C3_3  and  C4_4 
REMARK    2  A    between atoms: C4_4  and  O1_5 
REMARK    3  A    between atoms: O1_5  and  C5_6 
REMARK    4  A    between atoms: C6_7  and  O2_8 
ROOT
HETATM    1  C1  UNL     1      20.236   4.749  50.875  1.00  0.00     0.091 C 
HETATM    2  C2  UNL     1      21.316   5.503  51.010  1.00  0.00    -0.174 C 
HETATM    3  C3  UNL     1      22.484   6.088  51.196  1.00  0.00     0.092 C 
ENDROOT
BRANCH   3   4
HETATM    4  C4  UNL     1      23.473   5.398  52.028  1.00  0.00     0.186 C 
BRANCH   4   5
HETATM    5  O1  UNL     1      24.189   4.517  51.215  1.00  0.00    -0.377 OA
BRANCH   5   6
HETATM    6  C5  UNL     1      24.021   3.212  51.524  1.00  0.00     0.188 C 
HETATM    7  C6  UNL     1      25.441   2.621  51.670  1.00  0.00     0.080 C 
HETATM    8  C7  UNL     1      26.472   1.727  52.108  1.00  0.00     0.162 C 
HETATM    9  C8  UNL     1      25.630   0.805  52.925  1.00  0.00     0.047 A 
HETATM   10  C9  UNL     1      24.275   0.420  52.918  1.00  0.00     0.078 A 
HETATM   11  N2  UNL     1      25.770  -0.008  53.982  1.00  0.00    -0.246 NA
HETATM   12  C10 UNL     1      23.020  -0.043  53.048  1.00  0.00     0.131 A 
HETATM   13  N1  UNL     1      23.512  -0.720  54.059  1.00  0.00    -0.224 NA
HETATM   14  N3  UNL     1      22.137   0.484  52.103  1.00  0.00    -0.340 N 
HETATM   15  C11 UNL     1      24.766  -0.742  54.534  1.00  0.00     0.235 A 
HETATM   16  C12 UNL     1      22.405   1.294  50.970  1.00  0.00     0.044 A 
HETATM   17  H11 UNL     1      21.327   0.066  52.560  1.00  0.00     0.167 HD
HETATM   18  C13 UNL     1      21.647   0.697  49.976  1.00  0.00     0.030 A 
HETATM   19  C17 UNL     1      23.154   2.423  50.667  1.00  0.00     0.022 A 
HETATM   20  C14 UNL     1      21.567   1.146  48.652  1.00  0.00     0.004 A 
HETATM   21  C15 UNL     1      22.314   2.270  48.359  1.00  0.00     0.024 A 
HETATM   22  C16 UNL     1      23.056   2.843  49.361  1.00  0.00     0.045 A 
HETATM   23 CL1  UNL     1      23.937   4.273  48.848  1.00  0.00    -0.084 Cl
BRANCH   7  24
HETATM   24  O2  UNL     1      25.843   3.703  50.806  1.00  0.00    -0.391 OA
HETATM   25  H7  UNL     1      25.317   4.563  50.899  1.00  0.00     0.210 HD
ENDBRANCH   7  24
ENDBRANCH   5   6
ENDBRANCH   4   5
ENDBRANCH   3   4
TORSDOF 4
ENDMDL
MODEL 4
REMARK VINA RESULT:      -7.1      3.243      5.668
REMARK  4 active torsions:
REMARK  status: ('A' for Active; 'I' for Inactive)
REMARK    1  A    between atoms: C3_3  and  C4_4 
REMARK    2  A    between atoms: C4_4  and  O1_5 
REMARK    3  A    between atoms: O1_5  and  C5_6 
REMARK    4  A    between atoms: C6_7  and  O2_8 
ROOT
HETATM    1  C1  UNL     1      20.956   5.830  50.494  1.00  0.00     0.091 C 
HETATM    2  C2  UNL     1      22.099   5.940  51.152  1.00  0.00    -0.174 C 
HETATM    3  C3  UNL     1      23.217   5.859  51.848  1.00  0.00     0.092 C 
ENDROOT
BRANCH   3   4
HETATM    4  C4  UNL     1      23.364   4.739  52.782  1.00  0.00     0.186 C 
BRANCH   4   5
HETATM    5  O1  UNL     1      23.383   3.554  52.044  1.00  0.00    -0.377 OA
BRANCH   5   6
HETATM    6  C5  UNL     1      24.232   2.616  52.516  1.00  0.00     0.188 C 
HETATM    7  C6  UNL     1      25.406   2.557  51.513  1.00  0.00     0.080 C 
HETATM    8  C7  UNL     1      26.733   2.311  51.030  1.00  0.00     0.162 C 
HETATM    9  C8  UNL     1      27.332   1.789  52.292  1.00  0.00     0.047 A 
HETATM   10  C9  UNL     1      26.835   1.144  53.442  1.00  0.00     0.078 A 
HETATM   11  N2  UNL     1      28.538   1.720  52.876  1.00  0.00    -0.246 NA
HETATM   12  C10 UNL     1      26.523   0.530  54.596  1.00  0.00     0.131 A 
HETATM   13  N1  UNL     1      27.806   0.634  54.849  1.00  0.00    -0.224 NA
HETATM   14  N3  UNL     1      25.161   0.245  54.718  1.00  0.00    -0.340 N 
HETATM   15  C11 UNL     1      28.778   1.171  54.097  1.00  0.00     0.235 A 
HETATM   16  C12 UNL     1      24.123   0.371  53.759  1.00  0.00     0.044 A 
HETATM   17  H11 UNL     1      25.263  -0.049  55.689  1.00  0.00     0.167 HD
HETATM   18  C13 UNL     1      23.435  -0.824  53.890  1.00  0.00     0.030 A 
HETATM   19  C17 UNL     1      23.683   1.310  52.837  1.00  0.00     0.022 A 
HETATM   20  C14 UNL     1      22.299  -1.178  53.152  1.00  0.00     0.004 A 
HETATM   21  C15 UNL     1      21.866  -0.238  52.237  1.00  0.00     0.024 A 
HETATM   22  C16 UNL     1      22.565   0.937  52.127  1.00  0.00     0.045 A 
HETATM   23 CL1  UNL     1      21.889   2.044  50.942  1.00  0.00    -0.084 Cl
BRANCH   7  24
HETATM   24  O2  UNL     1      24.455   3.077  50.563  1.00  0.00    -0.391 OA
HETATM   25  H7  UNL     1      23.615   2.526  50.430  1.00  0.00     0.210 HD
ENDBRANCH   7  24
ENDBRANCH   5   6
ENDBRANCH   4   5
ENDBRANCH   3   4
TORSDOF 4
ENDMDL
MODEL 5
REMARK VINA RESULT:      -6.9      2.307      3.142
REMARK  4 active torsions:
REMARK  status: ('A' for Active; 'I' for Inactive)
REMARK    1  A    between atoms: C3_3  and  C4_4 
REMARK    2  A    between atoms: C4_4  and  O1_5 
REMARK    3  A    between atoms: O1_5  and  C5_6 
REMARK    4  A    between atoms: C6_7  and  O2_8 
ROOT
HETATM    1  C1  UNL     1      27.318   0.271  54.698  1.00  0.00     0.091 C 
HETATM    2  C2  UNL     1      27.053   0.209  53.402  1.00  0.00    -0.174 C 
HETATM    3  C3  UNL     1      26.821   0.340  52.110  1.00  0.00     0.092 C 
ENDROOT
BRANCH   3   4
HETATM    4  C4  UNL     1      26.476   1.672  51.606  1.00  0.00     0.186 C 
BRANCH   4   5
HETATM    5  O1  UNL     1      25.239   2.035  52.144  1.00  0.00    -0.377 OA
BRANCH   5   6
HETATM    6  C5  UNL     1      24.406   2.639  51.268  1.00  0.00     0.188 C 
HETATM    7  C6  UNL     1      24.111   4.038  51.854  1.00  0.00     0.080 C 
HETATM    8  C7  UNL     1      23.741   5.423  51.872  1.00  0.00     0.162 C 
HETATM    9  C8  UNL     1      23.487   5.601  50.412  1.00  0.00     0.047 A 
HETATM   10  C9  UNL     1      23.112   4.751  49.353  1.00  0.00     0.078 A 
HETATM   11  N2  UNL     1      23.520   6.584  49.501  1.00  0.00    -0.246 NA
HETATM   12  C10 UNL     1      22.765   4.079  48.242  1.00  0.00     0.131 A 
HETATM   13  N1  UNL     1      22.895   5.244  47.651  1.00  0.00    -0.224 NA
HETATM   14  N3  UNL     1      22.540   2.719  48.467  1.00  0.00    -0.340 N 
HETATM   15  C11 UNL     1      23.239   6.427  48.179  1.00  0.00     0.235 A 
HETATM   16  C12 UNL     1      22.480   2.005  49.692  1.00  0.00     0.044 A 
HETATM   17  H11 UNL     1      22.458   2.520  47.471  1.00  0.00     0.167 HD
HETATM   18  C13 UNL     1      21.354   1.213  49.533  1.00  0.00     0.030 A 
HETATM   19  C17 UNL     1      23.210   1.918  50.869  1.00  0.00     0.022 A 
HETATM   20  C14 UNL     1      20.874   0.305  50.484  1.00  0.00     0.004 A 
HETATM   21  C15 UNL     1      21.606   0.223  51.652  1.00  0.00     0.024 A 
HETATM   22  C16 UNL     1      22.717   1.018  51.784  1.00  0.00     0.045 A 
HETATM   23 CL1  UNL     1      23.559   0.793  53.310  1.00  0.00    -0.084 Cl
BRANCH   7  24
HETATM   24  O2  UNL     1      24.436   3.436  53.123  1.00  0.00    -0.391 OA
HETATM   25  H7  UNL     1      24.150   3.954  53.945  1.00  0.00     0.210 HD
ENDBRANCH   7  24
ENDBRANCH   5   6
ENDBRANCH   4   5
ENDBRANCH   3   4
TORSDOF 4
ENDMDL
MODEL 6
REMARK VINA RESULT:      -6.9      2.824      3.856
REMARK  4 active torsions:
REMARK  status: ('A' for Active; 'I' for Inactive)
REMARK    1  A    between atoms: C3_3  and  C4_4 
REMARK    2  A    between atoms: C4_4  and  O1_5 
REMARK    3  A    between atoms: O1_5  and  C5_6 
REMARK    4  A    between atoms: C6_7  and  O2_8 
ROOT
HETATM    1  C1  UNL     1      27.987   2.163  53.716  1.00  0.00     0.091 C 
HETATM    2  C2  UNL     1      27.396   1.821  52.582  1.00  0.00    -0.174 C 
HETATM    3  C3  UNL     1      26.851   1.661  51.391  1.00  0.00     0.092 C 
ENDROOT
BRANCH   3   4
HETATM    4  C4  UNL     1      26.481   2.864  50.638  1.00  0.00     0.186 C 
BRANCH   4   5
HETATM    5  O1  UNL     1      25.265   3.334  51.138  1.00  0.00    -0.377 OA
BRANCH   5   6
HETATM    6  C5  UNL     1      24.246   3.299  50.252  1.00  0.00     0.188 C 
HETATM    7  C6  UNL     1      23.722   4.748  50.145  1.00  0.00     0.080 C 
HETATM    8  C7  UNL     1      23.075   5.891  49.570  1.00  0.00     0.162 C 
HETATM    9  C8  UNL     1      22.655   5.277  48.277  1.00  0.00     0.047 A 
HETATM   10  C9  UNL     1      22.368   3.969  47.838  1.00  0.00     0.078 A 
HETATM   11  N2  UNL     1      22.397   5.666  47.020  1.00  0.00    -0.246 NA
HETATM   12  C10 UNL     1      22.068   2.791  47.266  1.00  0.00     0.131 A 
HETATM   13  N1  UNL     1      21.896   3.509  46.180  1.00  0.00    -0.224 NA
HETATM   14  N3  UNL     1      22.153   1.711  48.147  1.00  0.00    -0.340 N 
HETATM   15  C11 UNL     1      22.033   4.832  46.008  1.00  0.00     0.235 A 
HETATM   16  C12 UNL     1      22.357   1.707  49.551  1.00  0.00     0.044 A 
HETATM   17  H11 UNL     1      22.022   1.031  47.399  1.00  0.00     0.167 HD
HETATM   18  C13 UNL     1      21.412   0.798  49.997  1.00  0.00     0.030 A 
HETATM   19  C17 UNL     1      23.195   2.321  50.471  1.00  0.00     0.022 A 
HETATM   20  C14 UNL     1      21.222   0.433  51.336  1.00  0.00     0.004 A 
HETATM   21  C15 UNL     1      22.061   1.047  52.245  1.00  0.00     0.024 A 
HETATM   22  C16 UNL     1      22.989   1.943  51.777  1.00  0.00     0.045 A 
HETATM   23 CL1  UNL     1      23.997   2.630  53.042  1.00  0.00    -0.084 Cl
BRANCH   7  24
HETATM   24  O2  UNL     1      24.282   4.914  51.463  1.00  0.00    -0.391 OA
HETATM   25  H7  UNL     1      24.960   4.217  51.747  1.00  0.00     0.210 HD
ENDBRANCH   7  24
ENDBRANCH   5   6
ENDBRANCH   4   5
ENDBRANCH   3   4
TORSDOF 4
ENDMDL
MODEL 7
REMARK VINA RESULT:      -6.7      4.007      6.775
REMARK  4 active torsions:
REMARK  status: ('A' for Active; 'I' for Inactive)
REMARK    1  A    between atoms: C3_3  and  C4_4 
REMARK    2  A    between atoms: C4_4  and  O1_5 
REMARK    3  A    between atoms: O1_5  and  C5_6 
REMARK    4  A    between atoms: C6_7  and  O2_8 
ROOT
HETATM    1  C1  UNL     1      22.472   8.836  48.250  1.00  0.00     0.091 C 
HETATM    2  C2  UNL     1      22.917   8.431  49.429  1.00  0.00    -0.174 C 
HETATM    3  C3  UNL     1      23.332   7.846  50.537  1.00  0.00     0.092 C 
ENDROOT
BRANCH   3   4
HETATM    4  C4  UNL     1      22.913   6.462  50.781  1.00  0.00     0.186 C 
BRANCH   4   5
HETATM    5  O1  UNL     1      23.433   5.663  49.760  1.00  0.00    -0.377 OA
BRANCH   5   6
HETATM    6  C5  UNL     1      23.822   4.433  50.158  1.00  0.00     0.188 C 
HETATM    7  C6  UNL     1      25.301   4.293  49.731  1.00  0.00     0.080 C 
HETATM    8  C7  UNL     1      26.649   3.806  49.741  1.00  0.00     0.162 C 
HETATM    9  C8  UNL     1      26.522   2.832  50.865  1.00  0.00     0.047 A 
HETATM   10  C9  UNL     1      25.465   2.090  51.428  1.00  0.00     0.078 A 
HETATM   11  N2  UNL     1      27.303   2.275  51.801  1.00  0.00    -0.246 NA
HETATM   12  C10 UNL     1      24.573   1.322  52.077  1.00  0.00     0.131 A 
HETATM   13  N1  UNL     1      25.600   0.984  52.823  1.00  0.00    -0.224 NA
HETATM   14  N3  UNL     1      23.280   1.420  51.558  1.00  0.00    -0.340 N 
HETATM   15  C11 UNL     1      26.875   1.390  52.742  1.00  0.00     0.235 A 
HETATM   16  C12 UNL     1      22.826   2.076  50.386  1.00  0.00     0.044 A 
HETATM   17  H11 UNL     1      22.883   0.874  52.322  1.00  0.00     0.167 HD
HETATM   18  C13 UNL     1      21.984   1.138  49.813  1.00  0.00     0.030 A 
HETATM   19  C17 UNL     1      22.999   3.304  49.761  1.00  0.00     0.022 A 
HETATM   20  C14 UNL     1      21.271   1.324  48.622  1.00  0.00     0.004 A 
HETATM   21  C15 UNL     1      21.448   2.547  48.007  1.00  0.00     0.024 A 
HETATM   22  C16 UNL     1      22.287   3.460  48.595  1.00  0.00     0.045 A 
HETATM   23 CL1  UNL     1      22.399   4.976  47.714  1.00  0.00    -0.084 Cl
BRANCH   7  24
HETATM   24  O2  UNL     1      24.977   5.287  48.739  1.00  0.00    -0.391 OA
HETATM   25  H7  UNL     1      25.765   5.724  48.275  1.00  0.00     0.210 HD
ENDBRANCH   7  24
ENDBRANCH   5   6
ENDBRANCH   4   5
ENDBRANCH   3   4
TORSDOF 4
ENDMDL
MODEL 8
REMARK VINA RESULT:      -6.6      2.513      5.204
REMARK  4 active torsions:
REMARK  status: ('A' for Active; 'I' for Inactive)
REMARK    1  A    between atoms: C3_3  and  C4_4 
REMARK    2  A    between atoms: C4_4  and  O1_5 
REMARK    3  A    between atoms: O1_5  and  C5_6 
REMARK    4  A    between atoms: C6_7  and  O2_8 
ROOT
HETATM    1  C1  UNL     1      17.378   0.161  51.499  1.00  0.00     0.091 C 
HETATM    2  C2  UNL     1      18.316  -0.252  52.337  1.00  0.00    -0.174 C 
HETATM    3  C3  UNL     1      19.285  -0.474  53.205  1.00  0.00     0.092 C 
ENDROOT
BRANCH   3   4
HETATM    4  C4  UNL     1      20.237   0.611  53.463  1.00  0.00     0.186 C 
BRANCH   4   5
HETATM    5  O1  UNL     1      21.440   0.295  52.829  1.00  0.00    -0.377 OA
BRANCH   5   6
HETATM    6  C5  UNL     1      22.159   1.367  52.431  1.00  0.00     0.188 C 
HETATM    7  C6  UNL     1      22.080   1.386  50.888  1.00  0.00     0.080 C 
HETATM    8  C7  UNL     1      22.111   1.925  49.560  1.00  0.00     0.162 C 
HETATM    9  C8  UNL     1      22.403   3.346  49.907  1.00  0.00     0.047 A 
HETATM   10  C9  UNL     1      23.032   4.003  50.983  1.00  0.00     0.078 A 
HETATM   11  N2  UNL     1      22.195   4.567  49.393  1.00  0.00    -0.246 NA
HETATM   12  C10 UNL     1      23.594   4.775  51.929  1.00  0.00     0.131 A 
HETATM   13  N1  UNL     1      23.230   5.768  51.152  1.00  0.00    -0.224 NA
HETATM   14  N3  UNL     1      24.120   4.044  52.997  1.00  0.00    -0.340 N 
HETATM   15  C11 UNL     1      22.584   5.732  49.977  1.00  0.00     0.235 A 
HETATM   16  C12 UNL     1      24.272   2.642  53.143  1.00  0.00     0.044 A 
HETATM   17  H11 UNL     1      24.307   4.886  53.541  1.00  0.00     0.167 HD
HETATM   18  C13 UNL     1      25.560   2.521  53.638  1.00  0.00     0.030 A 
HETATM   19  C17 UNL     1      23.513   1.497  52.939  1.00  0.00     0.022 A 
HETATM   20  C14 UNL     1      26.183   1.309  53.962  1.00  0.00     0.004 A 
HETATM   21  C15 UNL     1      25.420   0.175  53.758  1.00  0.00     0.024 A 
HETATM   22  C16 UNL     1      24.148   0.322  53.267  1.00  0.00     0.045 A 
HETATM   23 CL1  UNL     1      23.292  -1.200  53.078  1.00  0.00    -0.084 Cl
BRANCH   7  24
HETATM   24  O2  UNL     1      21.829  -0.028  51.010  1.00  0.00    -0.391 OA
HETATM   25  H7  UNL     1      21.783  -0.390  51.955  1.00  0.00     0.210 HD
ENDBRANCH   7  24
ENDBRANCH   5   6
ENDBRANCH   4   5
ENDBRANCH   3   4
TORSDOF 4
ENDMDL
MODEL 9
REMARK VINA RESULT:      -6.4      3.599      6.311
REMARK  4 active torsions:
REMARK  status: ('A' for Active; 'I' for Inactive)
REMARK    1  A    between atoms: C3_3  and  C4_4 
REMARK    2  A    between atoms: C4_4  and  O1_5 
REMARK    3  A    between atoms: O1_5  and  C5_6 
REMARK    4  A    between atoms: C6_7  and  O2_8 
ROOT
HETATM    1  C1  UNL     1      21.640   3.773  46.792  1.00  0.00     0.091 C 
HETATM    2  C2  UNL     1      22.061   2.779  47.559  1.00  0.00    -0.174 C 
HETATM    3  C3  UNL     1      22.298   1.718  48.305  1.00  0.00     0.092 C 
ENDROOT
BRANCH   3   4
HETATM    4  C4  UNL     1      21.151   1.028  48.902  1.00  0.00     0.186 C 
BRANCH   4   5
HETATM    5  O1  UNL     1      20.712   1.778  49.995  1.00  0.00    -0.377 OA
BRANCH   5   6
HETATM    6  C5  UNL     1      21.323   1.476  51.161  1.00  0.00     0.188 C 
HETATM    7  C6  UNL     1      20.212   0.972  52.109  1.00  0.00     0.080 C 
HETATM    8  C7  UNL     1      19.617   0.270  53.208  1.00  0.00     0.162 C 
HETATM    9  C8  UNL     1      20.854  -0.349  53.768  1.00  0.00     0.047 A 
HETATM   10  C9  UNL     1      22.226  -0.028  53.754  1.00  0.00     0.078 A 
HETATM   11  N2  UNL     1      21.200  -1.435  54.475  1.00  0.00    -0.246 NA
HETATM   12  C10 UNL     1      23.558   0.134  53.831  1.00  0.00     0.131 A 
HETATM   13  N1  UNL     1      23.526  -0.988  54.512  1.00  0.00    -0.224 NA
HETATM   14  N3  UNL     1      24.013   1.280  53.176  1.00  0.00    -0.340 N 
HETATM   15  C11 UNL     1      22.473  -1.752  54.837  1.00  0.00     0.235 A 
HETATM   16  C12 UNL     1      23.272   2.341  52.594  1.00  0.00     0.044 A 
HETATM   17  H11 UNL     1      24.990   1.019  53.300  1.00  0.00     0.167 HD
HETATM   18  C13 UNL     1      23.934   3.468  53.052  1.00  0.00     0.030 A 
HETATM   19  C17 UNL     1      22.174   2.491  51.759  1.00  0.00     0.022 A 
HETATM   20  C14 UNL     1      23.582   4.786  52.736  1.00  0.00     0.004 A 
HETATM   21  C15 UNL     1      22.489   4.927  51.904  1.00  0.00     0.024 A 
HETATM   22  C16 UNL     1      21.851   3.795  51.464  1.00  0.00     0.045 A 
HETATM   23 CL1  UNL     1      20.494   4.126  50.398  1.00  0.00    -0.084 Cl
BRANCH   7  24
HETATM   24  O2  UNL     1      19.326   1.749  51.279  1.00  0.00    -0.391 OA
HETATM   25  H7  UNL     1      19.212   2.721  51.541  1.00  0.00     0.210 HD
ENDBRANCH   7  24
ENDBRANCH   5   6
ENDBRANCH   4   5
ENDBRANCH   3   4
TORSDOF 4
ENDMDL
