MODEL 1
REMARK VINA RESULT:      -9.3      0.000      0.000
REMARK  1 active torsions:
REMARK  status: ('A' for Active; 'I' for Inactive)
REMARK    1  A    between atoms: N1_1  and  C1_2 
ROOT
HETATM    1  C1  UNL     1      20.290   1.429  49.572  1.00  0.00     0.232 C 
HETATM    2  C2  UNL     1      19.551   0.624  50.590  1.00  0.00     0.055 C 
HETATM    3  C3  UNL     1      20.299   0.725  51.944  1.00  0.00     0.119 C 
HETATM    4  N2  UNL     1      20.563   2.057  52.278  1.00  0.00    -0.407 N 
HETATM    5  C4  UNL     1      19.844   3.062  51.536  1.00  0.00     0.132 C 
HETATM    6  C5  UNL     1      20.184   2.881  50.084  1.00  0.00     0.043 C 
HETATM    7  C6  UNL     1      20.371   4.075  49.509  1.00  0.00     0.143 C 
HETATM    8  N3  UNL     1      20.687   5.012  48.454  1.00  0.00    -0.298 N 
HETATM    9  C7  UNL     1      21.325   4.764  47.168  1.00  0.00     0.151 C 
HETATM   10  C8  UNL     1      21.508   5.894  46.276  1.00  0.00     0.020 C 
HETATM   11  C9  UNL     1      22.630   6.453  46.689  1.00  0.00     0.022 C 
HETATM   12  C10 UNL     1      23.762   7.328  46.802  1.00  0.00    -0.021 C 
HETATM   13  C11 UNL     1      24.555   7.038  47.863  1.00  0.00    -0.004 C 
HETATM   14  C12 UNL     1      24.240   5.938  48.696  1.00  0.00    -0.002 C 
HETATM   15  C13 UNL     1      23.835   4.830  49.428  1.00  0.00     0.002 C 
HETATM   16  C14 UNL     1      24.691   4.792  50.618  1.00  0.00     0.129 C 
HETATM   17  C15 UNL     1      23.759   5.777  51.506  1.00  0.00     0.004 C 
HETATM   18  C16 UNL     1      22.431   6.056  51.023  1.00  0.00     0.019 C 
HETATM   19  C17 UNL     1      21.090   6.230  50.371  1.00  0.00     0.138 C 
HETATM   20  N4  UNL     1      20.174   5.960  49.392  1.00  0.00    -0.189 NA
HETATM   21  N5  UNL     1      24.755   3.632  51.417  1.00  0.00    -0.362 N 
HETATM   22  C18 UNL     1      24.940   2.267  51.846  1.00  0.00     0.155 A 
HETATM   23  N6  UNL     1      26.217   2.004  51.562  1.00  0.00    -0.221 NA
HETATM   24  C19 UNL     1      26.797   0.816  51.891  1.00  0.00     0.258 A 
HETATM   25  N7  UNL     1      25.998  -0.060  52.521  1.00  0.00    -0.161 NA
HETATM   26  N8  UNL     1      24.756   0.306  52.751  1.00  0.00    -0.240 N 
HETATM   27  C20 UNL     1      23.861  -0.471  53.403  1.00  0.00     0.119 A 
HETATM   28  C21 UNL     1      22.619   0.113  53.561  1.00  0.00     0.030 A 
HETATM   29  C22 UNL     1      22.794   1.359  52.934  1.00  0.00    -0.007 A 
HETATM   30  C23 UNL     1      24.057   1.405  52.492  1.00  0.00     0.111 A 
HETATM   31  C24 UNL     1      21.843   2.484  52.702  1.00  0.00     0.158 C 
HETATM   32  H23 UNL     1      24.538   3.835  52.444  1.00  0.00     0.162 HD
ENDROOT
BRANCH   1  33
HETATM   33  N1  UNL     1      21.670   1.100  49.408  1.00  0.00     0.083 N 
HETATM   34  H1  UNL     1      22.163   0.869  50.272  1.00  0.00     0.313 HD
HETATM   35  H2  UNL     1      21.788   0.483  48.591  1.00  0.00     0.313 HD
ENDBRANCH   1  33
TORSDOF 1
ENDMDL
MODEL 2
REMARK VINA RESULT:      -9.1      7.974     11.424
REMARK  1 active torsions:
REMARK  status: ('A' for Active; 'I' for Inactive)
REMARK    1  A    between atoms: N1_1  and  C1_2 
ROOT
HETATM    1  C1  UNL     1      30.275   9.363  44.488  1.00  0.00     0.232 C 
HETATM    2  C2  UNL     1      29.588  10.631  44.874  1.00  0.00     0.055 C 
HETATM    3  C3  UNL     1      29.191  10.548  46.370  1.00  0.00     0.119 C 
HETATM    4  N2  UNL     1      30.278  10.164  47.162  1.00  0.00    -0.407 N 
HETATM    5  C4  UNL     1      31.579  10.241  46.549  1.00  0.00     0.132 C 
HETATM    6  C5  UNL     1      31.562   9.351  45.338  1.00  0.00     0.043 C 
HETATM    7  C6  UNL     1      32.711   8.669  45.259  1.00  0.00     0.143 C 
HETATM    8  N3  UNL     1      33.666   7.724  44.726  1.00  0.00    -0.298 N 
HETATM    9  C7  UNL     1      33.458   6.663  43.750  1.00  0.00     0.151 C 
HETATM   10  C8  UNL     1      34.606   5.860  43.371  1.00  0.00     0.020 C 
HETATM   11  C9  UNL     1      34.680   4.936  44.311  1.00  0.00     0.022 C 
HETATM   12  C10 UNL     1      35.098   3.803  45.086  1.00  0.00    -0.021 C 
HETATM   13  C11 UNL     1      34.376   3.640  46.222  1.00  0.00    -0.004 C 
HETATM   14  C12 UNL     1      33.310   4.526  46.511  1.00  0.00    -0.002 C 
HETATM   15  C13 UNL     1      32.284   5.447  46.675  1.00  0.00     0.002 C 
HETATM   16  C14 UNL     1      31.752   5.229  48.024  1.00  0.00     0.129 C 
HETATM   17  C15 UNL     1      32.812   6.207  48.764  1.00  0.00     0.004 C 
HETATM   18  C16 UNL     1      33.595   7.090  47.939  1.00  0.00     0.019 C 
HETATM   19  C17 UNL     1      34.316   7.935  46.929  1.00  0.00     0.138 C 
HETATM   20  N4  UNL     1      34.544   8.366  45.651  1.00  0.00    -0.189 NA
HETATM   21  N5  UNL     1      30.511   5.782  48.402  1.00  0.00    -0.362 N 
HETATM   22  C18 UNL     1      29.108   6.114  48.436  1.00  0.00     0.155 A 
HETATM   23  N6  UNL     1      28.494   4.937  48.571  1.00  0.00    -0.221 NA
HETATM   24  C19 UNL     1      27.143   4.842  48.715  1.00  0.00     0.258 A 
HETATM   25  N7  UNL     1      26.481   6.011  48.715  1.00  0.00    -0.161 NA
HETATM   26  N8  UNL     1      27.187   7.110  48.577  1.00  0.00    -0.240 N 
HETATM   27  C20 UNL     1      26.645   8.349  48.592  1.00  0.00     0.119 A 
HETATM   28  C21 UNL     1      27.566   9.369  48.455  1.00  0.00     0.030 A 
HETATM   29  C22 UNL     1      28.777   8.663  48.341  1.00  0.00    -0.007 A 
HETATM   30  C23 UNL     1      28.484   7.360  48.425  1.00  0.00     0.111 A 
HETATM   31  C24 UNL     1      30.174   9.137  48.129  1.00  0.00     0.158 C 
HETATM   32  H23 UNL     1      30.586   6.373  49.290  1.00  0.00     0.162 HD
ENDROOT
BRANCH   1  33
HETATM   33  N1  UNL     1      29.544   8.163  44.746  1.00  0.00     0.083 N 
HETATM   34  H1  UNL     1      30.094   7.304  44.694  1.00  0.00     0.313 HD
HETATM   35  H2  UNL     1      28.918   8.300  45.553  1.00  0.00     0.313 HD
ENDBRANCH   1  33
TORSDOF 1
ENDMDL
MODEL 3
REMARK VINA RESULT:      -8.7      7.750     11.634
REMARK  1 active torsions:
REMARK  status: ('A' for Active; 'I' for Inactive)
REMARK    1  A    between atoms: N1_1  and  C1_2 
ROOT
HETATM    1  C1  UNL     1      31.305  10.043  45.129  1.00  0.00     0.232 C 
HETATM    2  C2  UNL     1      31.055  11.482  45.442  1.00  0.00     0.055 C 
HETATM    3  C3  UNL     1      30.352  11.577  46.821  1.00  0.00     0.119 C 
HETATM    4  N2  UNL     1      31.039  10.840  47.791  1.00  0.00    -0.407 N 
HETATM    5  C4  UNL     1      32.378  10.427  47.458  1.00  0.00     0.132 C 
HETATM    6  C5  UNL     1      32.295   9.581  46.219  1.00  0.00     0.043 C 
HETATM    7  C6  UNL     1      33.112   8.527  46.332  1.00  0.00     0.143 C 
HETATM    8  N3  UNL     1      33.753   7.290  45.948  1.00  0.00    -0.298 N 
HETATM    9  C7  UNL     1      33.386   6.357  44.890  1.00  0.00     0.151 C 
HETATM   10  C8  UNL     1      34.222   5.186  44.704  1.00  0.00     0.020 C 
HETATM   11  C9  UNL     1      33.761   4.317  45.584  1.00  0.00     0.022 C 
HETATM   12  C10 UNL     1      33.573   3.124  46.361  1.00  0.00    -0.021 C 
HETATM   13  C11 UNL     1      32.621   3.257  47.317  1.00  0.00    -0.004 C 
HETATM   14  C12 UNL     1      31.909   4.474  47.436  1.00  0.00    -0.002 C 
HETATM   15  C13 UNL     1      31.272   5.708  47.444  1.00  0.00     0.002 C 
HETATM   16  C14 UNL     1      30.429   5.724  48.643  1.00  0.00     0.129 C 
HETATM   17  C15 UNL     1      31.590   6.264  49.637  1.00  0.00     0.004 C 
HETATM   18  C16 UNL     1      32.791   6.787  49.039  1.00  0.00     0.019 C 
HETATM   19  C17 UNL     1      33.961   7.292  48.246  1.00  0.00     0.138 C 
HETATM   20  N4  UNL     1      34.590   7.587  47.067  1.00  0.00    -0.189 NA
HETATM   21  N5  UNL     1      29.420   6.697  48.796  1.00  0.00    -0.362 N 
HETATM   22  C18 UNL     1      28.255   7.517  48.566  1.00  0.00     0.155 A 
HETATM   23  N6  UNL     1      27.246   6.645  48.507  1.00  0.00    -0.221 NA
HETATM   24  C19 UNL     1      25.953   7.050  48.370  1.00  0.00     0.258 A 
HETATM   25  N7  UNL     1      25.770   8.379  48.306  1.00  0.00    -0.161 NA
HETATM   26  N8  UNL     1      26.836   9.145  48.376  1.00  0.00    -0.240 N 
HETATM   27  C20 UNL     1      26.784  10.496  48.353  1.00  0.00     0.119 A 
HETATM   28  C21 UNL     1      28.017  11.109  48.464  1.00  0.00     0.030 A 
HETATM   29  C22 UNL     1      28.889  10.009  48.555  1.00  0.00    -0.007 A 
HETATM   30  C23 UNL     1      28.137   8.903  48.502  1.00  0.00     0.111 A 
HETATM   31  C24 UNL     1      30.374   9.940  48.657  1.00  0.00     0.158 C 
HETATM   32  H23 UNL     1      29.515   7.238  49.713  1.00  0.00     0.162 HD
ENDROOT
BRANCH   1  33
HETATM   33  N1  UNL     1      30.156   9.195  45.165  1.00  0.00     0.083 N 
HETATM   34  H1  UNL     1      29.316   9.625  45.555  1.00  0.00     0.313 HD
HETATM   35  H2  UNL     1      30.079   8.672  44.281  1.00  0.00     0.313 HD
ENDBRANCH   1  33
TORSDOF 1
ENDMDL
MODEL 4
REMARK VINA RESULT:      -8.6      1.815      5.241
REMARK  1 active torsions:
REMARK  status: ('A' for Active; 'I' for Inactive)
REMARK    1  A    between atoms: N1_1  and  C1_2 
ROOT
HETATM    1  C1  UNL     1      22.592   5.855  51.382  1.00  0.00     0.232 C 
HETATM    2  C2  UNL     1      23.847   6.470  50.854  1.00  0.00     0.055 C 
HETATM    3  C3  UNL     1      24.804   5.338  50.402  1.00  0.00     0.119 C 
HETATM    4  N2  UNL     1      24.154   4.432  49.558  1.00  0.00    -0.407 N 
HETATM    5  C4  UNL     1      22.892   4.856  49.008  1.00  0.00     0.132 C 
HETATM    6  C5  UNL     1      21.971   5.146  50.160  1.00  0.00     0.043 C 
HETATM    7  C6  UNL     1      20.748   4.674  49.894  1.00  0.00     0.143 C 
HETATM    8  N3  UNL     1      19.355   4.370  50.134  1.00  0.00    -0.298 N 
HETATM    9  C7  UNL     1      18.617   4.382  51.390  1.00  0.00     0.151 C 
HETATM   10  C8  UNL     1      17.205   4.050  51.346  1.00  0.00     0.020 C 
HETATM   11  C9  UNL     1      17.182   2.730  51.384  1.00  0.00     0.022 C 
HETATM   12  C10 UNL     1      16.726   1.370  51.415  1.00  0.00    -0.021 C 
HETATM   13  C11 UNL     1      17.739   0.468  51.393  1.00  0.00    -0.004 C 
HETATM   14  C12 UNL     1      19.081   0.918  51.380  1.00  0.00    -0.002 C 
HETATM   15  C13 UNL     1      20.350   1.482  51.385  1.00  0.00     0.002 C 
HETATM   16  C14 UNL     1      21.288   0.375  51.170  1.00  0.00     0.129 C 
HETATM   17  C15 UNL     1      21.217   0.429  49.552  1.00  0.00     0.004 C 
HETATM   18  C16 UNL     1      20.608   1.585  48.947  1.00  0.00     0.019 C 
HETATM   19  C17 UNL     1      19.945   2.854  48.497  1.00  0.00     0.138 C 
HETATM   20  N4  UNL     1      19.367   4.071  48.737  1.00  0.00    -0.189 NA
HETATM   21  N5  UNL     1      22.664   0.546  51.421  1.00  0.00    -0.362 N 
HETATM   22  C18 UNL     1      23.917   0.829  52.079  1.00  0.00     0.155 A 
HETATM   23  N6  UNL     1      23.954  -0.029  53.100  1.00  0.00    -0.221 NA
HETATM   24  C19 UNL     1      25.033  -0.118  53.927  1.00  0.00     0.258 A 
HETATM   25  N7  UNL     1      26.049   0.711  53.637  1.00  0.00    -0.161 NA
HETATM   26  N8  UNL     1      25.905   1.514  52.607  1.00  0.00    -0.240 N 
HETATM   27  C20 UNL     1      26.865   2.372  52.194  1.00  0.00     0.119 A 
HETATM   28  C21 UNL     1      26.520   3.107  51.076  1.00  0.00     0.030 A 
HETATM   29  C22 UNL     1      25.221   2.641  50.803  1.00  0.00    -0.007 A 
HETATM   30  C23 UNL     1      24.931   1.717  51.726  1.00  0.00     0.111 A 
HETATM   31  C24 UNL     1      24.238   3.034  49.753  1.00  0.00     0.158 C 
HETATM   32  H23 UNL     1      23.265   0.289  50.575  1.00  0.00     0.162 HD
ENDROOT
BRANCH   1  33
HETATM   33  N1  UNL     1      22.767   4.898  52.428  1.00  0.00     0.083 N 
HETATM   34  H1  UNL     1      21.993   4.839  53.091  1.00  0.00     0.313 HD
HETATM   35  H2  UNL     1      23.155   4.025  52.043  1.00  0.00     0.313 HD
ENDBRANCH   1  33
TORSDOF 1
ENDMDL
MODEL 5
REMARK VINA RESULT:      -8.1      2.198      3.660
REMARK  1 active torsions:
REMARK  status: ('A' for Active; 'I' for Inactive)
REMARK    1  A    between atoms: N1_1  and  C1_2 
ROOT
HETATM    1  C1  UNL     1      21.028   5.328  47.943  1.00  0.00     0.232 C 
HETATM    2  C2  UNL     1      19.918   5.014  48.891  1.00  0.00     0.055 C 
HETATM    3  C3  UNL     1      20.504   4.890  50.322  1.00  0.00     0.119 C 
HETATM    4  N2  UNL     1      21.299   5.995  50.640  1.00  0.00    -0.407 N 
HETATM    5  C4  UNL     1      21.173   7.147  49.785  1.00  0.00     0.132 C 
HETATM    6  C5  UNL     1      21.531   6.717  48.390  1.00  0.00     0.043 C 
HETATM    7  C6  UNL     1      22.280   7.657  47.803  1.00  0.00     0.143 C 
HETATM    8  N3  UNL     1      23.075   8.270  46.762  1.00  0.00    -0.298 N 
HETATM    9  C7  UNL     1      23.653   7.663  45.571  1.00  0.00     0.151 C 
HETATM   10  C8  UNL     1      24.400   8.521  44.671  1.00  0.00     0.020 C 
HETATM   11  C9  UNL     1      25.611   8.565  45.196  1.00  0.00     0.022 C 
HETATM   12  C10 UNL     1      26.997   8.864  45.415  1.00  0.00    -0.021 C 
HETATM   13  C11 UNL     1      27.477   8.345  46.572  1.00  0.00    -0.004 C 
HETATM   14  C12 UNL     1      26.631   7.567  47.398  1.00  0.00    -0.002 C 
HETATM   15  C13 UNL     1      25.710   6.811  48.112  1.00  0.00     0.002 C 
HETATM   16  C14 UNL     1      26.346   6.502  49.397  1.00  0.00     0.129 C 
HETATM   17  C15 UNL     1      25.870   7.865  50.133  1.00  0.00     0.004 C 
HETATM   18  C16 UNL     1      24.855   8.655  49.486  1.00  0.00     0.019 C 
HETATM   19  C17 UNL     1      23.798   9.344  48.672  1.00  0.00     0.138 C 
HETATM   20  N4  UNL     1      22.952   9.422  47.600  1.00  0.00    -0.189 NA
HETATM   21  N5  UNL     1      25.815   5.501  50.235  1.00  0.00    -0.362 N 
HETATM   22  C18 UNL     1      25.334   4.233  50.728  1.00  0.00     0.155 A 
HETATM   23  N6  UNL     1      26.382   3.415  50.608  1.00  0.00    -0.221 NA
HETATM   24  C19 UNL     1      26.341   2.125  51.044  1.00  0.00     0.258 A 
HETATM   25  N7  UNL     1      25.182   1.743  51.602  1.00  0.00    -0.161 NA
HETATM   26  N8  UNL     1      24.216   2.632  51.670  1.00  0.00    -0.240 N 
HETATM   27  C20 UNL     1      23.013   2.382  52.235  1.00  0.00     0.119 A 
HETATM   28  C21 UNL     1      22.151   3.460  52.224  1.00  0.00     0.030 A 
HETATM   29  C22 UNL     1      22.918   4.448  51.581  1.00  0.00    -0.007 A 
HETATM   30  C23 UNL     1      24.104   3.901  51.292  1.00  0.00     0.111 A 
HETATM   31  C24 UNL     1      22.591   5.852  51.200  1.00  0.00     0.158 C 
HETATM   32  H23 UNL     1      25.616   5.863  51.222  1.00  0.00     0.162 HD
ENDROOT
BRANCH   1  33
HETATM   33  N1  UNL     1      22.127   4.416  47.957  1.00  0.00     0.083 N 
HETATM   34  H1  UNL     1      22.127   3.730  47.201  1.00  0.00     0.313 HD
HETATM   35  H2  UNL     1      23.000   4.923  48.164  1.00  0.00     0.313 HD
ENDBRANCH   1  33
TORSDOF 1
ENDMDL
MODEL 6
REMARK VINA RESULT:      -7.8      2.428      5.541
REMARK  1 active torsions:
REMARK  status: ('A' for Active; 'I' for Inactive)
REMARK    1  A    between atoms: N1_1  and  C1_2 
ROOT
HETATM    1  C1  UNL     1      22.271   2.193  52.295  1.00  0.00     0.232 C 
HETATM    2  C2  UNL     1      22.234   0.700  52.308  1.00  0.00     0.055 C 
HETATM    3  C3  UNL     1      21.028   0.223  51.458  1.00  0.00     0.119 C 
HETATM    4  N2  UNL     1      21.024   0.834  50.200  1.00  0.00    -0.407 N 
HETATM    5  C4  UNL     1      22.241   1.492  49.799  1.00  0.00     0.132 C 
HETATM    6  C5  UNL     1      22.537   2.555  50.819  1.00  0.00     0.043 C 
HETATM    7  C6  UNL     1      22.959   3.668  50.207  1.00  0.00     0.143 C 
HETATM    8  N3  UNL     1      23.411   5.036  50.092  1.00  0.00    -0.298 N 
HETATM    9  C7  UNL     1      23.360   6.105  51.080  1.00  0.00     0.151 C 
HETATM   10  C8  UNL     1      23.907   7.396  50.707  1.00  0.00     0.020 C 
HETATM   11  C9  UNL     1      22.920   7.991  50.062  1.00  0.00     0.022 C 
HETATM   12  C10 UNL     1      22.144   8.958  49.340  1.00  0.00    -0.021 C 
HETATM   13  C11 UNL     1      20.921   8.498  48.980  1.00  0.00    -0.004 C 
HETATM   14  C12 UNL     1      20.521   7.194  49.358  1.00  0.00    -0.002 C 
HETATM   15  C13 UNL     1      20.240   5.907  49.799  1.00  0.00     0.002 C 
HETATM   16  C14 UNL     1      18.976   5.525  49.162  1.00  0.00     0.129 C 
HETATM   17  C15 UNL     1      19.656   4.961  47.803  1.00  0.00     0.004 C 
HETATM   18  C16 UNL     1      21.080   4.749  47.807  1.00  0.00     0.019 C 
HETATM   19  C17 UNL     1      22.561   4.589  47.994  1.00  0.00     0.138 C 
HETATM   20  N4  UNL     1      23.700   4.636  48.751  1.00  0.00    -0.189 NA
HETATM   21  N5  UNL     1      18.251   4.408  49.626  1.00  0.00    -0.362 N 
HETATM   22  C18 UNL     1      17.527   3.497  50.479  1.00  0.00     0.155 A 
HETATM   23  N6  UNL     1      16.487   4.210  50.915  1.00  0.00    -0.221 NA
HETATM   24  C19 UNL     1      15.519   3.662  51.701  1.00  0.00     0.258 A 
HETATM   25  N7  UNL     1      15.685   2.363  51.997  1.00  0.00    -0.161 NA
HETATM   26  N8  UNL     1      16.746   1.759  51.513  1.00  0.00    -0.240 N 
HETATM   27  C20 UNL     1      17.012   0.448  51.713  1.00  0.00     0.119 A 
HETATM   28  C21 UNL     1      18.166   0.006  51.095  1.00  0.00     0.030 A 
HETATM   29  C22 UNL     1      18.635   1.176  50.471  1.00  0.00    -0.007 A 
HETATM   30  C23 UNL     1      17.762   2.150  50.751  1.00  0.00     0.111 A 
HETATM   31  C24 UNL     1      19.861   1.433  49.662  1.00  0.00     0.158 C 
HETATM   32  H23 UNL     1      18.042   3.709  48.845  1.00  0.00     0.162 HD
ENDROOT
BRANCH   1  33
HETATM   33  N1  UNL     1      21.071   2.843  52.718  1.00  0.00     0.083 N 
HETATM   34  H1  UNL     1      20.396   2.238  53.188  1.00  0.00     0.313 HD
HETATM   35  H2  UNL     1      21.298   3.754  53.142  1.00  0.00     0.313 HD
ENDBRANCH   1  33
TORSDOF 1
ENDMDL
MODEL 7
REMARK VINA RESULT:      -7.7      5.818      9.357
REMARK  1 active torsions:
REMARK  status: ('A' for Active; 'I' for Inactive)
REMARK    1  A    between atoms: N1_1  and  C1_2 
ROOT
HETATM    1  C1  UNL     1      30.132   8.888  48.830  1.00  0.00     0.232 C 
HETATM    2  C2  UNL     1      30.631   7.499  48.601  1.00  0.00     0.055 C 
HETATM    3  C3  UNL     1      29.439   6.606  48.169  1.00  0.00     0.119 C 
HETATM    4  N2  UNL     1      28.723   7.190  47.120  1.00  0.00    -0.407 N 
HETATM    5  C4  UNL     1      29.366   8.279  46.429  1.00  0.00     0.132 C 
HETATM    6  C5  UNL     1      29.646   9.354  47.441  1.00  0.00     0.043 C 
HETATM    7  C6  UNL     1      29.370  10.554  46.918  1.00  0.00     0.143 C 
HETATM    8  N3  UNL     1      29.226  11.992  46.884  1.00  0.00    -0.298 N 
HETATM    9  C7  UNL     1      29.198  12.937  47.992  1.00  0.00     0.151 C 
HETATM   10  C8  UNL     1      29.060  14.346  47.674  1.00  0.00     0.020 C 
HETATM   11  C9  UNL     1      27.759  14.520  47.536  1.00  0.00     0.022 C 
HETATM   12  C10 UNL     1      26.474  15.121  47.315  1.00  0.00    -0.021 C 
HETATM   13  C11 UNL     1      25.456  14.226  47.344  1.00  0.00    -0.004 C 
HETATM   14  C12 UNL     1      25.725  12.863  47.611  1.00  0.00    -0.002 C 
HETATM   15  C13 UNL     1      26.114  11.561  47.897  1.00  0.00     0.002 C 
HETATM   16  C14 UNL     1      24.925  10.727  47.699  1.00  0.00     0.129 C 
HETATM   17  C15 UNL     1      25.162  10.500  46.112  1.00  0.00     0.004 C 
HETATM   18  C16 UNL     1      26.446  10.861  45.570  1.00  0.00     0.019 C 
HETATM   19  C17 UNL     1      27.833  11.288  45.185  1.00  0.00     0.138 C 
HETATM   20  N4  UNL     1      29.082  11.762  45.481  1.00  0.00    -0.189 NA
HETATM   21  N5  UNL     1      24.886   9.408  48.194  1.00  0.00    -0.362 N 
HETATM   22  C18 UNL     1      24.930   8.270  49.080  1.00  0.00     0.155 A 
HETATM   23  N6  UNL     1      23.969   8.511  49.973  1.00  0.00    -0.221 NA
HETATM   24  C19 UNL     1      23.651   7.614  50.948  1.00  0.00     0.258 A 
HETATM   25  N7  UNL     1      24.366   6.478  50.939  1.00  0.00    -0.161 NA
HETATM   26  N8  UNL     1      25.288   6.346  50.012  1.00  0.00    -0.240 N 
HETATM   27  C20 UNL     1      26.054   5.239  49.877  1.00  0.00     0.119 A 
HETATM   28  C21 UNL     1      26.944   5.295  48.822  1.00  0.00     0.030 A 
HETATM   29  C22 UNL     1      26.683   6.567  48.281  1.00  0.00    -0.007 A 
HETATM   30  C23 UNL     1      25.711   7.117  49.016  1.00  0.00     0.111 A 
HETATM   31  C24 UNL     1      27.313   7.297  47.144  1.00  0.00     0.158 C 
HETATM   32  H23 UNL     1      24.646   8.697  47.432  1.00  0.00     0.162 HD
ENDROOT
BRANCH   1  33
HETATM   33  N1  UNL     1      29.052   9.010  49.758  1.00  0.00     0.083 N 
HETATM   34  H1  UNL     1      29.214   8.574  50.666  1.00  0.00     0.313 HD
HETATM   35  H2  UNL     1      28.672   9.967  49.729  1.00  0.00     0.313 HD
ENDBRANCH   1  33
TORSDOF 1
ENDMDL
MODEL 8
REMARK VINA RESULT:      -7.7      6.447      9.758
REMARK  1 active torsions:
REMARK  status: ('A' for Active; 'I' for Inactive)
REMARK    1  A    between atoms: N1_1  and  C1_2 
ROOT
HETATM    1  C1  UNL     1      27.741  10.450  46.151  1.00  0.00     0.232 C 
HETATM    2  C2  UNL     1      26.884  11.412  46.906  1.00  0.00     0.055 C 
HETATM    3  C3  UNL     1      26.635  10.848  48.329  1.00  0.00     0.119 C 
HETATM    4  N2  UNL     1      27.835  10.472  48.941  1.00  0.00    -0.407 N 
HETATM    5  C4  UNL     1      29.047  10.957  48.333  1.00  0.00     0.132 C 
HETATM    6  C5  UNL     1      29.079  10.447  46.920  1.00  0.00     0.043 C 
HETATM    7  C6  UNL     1      30.317  10.041  46.611  1.00  0.00     0.143 C 
HETATM    8  N3  UNL     1      31.370   9.474  45.799  1.00  0.00    -0.298 N 
HETATM    9  C7  UNL     1      31.264   8.702  44.568  1.00  0.00     0.151 C 
HETATM   10  C8  UNL     1      32.496   8.265  43.938  1.00  0.00     0.020 C 
HETATM   11  C9  UNL     1      32.805   7.149  44.573  1.00  0.00     0.022 C 
HETATM   12  C10 UNL     1      33.474   5.946  44.979  1.00  0.00    -0.021 C 
HETATM   13  C11 UNL     1      32.890   5.345  46.044  1.00  0.00    -0.004 C 
HETATM   14  C12 UNL     1      31.717   5.902  46.609  1.00  0.00    -0.002 C 
HETATM   15  C13 UNL     1      30.566   6.533  47.063  1.00  0.00     0.002 C 
HETATM   16  C14 UNL     1      30.196   5.857  48.310  1.00  0.00     0.129 C 
HETATM   17  C15 UNL     1      31.133   6.775  49.263  1.00  0.00     0.004 C 
HETATM   18  C16 UNL     1      31.681   7.982  48.699  1.00  0.00     0.019 C 
HETATM   19  C17 UNL     1      32.159   9.190  47.948  1.00  0.00     0.138 C 
HETATM   20  N4  UNL     1      32.201   9.991  46.840  1.00  0.00    -0.189 NA
HETATM   21  N5  UNL     1      28.916   6.043  48.871  1.00  0.00    -0.362 N 
HETATM   22  C18 UNL     1      27.484   6.084  49.046  1.00  0.00     0.155 A 
HETATM   23  N6  UNL     1      27.094   4.822  48.860  1.00  0.00    -0.221 NA
HETATM   24  C19 UNL     1      25.796   4.440  49.015  1.00  0.00     0.258 A 
HETATM   25  N7  UNL     1      24.947   5.418  49.371  1.00  0.00    -0.161 NA
HETATM   26  N8  UNL     1      25.441   6.625  49.528  1.00  0.00    -0.240 N 
HETATM   27  C20 UNL     1      24.699   7.688  49.914  1.00  0.00     0.119 A 
HETATM   28  C21 UNL     1      25.418   8.860  50.043  1.00  0.00     0.030 A 
HETATM   29  C22 UNL     1      26.717   8.452  49.692  1.00  0.00    -0.007 A 
HETATM   30  C23 UNL     1      26.658   7.145  49.411  1.00  0.00     0.111 A 
HETATM   31  C24 UNL     1      27.990   9.219  49.578  1.00  0.00     0.158 C 
HETATM   32  H23 UNL     1      28.964   6.371  49.888  1.00  0.00     0.162 HD
ENDROOT
BRANCH   1  33
HETATM   33  N1  UNL     1      27.251   9.110  46.081  1.00  0.00     0.083 N 
HETATM   34  H1  UNL     1      26.709   8.807  46.891  1.00  0.00     0.313 HD
HETATM   35  H2  UNL     1      26.878   8.923  45.139  1.00  0.00     0.313 HD
ENDBRANCH   1  33
TORSDOF 1
ENDMDL
MODEL 9
REMARK VINA RESULT:      -7.7      1.932      4.665
REMARK  1 active torsions:
REMARK  status: ('A' for Active; 'I' for Inactive)
REMARK    1  A    between atoms: N1_1  and  C1_2 
ROOT
HETATM    1  C1  UNL     1      23.062   4.733  52.727  1.00  0.00     0.232 C 
HETATM    2  C2  UNL     1      24.220   4.085  53.414  1.00  0.00     0.055 C 
HETATM    3  C3  UNL     1      24.229   2.576  53.057  1.00  0.00     0.119 C 
HETATM    4  N2  UNL     1      24.137   2.382  51.675  1.00  0.00    -0.407 N 
HETATM    5  C4  UNL     1      24.383   3.534  50.846  1.00  0.00     0.132 C 
HETATM    6  C5  UNL     1      23.378   4.585  51.224  1.00  0.00     0.043 C 
HETATM    7  C6  UNL     1      22.912   5.186  50.123  1.00  0.00     0.143 C 
HETATM    8  N3  UNL     1      22.103   6.093  49.340  1.00  0.00    -0.298 N 
HETATM    9  C7  UNL     1      20.922   6.846  49.740  1.00  0.00     0.151 C 
HETATM   10  C8  UNL     1      20.305   7.710  48.751  1.00  0.00     0.020 C 
HETATM   11  C9  UNL     1      19.518   6.903  48.063  1.00  0.00     0.022 C 
HETATM   12  C10 UNL     1      18.571   6.401  47.108  1.00  0.00    -0.021 C 
HETATM   13  C11 UNL     1      18.405   5.057  47.180  1.00  0.00    -0.004 C 
HETATM   14  C12 UNL     1      19.108   4.313  48.158  1.00  0.00    -0.002 C 
HETATM   15  C13 UNL     1      19.839   3.698  49.165  1.00  0.00     0.002 C 
HETATM   16  C14 UNL     1      19.676   2.255  48.963  1.00  0.00     0.129 C 
HETATM   17  C15 UNL     1      20.905   2.108  47.917  1.00  0.00     0.004 C 
HETATM   18  C16 UNL     1      21.821   3.214  47.803  1.00  0.00     0.019 C 
HETATM   19  C17 UNL     1      22.667   4.453  47.819  1.00  0.00     0.138 C 
HETATM   20  N4  UNL     1      22.992   5.694  48.295  1.00  0.00    -0.189 NA
HETATM   21  N5  UNL     1      20.033   1.346  49.981  1.00  0.00    -0.362 N 
HETATM   22  C18 UNL     1      20.106   0.662  51.249  1.00  0.00     0.155 A 
HETATM   23  N6  UNL     1      18.859   0.241  51.469  1.00  0.00    -0.221 NA
HETATM   24  C19 UNL     1      18.536  -0.520  52.551  1.00  0.00     0.258 A 
HETATM   25  N7  UNL     1      19.558  -0.817  53.370  1.00  0.00    -0.161 NA
HETATM   26  N8  UNL     1      20.746  -0.351  53.056  1.00  0.00    -0.240 N 
HETATM   27  C20 UNL     1      21.859  -0.604  53.780  1.00  0.00     0.119 A 
HETATM   28  C21 UNL     1      23.009  -0.040  53.262  1.00  0.00     0.030 A 
HETATM   29  C22 UNL     1      22.526   0.620  52.118  1.00  0.00    -0.007 A 
HETATM   30  C23 UNL     1      21.209   0.393  52.057  1.00  0.00     0.111 A 
HETATM   31  C24 UNL     1      23.221   1.467  51.106  1.00  0.00     0.158 C 
HETATM   32  H23 UNL     1      20.721   0.603  49.637  1.00  0.00     0.162 HD
ENDROOT
BRANCH   1  33
HETATM   33  N1  UNL     1      21.785   4.149  52.987  1.00  0.00     0.083 N 
HETATM   34  H1  UNL     1      21.620   3.252  52.528  1.00  0.00     0.313 HD
HETATM   35  H2  UNL     1      21.553   4.243  53.987  1.00  0.00     0.313 HD
ENDBRANCH   1  33
TORSDOF 1
ENDMDL
