MODEL 1
REMARK VINA RESULT:      -8.1      0.000      0.000
REMARK  8 active torsions:
REMARK  status: ('A' for Active; 'I' for Inactive)
REMARK    1  A    between atoms: C3_3  and  C4_4 
REMARK    2  A    between atoms: C8_8  and  C9_9 
REMARK    3  A    between atoms: C11_13  and  N3_14 
REMARK    4  A    between atoms: C14_17  and  C15_18 
REMARK    5  A    between atoms: C15_18  and  O1_19 
REMARK    6  A    between atoms: O1_19  and  C16_20 
REMARK    7  A    between atoms: C16_20  and  C17_21 
REMARK    8  A    between atoms: C19_23  and  O2_24 
ROOT
HETATM    1  C1  UNL     1      21.348  -1.089  54.207  1.00  0.00     0.112 C 
HETATM    2  C2  UNL     1      22.465  -0.360  53.569  1.00  0.00    -0.105 C 
HETATM    3  C3  UNL     1      23.362   0.230  53.034  1.00  0.00    -0.067 C 
ENDROOT
BRANCH   3   4
HETATM    4  C4  UNL     1      24.445   0.914  52.385  1.00  0.00     0.018 A 
HETATM    5  C5  UNL     1      25.723   0.462  52.639  1.00  0.00     0.020 A 
HETATM    6  C6  UNL     1      26.761   1.116  52.019  1.00  0.00     0.002 A 
HETATM    7  C7  UNL     1      26.652   2.176  51.171  1.00  0.00     0.014 A 
HETATM    8  C8  UNL     1      25.382   2.622  50.922  1.00  0.00    -0.005 A 
HETATM    9  C21 UNL     1      24.289   1.992  51.527  1.00  0.00     0.034 A 
BRANCH   8  10
HETATM   10  C9  UNL     1      24.896   3.701  50.066  1.00  0.00     0.079 C 
HETATM   11  N1  UNL     1      23.790   4.038  49.442  1.00  0.00    -0.241 NA
HETATM   12  C10 UNL     1      23.667   5.223  48.690  1.00  0.00     0.231 C 
HETATM   13  N2  UNL     1      24.602   6.190  48.511  1.00  0.00    -0.231 NA
HETATM   14  C11 UNL     1      25.845   5.931  49.219  1.00  0.00     0.327 A 
HETATM   15  C12 UNL     1      26.011   4.502  49.466  1.00  0.00     0.039 A 
HETATM   16  C19 UNL     1      27.039   6.434  48.626  1.00  0.00     0.119 A 
HETATM   17  C13 UNL     1      27.260   4.228  49.048  1.00  0.00     0.026 A 
HETATM   18  C14 UNL     1      27.913   5.419  48.522  1.00  0.00     0.000 A 
BRANCH  14  19
HETATM   19  N3  UNL     1      25.627   6.624  50.538  1.00  0.00     0.121 N 
HETATM   20  H8  UNL     1      26.510   7.158  50.680  1.00  0.00     0.317 HD
HETATM   21  H9  UNL     1      25.512   5.872  51.268  1.00  0.00     0.317 HD
ENDBRANCH  14  19
BRANCH  18  22
HETATM   22  C15 UNL     1      29.294   5.472  47.977  1.00  0.00     0.209 C 
BRANCH  22  23
HETATM   23  O1  UNL     1      30.217   5.364  49.030  1.00  0.00    -0.387 OA
BRANCH  23  24
HETATM   24  C16 UNL     1      31.435   5.830  48.562  1.00  0.00     0.167 C 
BRANCH  24  25
HETATM   25  C17 UNL     1      31.752   5.130  47.244  1.00  0.00     0.022 C 
HETATM   26  C18 UNL     1      32.492   3.842  47.512  1.00  0.00     0.007 C 
ENDBRANCH  24  25
ENDBRANCH  23  24
ENDBRANCH  22  23
ENDBRANCH  18  22
BRANCH  16  27
HETATM   27  O2  UNL     1      27.255   7.748  48.229  1.00  0.00    -0.355 OA
HETATM   28  C20 UNL     1      27.859   8.652  49.133  1.00  0.00     0.209 C 
ENDBRANCH  16  27
ENDBRANCH   8  10
ENDBRANCH   3   4
TORSDOF 8
ENDMDL
MODEL 2
REMARK VINA RESULT:      -7.5      3.190      7.355
REMARK  8 active torsions:
REMARK  status: ('A' for Active; 'I' for Inactive)
REMARK    1  A    between atoms: C3_3  and  C4_4 
REMARK    2  A    between atoms: C8_8  and  C9_9 
REMARK    3  A    between atoms: C11_13  and  N3_14 
REMARK    4  A    between atoms: C14_17  and  C15_18 
REMARK    5  A    between atoms: C15_18  and  O1_19 
REMARK    6  A    between atoms: O1_19  and  C16_20 
REMARK    7  A    between atoms: C16_20  and  C17_21 
REMARK    8  A    between atoms: C19_23  and  O2_24 
ROOT
HETATM    1  C1  UNL     1      26.248  10.144  47.811  1.00  0.00     0.112 C 
HETATM    2  C2  UNL     1      26.249   8.720  48.206  1.00  0.00    -0.105 C 
HETATM    3  C3  UNL     1      26.239   7.567  48.542  1.00  0.00    -0.067 C 
ENDROOT
BRANCH   3   4
HETATM    4  C4  UNL     1      26.244   6.194  48.962  1.00  0.00     0.018 A 
HETATM    5  C5  UNL     1      27.325   5.422  48.592  1.00  0.00     0.020 A 
HETATM    6  C6  UNL     1      27.331   4.107  48.993  1.00  0.00     0.002 A 
HETATM    7  C7  UNL     1      26.366   3.485  49.725  1.00  0.00     0.014 A 
HETATM    8  C8  UNL     1      25.295   4.255  50.090  1.00  0.00    -0.005 A 
HETATM    9  C21 UNL     1      25.238   5.600  49.710  1.00  0.00     0.034 A 
BRANCH   8  10
HETATM   10  C9  UNL     1      24.109   3.933  50.880  1.00  0.00     0.079 C 
HETATM   11  N1  UNL     1      23.065   4.552  51.382  1.00  0.00    -0.241 NA
HETATM   12  C10 UNL     1      22.054   3.887  52.103  1.00  0.00     0.231 C 
HETATM   13  N2  UNL     1      21.964   2.559  52.366  1.00  0.00    -0.231 NA
HETATM   14  C11 UNL     1      23.049   1.780  51.792  1.00  0.00     0.327 A 
HETATM   15  C12 UNL     1      24.228   2.614  51.581  1.00  0.00     0.039 A 
HETATM   16  C19 UNL     1      23.442   0.606  52.498  1.00  0.00     0.119 A 
HETATM   17  C13 UNL     1      25.240   1.917  52.128  1.00  0.00     0.026 A 
HETATM   18  C14 UNL     1      24.768   0.665  52.703  1.00  0.00     0.000 A 
BRANCH  14  19
HETATM   19  N3  UNL     1      22.497   1.379  50.450  1.00  0.00     0.121 N 
HETATM   20  H8  UNL     1      21.872   2.172  50.198  1.00  0.00     0.317 HD
HETATM   21  H9  UNL     1      21.949   0.490  50.593  1.00  0.00     0.317 HD
ENDBRANCH  14  19
BRANCH  18  22
HETATM   22  C15 UNL     1      25.619  -0.342  53.387  1.00  0.00     0.209 C 
BRANCH  22  23
HETATM   23  O1  UNL     1      26.967  -0.106  53.072  1.00  0.00    -0.387 OA
BRANCH  23  24
HETATM   24  C16 UNL     1      27.674  -0.091  54.263  1.00  0.00     0.167 C 
BRANCH  24  25
HETATM   25  C17 UNL     1      29.124   0.280  53.966  1.00  0.00     0.022 C 
HETATM   26  C18 UNL     1      29.912  -0.960  53.619  1.00  0.00     0.007 C 
ENDBRANCH  24  25
ENDBRANCH  23  24
ENDBRANCH  22  23
ENDBRANCH  18  22
BRANCH  16  27
HETATM   27  O2  UNL     1      22.592  -0.419  52.899  1.00  0.00    -0.355 OA
HETATM   28  C20 UNL     1      22.283  -0.562  54.271  1.00  0.00     0.209 C 
ENDBRANCH  16  27
ENDBRANCH   8  10
ENDBRANCH   3   4
TORSDOF 8
ENDMDL
MODEL 3
REMARK VINA RESULT:      -7.5      3.275      5.951
REMARK  8 active torsions:
REMARK  status: ('A' for Active; 'I' for Inactive)
REMARK    1  A    between atoms: C3_3  and  C4_4 
REMARK    2  A    between atoms: C8_8  and  C9_9 
REMARK    3  A    between atoms: C11_13  and  N3_14 
REMARK    4  A    between atoms: C14_17  and  C15_18 
REMARK    5  A    between atoms: C15_18  and  O1_19 
REMARK    6  A    between atoms: O1_19  and  C16_20 
REMARK    7  A    between atoms: C16_20  and  C17_21 
REMARK    8  A    between atoms: C19_23  and  O2_24 
ROOT
HETATM    1  C1  UNL     1      20.934  -1.494  54.202  1.00  0.00     0.112 C 
HETATM    2  C2  UNL     1      22.280  -1.020  53.817  1.00  0.00    -0.105 C 
HETATM    3  C3  UNL     1      23.367  -0.617  53.509  1.00  0.00    -0.067 C 
ENDROOT
BRANCH   3   4
HETATM    4  C4  UNL     1      24.659  -0.125  53.120  1.00  0.00     0.018 A 
HETATM    5  C5  UNL     1      25.764  -0.773  53.633  1.00  0.00     0.020 A 
HETATM    6  C6  UNL     1      27.002  -0.304  53.261  1.00  0.00     0.002 A 
HETATM    7  C7  UNL     1      27.248   0.747  52.431  1.00  0.00     0.014 A 
HETATM    8  C8  UNL     1      26.149   1.386  51.924  1.00  0.00    -0.005 A 
HETATM    9  C21 UNL     1      24.865   0.950  52.269  1.00  0.00     0.034 A 
BRANCH   8  10
HETATM   10  C9  UNL     1      26.037   2.516  51.005  1.00  0.00     0.079 C 
HETATM   11  N1  UNL     1      26.832   3.300  50.312  1.00  0.00    -0.241 NA
HETATM   12  C10 UNL     1      26.352   4.321  49.467  1.00  0.00     0.231 C 
HETATM   13  N2  UNL     1      25.059   4.638  49.205  1.00  0.00    -0.231 NA
HETATM   14  C11 UNL     1      24.104   3.777  49.883  1.00  0.00     0.327 A 
HETATM   15  C12 UNL     1      24.698   3.184  51.076  1.00  0.00     0.039 A 
HETATM   16  C19 UNL     1      22.852   4.360  50.239  1.00  0.00     0.119 A 
HETATM   17  C13 UNL     1      23.800   3.408  52.052  1.00  0.00     0.026 A 
HETATM   18  C14 UNL     1      22.645   4.139  51.548  1.00  0.00     0.000 A 
BRANCH  14  19
HETATM   19  N3  UNL     1      23.862   2.687  48.873  1.00  0.00     0.121 N 
HETATM   20  H8  UNL     1      23.458   3.195  48.059  1.00  0.00     0.317 HD
HETATM   21  H9  UNL     1      23.161   2.022  49.297  1.00  0.00     0.317 HD
ENDBRANCH  14  19
BRANCH  18  22
HETATM   22  C15 UNL     1      21.470   4.552  52.355  1.00  0.00     0.209 C 
BRANCH  22  23
HETATM   23  O1  UNL     1      20.371   3.738  52.034  1.00  0.00    -0.387 OA
BRANCH  23  24
HETATM   24  C16 UNL     1      20.569   2.514  52.651  1.00  0.00     0.167 C 
BRANCH  24  25
HETATM   25  C17 UNL     1      20.068   1.411  51.721  1.00  0.00     0.022 C 
HETATM   26  C18 UNL     1      21.189   0.946  50.825  1.00  0.00     0.007 C 
ENDBRANCH  24  25
ENDBRANCH  23  24
ENDBRANCH  22  23
ENDBRANCH  18  22
BRANCH  16  27
HETATM   27  O2  UNL     1      22.000   5.036  49.374  1.00  0.00    -0.355 OA
HETATM   28  C20 UNL     1      20.954   4.327  48.741  1.00  0.00     0.209 C 
ENDBRANCH  16  27
ENDBRANCH   8  10
ENDBRANCH   3   4
TORSDOF 8
ENDMDL
MODEL 4
REMARK VINA RESULT:      -7.4      3.803      7.176
REMARK  8 active torsions:
REMARK  status: ('A' for Active; 'I' for Inactive)
REMARK    1  A    between atoms: C3_3  and  C4_4 
REMARK    2  A    between atoms: C8_8  and  C9_9 
REMARK    3  A    between atoms: C11_13  and  N3_14 
REMARK    4  A    between atoms: C14_17  and  C15_18 
REMARK    5  A    between atoms: C15_18  and  O1_19 
REMARK    6  A    between atoms: O1_19  and  C16_20 
REMARK    7  A    between atoms: C16_20  and  C17_21 
REMARK    8  A    between atoms: C19_23  and  O2_24 
ROOT
HETATM    1  C1  UNL     1      27.201   4.716  48.870  1.00  0.00     0.112 C 
HETATM    2  C2  UNL     1      26.716   3.661  49.784  1.00  0.00    -0.105 C 
HETATM    3  C3  UNL     1      26.341   2.800  50.531  1.00  0.00    -0.067 C 
ENDROOT
BRANCH   3   4
HETATM    4  C4  UNL     1      25.900   1.753  51.410  1.00  0.00     0.018 A 
HETATM    5  C5  UNL     1      26.844   0.840  51.832  1.00  0.00     0.020 A 
HETATM    6  C6  UNL     1      26.424  -0.163  52.673  1.00  0.00     0.002 A 
HETATM    7  C7  UNL     1      25.156  -0.346  53.135  1.00  0.00     0.014 A 
HETATM    8  C8  UNL     1      24.223   0.562  52.714  1.00  0.00    -0.005 A 
HETATM    9  C21 UNL     1      24.597   1.603  51.857  1.00  0.00     0.034 A 
BRANCH   8  10
HETATM   10  C9  UNL     1      22.799   0.683  53.019  1.00  0.00     0.079 C 
HETATM   11  N1  UNL     1      21.951   0.260  53.928  1.00  0.00    -0.241 NA
HETATM   12  C10 UNL     1      20.587   0.614  53.925  1.00  0.00     0.231 C 
HETATM   13  N2  UNL     1      19.948   1.434  53.053  1.00  0.00    -0.231 NA
HETATM   14  C11 UNL     1      20.825   2.002  52.043  1.00  0.00     0.327 A 
HETATM   15  C12 UNL     1      21.999   1.158  51.845  1.00  0.00     0.039 A 
HETATM   16  C19 UNL     1      20.246   2.282  50.771  1.00  0.00     0.119 A 
HETATM   17  C13 UNL     1      22.082   0.997  50.512  1.00  0.00     0.026 A 
HETATM   18  C14 UNL     1      20.998   1.690  49.829  1.00  0.00     0.000 A 
BRANCH  14  19
HETATM   19  N3  UNL     1      21.265   3.296  52.674  1.00  0.00     0.121 N 
HETATM   20  H8  UNL     1      20.368   3.762  52.922  1.00  0.00     0.317 HD
HETATM   21  H9  UNL     1      21.787   3.839  51.935  1.00  0.00     0.317 HD
ENDBRANCH  14  19
BRANCH  18  22
HETATM   22  C15 UNL     1      20.786   1.718  48.360  1.00  0.00     0.209 C 
BRANCH  22  23
HETATM   23  O1  UNL     1      21.108   2.994  47.866  1.00  0.00    -0.387 OA
BRANCH  23  24
HETATM   24  C16 UNL     1      22.489   3.084  47.820  1.00  0.00     0.167 C 
BRANCH  24  25
HETATM   25  C17 UNL     1      22.899   4.501  48.215  1.00  0.00     0.022 C 
HETATM   26  C18 UNL     1      23.121   4.575  49.705  1.00  0.00     0.007 C 
ENDBRANCH  24  25
ENDBRANCH  23  24
ENDBRANCH  22  23
ENDBRANCH  18  22
BRANCH  16  27
HETATM   27  O2  UNL     1      19.101   3.041  50.554  1.00  0.00    -0.355 OA
HETATM   28  C20 UNL     1      17.861   2.386  50.381  1.00  0.00     0.209 C 
ENDBRANCH  16  27
ENDBRANCH   8  10
ENDBRANCH   3   4
TORSDOF 8
ENDMDL
MODEL 5
REMARK VINA RESULT:      -7.4      3.932      6.087
REMARK  8 active torsions:
REMARK  status: ('A' for Active; 'I' for Inactive)
REMARK    1  A    between atoms: C3_3  and  C4_4 
REMARK    2  A    between atoms: C8_8  and  C9_9 
REMARK    3  A    between atoms: C11_13  and  N3_14 
REMARK    4  A    between atoms: C14_17  and  C15_18 
REMARK    5  A    between atoms: C15_18  and  O1_19 
REMARK    6  A    between atoms: O1_19  and  C16_20 
REMARK    7  A    between atoms: C16_20  and  C17_21 
REMARK    8  A    between atoms: C19_23  and  O2_24 
ROOT
HETATM    1  C1  UNL     1      29.967  -0.889  53.513  1.00  0.00     0.112 C 
HETATM    2  C2  UNL     1      28.540  -0.512  53.453  1.00  0.00    -0.105 C 
HETATM    3  C3  UNL     1      27.377  -0.219  53.390  1.00  0.00    -0.067 C 
ENDROOT
BRANCH   3   4
HETATM    4  C4  UNL     1      25.991   0.143  53.293  1.00  0.00     0.018 A 
HETATM    5  C5  UNL     1      25.060  -0.851  53.509  1.00  0.00     0.020 A 
HETATM    6  C6  UNL     1      23.732  -0.506  53.417  1.00  0.00     0.002 A 
HETATM    7  C7  UNL     1      23.241   0.731  53.131  1.00  0.00     0.014 A 
HETATM    8  C8  UNL     1      24.168   1.715  52.917  1.00  0.00    -0.005 A 
HETATM    9  C21 UNL     1      25.533   1.419  52.999  1.00  0.00     0.034 A 
BRANCH   8  10
HETATM   10  C9  UNL     1      24.006   3.134  52.614  1.00  0.00     0.079 C 
HETATM   11  N1  UNL     1      23.773   4.256  53.257  1.00  0.00    -0.241 NA
HETATM   12  C10 UNL     1      23.704   5.507  52.614  1.00  0.00     0.231 C 
HETATM   13  N2  UNL     1      23.887   5.770  51.295  1.00  0.00    -0.231 NA
HETATM   14  C11 UNL     1      24.213   4.590  50.510  1.00  0.00     0.327 A 
HETATM   15  C12 UNL     1      23.722   3.382  51.164  1.00  0.00     0.039 A 
HETATM   16  C19 UNL     1      23.781   4.582  49.152  1.00  0.00     0.119 A 
HETATM   17  C13 UNL     1      23.062   2.717  50.198  1.00  0.00     0.026 A 
HETATM   18  C14 UNL     1      23.090   3.451  48.940  1.00  0.00     0.000 A 
BRANCH  14  19
HETATM   19  N3  UNL     1      25.718   4.575  50.542  1.00  0.00     0.121 N 
HETATM   20  H8  UNL     1      25.956   3.586  50.319  1.00  0.00     0.317 HD
HETATM   21  H9  UNL     1      26.010   4.827  51.524  1.00  0.00     0.317 HD
ENDBRANCH  14  19
BRANCH  18  22
HETATM   22  C15 UNL     1      22.459   3.005  47.671  1.00  0.00     0.209 C 
BRANCH  22  23
HETATM   23  O1  UNL     1      21.192   3.599  47.545  1.00  0.00    -0.387 OA
BRANCH  23  24
HETATM   24  C16 UNL     1      20.249   2.593  47.672  1.00  0.00     0.167 C 
BRANCH  24  25
HETATM   25  C17 UNL     1      19.508   2.782  48.993  1.00  0.00     0.022 C 
HETATM   26  C18 UNL     1      19.480   1.481  49.757  1.00  0.00     0.007 C 
ENDBRANCH  24  25
ENDBRANCH  23  24
ENDBRANCH  22  23
ENDBRANCH  18  22
BRANCH  16  27
HETATM   27  O2  UNL     1      24.038   5.577  48.215  1.00  0.00    -0.355 OA
HETATM   28  C20 UNL     1      23.074   6.588  48.000  1.00  0.00     0.209 C 
ENDBRANCH  16  27
ENDBRANCH   8  10
ENDBRANCH   3   4
TORSDOF 8
ENDMDL
MODEL 6
REMARK VINA RESULT:      -7.1      5.883      9.034
REMARK  8 active torsions:
REMARK  status: ('A' for Active; 'I' for Inactive)
REMARK    1  A    between atoms: C3_3  and  C4_4 
REMARK    2  A    between atoms: C8_8  and  C9_9 
REMARK    3  A    between atoms: C11_13  and  N3_14 
REMARK    4  A    between atoms: C14_17  and  C15_18 
REMARK    5  A    between atoms: C15_18  and  O1_19 
REMARK    6  A    between atoms: O1_19  and  C16_20 
REMARK    7  A    between atoms: C16_20  and  C17_21 
REMARK    8  A    between atoms: C19_23  and  O2_24 
ROOT
HETATM    1  C1  UNL     1      30.099  -0.954  53.682  1.00  0.00     0.112 C 
HETATM    2  C2  UNL     1      28.756  -0.427  53.359  1.00  0.00    -0.105 C 
HETATM    3  C3  UNL     1      27.661  -0.017  53.090  1.00  0.00    -0.067 C 
ENDROOT
BRANCH   3   4
HETATM    4  C4  UNL     1      26.356   0.473  52.744  1.00  0.00     0.018 A 
HETATM    5  C5  UNL     1      26.293   1.615  51.973  1.00  0.00     0.020 A 
HETATM    6  C6  UNL     1      25.044   2.087  51.642  1.00  0.00     0.002 A 
HETATM    7  C7  UNL     1      23.854   1.534  52.002  1.00  0.00     0.014 A 
HETATM    8  C8  UNL     1      23.922   0.401  52.767  1.00  0.00    -0.005 A 
HETATM    9  C21 UNL     1      25.166  -0.123  53.133  1.00  0.00     0.034 A 
BRANCH   8  10
HETATM   10  C9  UNL     1      22.867  -0.454  53.307  1.00  0.00     0.079 C 
HETATM   11  N1  UNL     1      22.763  -1.574  53.986  1.00  0.00    -0.241 NA
HETATM   12  C10 UNL     1      21.523  -2.118  54.377  1.00  0.00     0.231 C 
HETATM   13  N2  UNL     1      20.288  -1.599  54.165  1.00  0.00    -0.231 NA
HETATM   14  C11 UNL     1      20.309  -0.322  53.471  1.00  0.00     0.327 A 
HETATM   15  C12 UNL     1      21.532  -0.179  52.687  1.00  0.00     0.039 A 
HETATM   16  C19 UNL     1      19.194  -0.025  52.634  1.00  0.00     0.119 A 
HETATM   17  C13 UNL     1      21.112   0.205  51.468  1.00  0.00     0.026 A 
HETATM   18  C14 UNL     1      19.659   0.305  51.418  1.00  0.00     0.000 A 
BRANCH  14  19
HETATM   19  N3  UNL     1      20.346   0.671  54.602  1.00  0.00     0.121 N 
HETATM   20  H8  UNL     1      20.095   0.100  55.435  1.00  0.00     0.317 HD
HETATM   21  H9  UNL     1      19.609   1.399  54.400  1.00  0.00     0.317 HD
ENDBRANCH  14  19
BRANCH  18  22
HETATM   22  C15 UNL     1      18.865   0.701  50.228  1.00  0.00     0.209 C 
BRANCH  22  23
HETATM   23  O1  UNL     1      18.403   2.018  50.391  1.00  0.00    -0.387 OA
BRANCH  23  24
HETATM   24  C16 UNL     1      18.968   2.783  49.384  1.00  0.00     0.167 C 
BRANCH  24  25
HETATM   25  C17 UNL     1      20.068   3.651  49.989  1.00  0.00     0.022 C 
HETATM   26  C18 UNL     1      19.961   5.060  49.458  1.00  0.00     0.007 C 
ENDBRANCH  24  25
ENDBRANCH  23  24
ENDBRANCH  22  23
ENDBRANCH  18  22
BRANCH  16  27
HETATM   27  O2  UNL     1      17.859  -0.071  53.019  1.00  0.00    -0.355 OA
HETATM   28  C20 UNL     1      17.062  -1.167  52.618  1.00  0.00     0.209 C 
ENDBRANCH  16  27
ENDBRANCH   8  10
ENDBRANCH   3   4
TORSDOF 8
ENDMDL
MODEL 7
REMARK VINA RESULT:      -7.1      3.500      4.968
REMARK  8 active torsions:
REMARK  status: ('A' for Active; 'I' for Inactive)
REMARK    1  A    between atoms: C3_3  and  C4_4 
REMARK    2  A    between atoms: C8_8  and  C9_9 
REMARK    3  A    between atoms: C11_13  and  N3_14 
REMARK    4  A    between atoms: C14_17  and  C15_18 
REMARK    5  A    between atoms: C15_18  and  O1_19 
REMARK    6  A    between atoms: O1_19  and  C16_20 
REMARK    7  A    between atoms: C16_20  and  C17_21 
REMARK    8  A    between atoms: C19_23  and  O2_24 
ROOT
HETATM    1  C1  UNL     1      20.602   6.343  49.566  1.00  0.00     0.112 C 
HETATM    2  C2  UNL     1      22.028   5.996  49.392  1.00  0.00    -0.105 C 
HETATM    3  C3  UNL     1      23.187   5.706  49.270  1.00  0.00    -0.067 C 
ENDROOT
BRANCH   3   4
HETATM    4  C4  UNL     1      24.578   5.379  49.137  1.00  0.00     0.018 A 
HETATM    5  C5  UNL     1      24.975   4.122  49.545  1.00  0.00     0.020 A 
HETATM    6  C6  UNL     1      26.308   3.807  49.419  1.00  0.00     0.002 A 
HETATM    7  C7  UNL     1      27.283   4.620  48.926  1.00  0.00     0.014 A 
HETATM    8  C8  UNL     1      26.885   5.865  48.522  1.00  0.00    -0.005 A 
HETATM    9  C21 UNL     1      25.540   6.238  48.628  1.00  0.00     0.034 A 
BRANCH   8  10
HETATM   10  C9  UNL     1      27.641   6.969  47.937  1.00  0.00     0.079 C 
HETATM   11  N1  UNL     1      27.448   7.947  47.081  1.00  0.00    -0.241 NA
HETATM   12  C10 UNL     1      28.445   8.889  46.757  1.00  0.00     0.231 C 
HETATM   13  N2  UNL     1      29.700   8.971  47.265  1.00  0.00    -0.231 NA
HETATM   14  C11 UNL     1      29.984   7.962  48.272  1.00  0.00     0.327 A 
HETATM   15  C12 UNL     1      29.121   6.799  48.096  1.00  0.00     0.039 A 
HETATM   16  C19 UNL     1      31.334   7.517  48.373  1.00  0.00     0.119 A 
HETATM   17  C13 UNL     1      29.958   5.747  48.123  1.00  0.00     0.026 A 
HETATM   18  C14 UNL     1      31.340   6.176  48.294  1.00  0.00     0.000 A 
BRANCH  14  19
HETATM   19  N3  UNL     1      29.603   8.654  49.554  1.00  0.00     0.121 N 
HETATM   20  H8  UNL     1      30.409   8.460  50.184  1.00  0.00     0.317 HD
HETATM   21  H9  UNL     1      28.722   8.191  49.906  1.00  0.00     0.317 HD
ENDBRANCH  14  19
BRANCH  18  22
HETATM   22  C15 UNL     1      32.518   5.275  48.365  1.00  0.00     0.209 C 
BRANCH  22  23
HETATM   23  O1  UNL     1      32.108   3.951  48.134  1.00  0.00    -0.387 OA
BRANCH  23  24
HETATM   24  C16 UNL     1      33.210   3.252  47.670  1.00  0.00     0.167 C 
BRANCH  24  25
HETATM   25  C17 UNL     1      33.967   4.133  46.681  1.00  0.00     0.022 C 
HETATM   26  C18 UNL     1      35.052   3.332  46.004  1.00  0.00     0.007 C 
ENDBRANCH  24  25
ENDBRANCH  23  24
ENDBRANCH  22  23
ENDBRANCH  18  22
BRANCH  16  27
HETATM   27  O2  UNL     1      32.447   8.336  48.529  1.00  0.00    -0.355 OA
HETATM   28  C20 UNL     1      33.157   8.760  47.383  1.00  0.00     0.209 C 
ENDBRANCH  16  27
ENDBRANCH   8  10
ENDBRANCH   3   4
TORSDOF 8
ENDMDL
MODEL 8
REMARK VINA RESULT:      -7.1      2.579      4.744
REMARK  8 active torsions:
REMARK  status: ('A' for Active; 'I' for Inactive)
REMARK    1  A    between atoms: C3_3  and  C4_4 
REMARK    2  A    between atoms: C8_8  and  C9_9 
REMARK    3  A    between atoms: C11_13  and  N3_14 
REMARK    4  A    between atoms: C14_17  and  C15_18 
REMARK    5  A    between atoms: C15_18  and  O1_19 
REMARK    6  A    between atoms: O1_19  and  C16_20 
REMARK    7  A    between atoms: C16_20  and  C17_21 
REMARK    8  A    between atoms: C19_23  and  O2_24 
ROOT
HETATM    1  C1  UNL     1      27.564  -0.661  52.887  1.00  0.00     0.112 C 
HETATM    2  C2  UNL     1      26.114  -0.466  53.096  1.00  0.00    -0.105 C 
HETATM    3  C3  UNL     1      24.940  -0.292  53.278  1.00  0.00    -0.067 C 
ENDROOT
BRANCH   3   4
HETATM    4  C4  UNL     1      23.539  -0.093  53.518  1.00  0.00     0.018 A 
HETATM    5  C5  UNL     1      22.918  -0.957  54.397  1.00  0.00     0.020 A 
HETATM    6  C6  UNL     1      21.575  -0.768  54.628  1.00  0.00     0.002 A 
HETATM    7  C7  UNL     1      20.791   0.195  54.070  1.00  0.00     0.014 A 
HETATM    8  C8  UNL     1      21.411   1.050  53.199  1.00  0.00    -0.005 A 
HETATM    9  C21 UNL     1      22.776   0.903  52.928  1.00  0.00     0.034 A 
BRANCH   8  10
HETATM   10  C9  UNL     1      20.896   2.191  52.447  1.00  0.00     0.079 C 
HETATM   11  N1  UNL     1      19.738   2.651  52.032  1.00  0.00    -0.241 NA
HETATM   12  C10 UNL     1      19.606   3.859  51.319  1.00  0.00     0.231 C 
HETATM   13  N2  UNL     1      20.588   4.731  50.981  1.00  0.00    -0.231 NA
HETATM   14  C11 UNL     1      21.904   4.333  51.456  1.00  0.00     0.327 A 
HETATM   15  C12 UNL     1      21.963   2.890  51.663  1.00  0.00     0.039 A 
HETATM   16  C19 UNL     1      23.020   4.727  50.663  1.00  0.00     0.119 A 
HETATM   17  C13 UNL     1      23.084   2.502  51.029  1.00  0.00     0.026 A 
HETATM   18  C14 UNL     1      23.754   3.633  50.400  1.00  0.00     0.000 A 
BRANCH  14  19
HETATM   19  N3  UNL     1      21.994   5.015  52.795  1.00  0.00     0.121 N 
HETATM   20  H8  UNL     1      23.003   5.258  52.876  1.00  0.00     0.317 HD
HETATM   21  H9  UNL     1      21.711   4.306  53.524  1.00  0.00     0.317 HD
ENDBRANCH  14  19
BRANCH  18  22
HETATM   22  C15 UNL     1      25.014   3.560  49.619  1.00  0.00     0.209 C 
BRANCH  22  23
HETATM   23  O1  UNL     1      25.939   4.483  50.135  1.00  0.00    -0.387 OA
BRANCH  23  24
HETATM   24  C16 UNL     1      26.382   5.261  49.078  1.00  0.00     0.167 C 
BRANCH  24  25
HETATM   25  C17 UNL     1      27.715   4.703  48.587  1.00  0.00     0.022 C 
HETATM   26  C18 UNL     1      28.672   5.835  48.304  1.00  0.00     0.007 C 
ENDBRANCH  24  25
ENDBRANCH  23  24
ENDBRANCH  22  23
ENDBRANCH  18  22
BRANCH  16  27
HETATM   27  O2  UNL     1      23.296   6.023  50.240  1.00  0.00    -0.355 OA
HETATM   28  C20 UNL     1      22.828   6.451  48.976  1.00  0.00     0.209 C 
ENDBRANCH  16  27
ENDBRANCH   8  10
ENDBRANCH   3   4
TORSDOF 8
ENDMDL
MODEL 9
REMARK VINA RESULT:      -7.0      3.329      7.366
REMARK  8 active torsions:
REMARK  status: ('A' for Active; 'I' for Inactive)
REMARK    1  A    between atoms: C3_3  and  C4_4 
REMARK    2  A    between atoms: C8_8  and  C9_9 
REMARK    3  A    between atoms: C11_13  and  N3_14 
REMARK    4  A    between atoms: C14_17  and  C15_18 
REMARK    5  A    between atoms: C15_18  and  O1_19 
REMARK    6  A    between atoms: O1_19  and  C16_20 
REMARK    7  A    between atoms: C16_20  and  C17_21 
REMARK    8  A    between atoms: C19_23  and  O2_24 
ROOT
HETATM    1  C1  UNL     1      22.264   9.228  48.790  1.00  0.00     0.112 C 
HETATM    2  C2  UNL     1      23.400   8.281  48.784  1.00  0.00    -0.105 C 
HETATM    3  C3  UNL     1      24.312   7.502  48.793  1.00  0.00    -0.067 C 
ENDROOT
BRANCH   3   4
HETATM    4  C4  UNL     1      25.412   6.579  48.825  1.00  0.00     0.018 A 
HETATM    5  C5  UNL     1      26.536   6.907  48.095  1.00  0.00     0.020 A 
HETATM    6  C6  UNL     1      27.590   6.025  48.124  1.00  0.00     0.002 A 
HETATM    7  C7  UNL     1      27.635   4.848  48.808  1.00  0.00     0.014 A 
HETATM    8  C8  UNL     1      26.518   4.527  49.531  1.00  0.00    -0.005 A 
HETATM    9  C21 UNL     1      25.417   5.390  49.537  1.00  0.00     0.034 A 
BRANCH   8  10
HETATM   10  C9  UNL     1      26.228   3.377  50.384  1.00  0.00     0.079 C 
HETATM   11  N1  UNL     1      26.887   2.446  51.035  1.00  0.00    -0.241 NA
HETATM   12  C10 UNL     1      26.250   1.463  51.818  1.00  0.00     0.231 C 
HETATM   13  N2  UNL     1      24.921   1.327  52.054  1.00  0.00    -0.231 NA
HETATM   14  C11 UNL     1      24.113   2.356  51.421  1.00  0.00     0.327 A 
HETATM   15  C12 UNL     1      24.806   2.921  50.267  1.00  0.00     0.039 A 
HETATM   16  C19 UNL     1      22.795   1.987  51.025  1.00  0.00     0.119 A 
HETATM   17  C13 UNL     1      23.898   2.887  49.275  1.00  0.00     0.026 A 
HETATM   18  C14 UNL     1      22.641   2.308  49.730  1.00  0.00     0.000 A 
BRANCH  14  19
HETATM   19  N3  UNL     1      24.022   3.413  52.490  1.00  0.00     0.121 N 
HETATM   20  H8  UNL     1      24.301   2.907  53.356  1.00  0.00     0.317 HD
HETATM   21  H9  UNL     1      23.014   3.722  52.535  1.00  0.00     0.317 HD
ENDBRANCH  14  19
BRANCH  18  22
HETATM   22  C15 UNL     1      21.428   2.120  48.894  1.00  0.00     0.209 C 
BRANCH  22  23
HETATM   23  O1  UNL     1      21.511   2.943  47.759  1.00  0.00    -0.387 OA
BRANCH  23  24
HETATM   24  C16 UNL     1      20.590   3.965  47.920  1.00  0.00     0.167 C 
BRANCH  24  25
HETATM   25  C17 UNL     1      21.328   5.300  47.872  1.00  0.00     0.022 C 
HETATM   26  C18 UNL     1      22.309   5.304  46.725  1.00  0.00     0.007 C 
ENDBRANCH  24  25
ENDBRANCH  23  24
ENDBRANCH  22  23
ENDBRANCH  18  22
BRANCH  16  27
HETATM   27  O2  UNL     1      21.839   1.397  51.845  1.00  0.00    -0.355 OA
HETATM   28  C20 UNL     1      21.735  -0.012  51.882  1.00  0.00     0.209 C 
ENDBRANCH  16  27
ENDBRANCH   8  10
ENDBRANCH   3   4
TORSDOF 8
ENDMDL
