MODEL 1
REMARK VINA RESULT:      -8.3      0.000      0.000
REMARK  1 active torsions:
REMARK  status: ('A' for Active; 'I' for Inactive)
REMARK    1  A    between atoms: C9_12  and  N3_13 
ROOT
HETATM    1  C1  UNL     1      22.400  -1.180  54.965  1.00  0.00     0.038 C 
HETATM    2  C2  UNL     1      23.431  -0.623  54.046  1.00  0.00    -0.006 C 
HETATM    3  C3  UNL     1      23.323   0.170  52.961  1.00  0.00     0.018 C 
HETATM    4  C4  UNL     1      24.629   0.483  52.340  1.00  0.00     0.085 C 
HETATM    5  C5  UNL     1      25.175   1.861  52.644  1.00  0.00     0.158 C 
HETATM    6 CL1  UNL     1      26.819   1.939  51.969  1.00  0.00    -0.116 Cl
HETATM    7  C6  UNL     1      24.383   2.923  52.078  1.00  0.00     0.133 C 
HETATM    8  N1  UNL     1      25.124   2.817  50.929  1.00  0.00    -0.231 NA
HETATM    9  C7  UNL     1      24.657   3.568  49.746  1.00  0.00     0.086 C 
HETATM   10  C8  UNL     1      24.606   4.686  48.957  1.00  0.00     0.150 C 
HETATM   11  N2  UNL     1      25.400   5.771  49.539  1.00  0.00    -0.251 NA
HETATM   12  C9  UNL     1      24.963   6.355  50.632  1.00  0.00     0.086 C 
HETATM   13  C10 UNL     1      24.031   6.635  51.819  1.00  0.00     0.175 C 
HETATM   14  C11 UNL     1      23.437   5.368  52.371  1.00  0.00     0.237 C 
HETATM   15  O1  UNL     1      22.895   5.174  53.291  1.00  0.00    -0.272 OA
HETATM   16  N4  UNL     1      23.279   3.962  52.059  1.00  0.00    -0.256 N 
HETATM   17  C12 UNL     1      22.332   3.061  51.644  1.00  0.00     0.160 C 
HETATM   18  C13 UNL     1      22.142   2.743  50.248  1.00  0.00     0.058 C 
HETATM   19  C14 UNL     1      23.325   2.959  49.219  1.00  0.00    -0.007 C 
HETATM   20  C15 UNL     1      23.083   2.669  47.987  1.00  0.00    -0.017 C 
HETATM   21  C16 UNL     1      21.912   2.103  47.321  1.00  0.00     0.037 C 
HETATM   22  S1  UNL     1      21.079   1.870  52.114  1.00  0.00     0.279 S 
HETATM   23  O2  UNL     1      20.348   1.471  50.928  1.00  0.00    -0.199 OA
HETATM   24  O3  UNL     1      20.067   2.355  53.071  1.00  0.00    -0.199 OA
HETATM   25  N5  UNL     1      21.913   0.455  52.749  1.00  0.00    -0.283 N 
HETATM   26  H18 UNL     1      21.258  -0.301  53.015  1.00  0.00     0.178 HD
ENDROOT
BRANCH  12  27
HETATM   27  N3  UNL     1      26.119   7.187  50.577  1.00  0.00    -0.290 NA
HETATM   28  H9  UNL     1      27.020   7.665  50.535  1.00  0.00     0.125 HD
HETATM   29  H10 UNL     1      27.115   7.450  50.530  1.00  0.00     0.125 HD
ENDBRANCH  12  27
TORSDOF 1
ENDMDL
MODEL 2
REMARK VINA RESULT:      -8.1      3.152      5.880
REMARK  1 active torsions:
REMARK  status: ('A' for Active; 'I' for Inactive)
REMARK    1  A    between atoms: C9_12  and  N3_13 
ROOT
HETATM    1  C1  UNL     1      20.155   7.564  47.020  1.00  0.00     0.038 C 
HETATM    2  C2  UNL     1      20.900   6.275  47.071  1.00  0.00    -0.006 C 
HETATM    3  C3  UNL     1      22.110   5.965  47.579  1.00  0.00     0.018 C 
HETATM    4  C4  UNL     1      22.462   4.538  47.406  1.00  0.00     0.085 C 
HETATM    5  C5  UNL     1      22.305   3.680  48.643  1.00  0.00     0.158 C 
HETATM    6 CL1  UNL     1      22.586   1.992  48.154  1.00  0.00    -0.116 Cl
HETATM    7  C6  UNL     1      23.227   4.025  49.695  1.00  0.00     0.133 C 
HETATM    8  N1  UNL     1      24.133   3.161  49.137  1.00  0.00    -0.231 NA
HETATM    9  C7  UNL     1      25.511   3.185  49.668  1.00  0.00     0.086 C 
HETATM   10  C8  UNL     1      26.486   2.778  50.540  1.00  0.00     0.150 C 
HETATM   11  N2  UNL     1      25.951   1.817  51.508  1.00  0.00    -0.251 NA
HETATM   12  C9  UNL     1      25.118   2.248  52.428  1.00  0.00     0.086 C 
HETATM   13  C10 UNL     1      24.251   3.248  53.204  1.00  0.00     0.175 C 
HETATM   14  C11 UNL     1      23.623   4.266  52.292  1.00  0.00     0.237 C 
HETATM   15  O1  UNL     1      22.832   4.989  52.464  1.00  0.00    -0.272 OA
HETATM   16  N4  UNL     1      23.693   4.765  50.933  1.00  0.00    -0.256 N 
HETATM   17  C12 UNL     1      24.138   5.845  50.215  1.00  0.00     0.160 C 
HETATM   18  C13 UNL     1      25.455   5.878  49.623  1.00  0.00     0.058 C 
HETATM   19  C14 UNL     1      26.206   4.525  49.291  1.00  0.00    -0.007 C 
HETATM   20  C15 UNL     1      27.384   4.626  48.777  1.00  0.00    -0.017 C 
HETATM   21  C16 UNL     1      28.183   5.779  48.367  1.00  0.00     0.037 C 
HETATM   22  S1  UNL     1      23.754   7.448  49.513  1.00  0.00     0.279 S 
HETATM   23  O2  UNL     1      24.979   8.049  49.027  1.00  0.00    -0.199 OA
HETATM   24  O3  UNL     1      23.163   8.426  50.446  1.00  0.00    -0.199 OA
HETATM   25  N5  UNL     1      22.689   7.176  48.136  1.00  0.00    -0.283 N 
HETATM   26  H18 UNL     1      22.445   8.056  47.649  1.00  0.00     0.178 HD
ENDROOT
BRANCH  12  27
HETATM   27  N3  UNL     1      25.062   0.910  52.917  1.00  0.00    -0.290 NA
HETATM   28  H9  UNL     1      24.899  -0.057  53.200  1.00  0.00     0.125 HD
HETATM   29  H10 UNL     1      24.699  -0.042  53.077  1.00  0.00     0.125 HD
ENDBRANCH  12  27
TORSDOF 1
ENDMDL
MODEL 3
REMARK VINA RESULT:      -7.3     10.607     12.377
REMARK  1 active torsions:
REMARK  status: ('A' for Active; 'I' for Inactive)
REMARK    1  A    between atoms: C9_12  and  N3_13 
ROOT
HETATM    1  C1  UNL     1      28.711  11.026  45.294  1.00  0.00     0.038 C 
HETATM    2  C2  UNL     1      28.964   9.663  45.839  1.00  0.00    -0.006 C 
HETATM    3  C3  UNL     1      29.942   8.771  45.590  1.00  0.00     0.018 C 
HETATM    4  C4  UNL     1      29.799   7.520  46.368  1.00  0.00     0.085 C 
HETATM    5  C5  UNL     1      30.713   7.398  47.568  1.00  0.00     0.158 C 
HETATM    6 CL1  UNL     1      30.232   5.932  48.453  1.00  0.00    -0.116 Cl
HETATM    7  C6  UNL     1      32.106   7.297  47.212  1.00  0.00     0.133 C 
HETATM    8  N1  UNL     1      31.948   5.938  47.119  1.00  0.00    -0.231 NA
HETATM    9  C7  UNL     1      33.063   5.162  46.540  1.00  0.00     0.086 C 
HETATM   10  C8  UNL     1      34.240   4.467  46.634  1.00  0.00     0.150 C 
HETATM   11  N2  UNL     1      34.730   4.458  48.014  1.00  0.00    -0.251 NA
HETATM   12  C9  UNL     1      35.193   5.577  48.525  1.00  0.00     0.086 C 
HETATM   13  C10 UNL     1      35.576   7.062  48.582  1.00  0.00     0.175 C 
HETATM   14  C11 UNL     1      34.594   7.920  47.832  1.00  0.00     0.237 C 
HETATM   15  O1  UNL     1      34.452   8.996  47.813  1.00  0.00    -0.272 OA
HETATM   16  N4  UNL     1      33.492   7.825  46.896  1.00  0.00    -0.256 N 
HETATM   17  C12 UNL     1      33.191   8.046  45.576  1.00  0.00     0.160 C 
HETATM   18  C13 UNL     1      33.294   7.001  44.585  1.00  0.00     0.058 C 
HETATM   19  C14 UNL     1      33.207   5.483  45.024  1.00  0.00    -0.007 C 
HETATM   20  C15 UNL     1      33.322   4.602  44.090  1.00  0.00    -0.017 C 
HETATM   21  C16 UNL     1      33.465   4.716  42.640  1.00  0.00     0.037 C 
HETATM   22  S1  UNL     1      32.572   9.190  44.345  1.00  0.00     0.279 S 
HETATM   23  O2  UNL     1      32.789   8.621  43.030  1.00  0.00    -0.199 OA
HETATM   24  O3  UNL     1      33.220  10.516  44.325  1.00  0.00    -0.199 OA
HETATM   25  N5  UNL     1      30.837   9.347  44.599  1.00  0.00    -0.283 N 
HETATM   26  H18 UNL     1      30.392   9.970  43.901  1.00  0.00     0.178 HD
ENDROOT
BRANCH  12  27
HETATM   27  N3  UNL     1      35.446   4.853  49.726  1.00  0.00    -0.290 NA
HETATM   28  H9  UNL     1      35.596   4.451  50.652  1.00  0.00     0.125 HD
HETATM   29  H10 UNL     1      35.535   4.663  50.736  1.00  0.00     0.125 HD
ENDBRANCH  12  27
TORSDOF 1
ENDMDL
MODEL 4
REMARK VINA RESULT:      -7.0      5.704      7.731
REMARK  1 active torsions:
REMARK  status: ('A' for Active; 'I' for Inactive)
REMARK    1  A    between atoms: C9_12  and  N3_13 
ROOT
HETATM    1  C1  UNL     1      26.086   3.599  50.335  1.00  0.00     0.038 C 
HETATM    2  C2  UNL     1      27.172   4.199  49.512  1.00  0.00    -0.006 C 
HETATM    3  C3  UNL     1      27.163   5.222  48.633  1.00  0.00     0.018 C 
HETATM    4  C4  UNL     1      28.490   5.482  48.033  1.00  0.00     0.085 C 
HETATM    5  C5  UNL     1      29.236   6.669  48.605  1.00  0.00     0.158 C 
HETATM    6 CL1  UNL     1      30.862   6.667  47.885  1.00  0.00    -0.116 Cl
HETATM    7  C6  UNL     1      28.597   7.930  48.323  1.00  0.00     0.133 C 
HETATM    8  N1  UNL     1      29.297   7.981  47.144  1.00  0.00    -0.231 NA
HETATM    9  C7  UNL     1      28.924   9.034  46.178  1.00  0.00     0.086 C 
HETATM   10  C8  UNL     1      29.023  10.296  45.656  1.00  0.00     0.150 C 
HETATM   11  N2  UNL     1      29.976  11.103  46.422  1.00  0.00    -0.251 NA
HETATM   12  C9  UNL     1      29.646  11.484  47.636  1.00  0.00     0.086 C 
HETATM   13  C10 UNL     1      28.784  11.618  48.899  1.00  0.00     0.175 C 
HETATM   14  C11 UNL     1      28.021  10.354  49.188  1.00  0.00     0.237 C 
HETATM   15  O1  UNL     1      27.472  10.036  50.069  1.00  0.00    -0.272 OA
HETATM   16  N4  UNL     1      27.656   9.088  48.584  1.00  0.00    -0.256 N 
HETATM   17  C12 UNL     1      26.581   8.442  48.028  1.00  0.00     0.160 C 
HETATM   18  C13 UNL     1      26.324   8.473  46.608  1.00  0.00     0.058 C 
HETATM   19  C14 UNL     1      27.510   8.748  45.596  1.00  0.00    -0.007 C 
HETATM   20  C15 UNL     1      27.208   8.776  44.343  1.00  0.00    -0.017 C 
HETATM   21  C16 UNL     1      25.956   8.540  43.626  1.00  0.00     0.037 C 
HETATM   22  S1  UNL     1      25.177   7.361  48.286  1.00  0.00     0.279 S 
HETATM   23  O2  UNL     1      24.376   7.341  47.078  1.00  0.00    -0.199 OA
HETATM   24  O3  UNL     1      24.261   7.756  49.374  1.00  0.00    -0.199 OA
HETATM   25  N5  UNL     1      25.806   5.739  48.557  1.00  0.00    -0.283 N 
HETATM   26  H18 UNL     1      25.052   5.040  48.682  1.00  0.00     0.178 HD
ENDROOT
BRANCH  12  27
HETATM   27  N3  UNL     1      30.909  12.140  47.708  1.00  0.00    -0.290 NA
HETATM   28  H9  UNL     1      31.793  12.614  47.897  1.00  0.00     0.125 HD
HETATM   29  H10 UNL     1      31.730  12.605  48.124  1.00  0.00     0.125 HD
ENDBRANCH  12  27
TORSDOF 1
ENDMDL
MODEL 5
REMARK VINA RESULT:      -7.0      2.848      5.286
REMARK  1 active torsions:
REMARK  status: ('A' for Active; 'I' for Inactive)
REMARK    1  A    between atoms: C9_12  and  N3_13 
ROOT
HETATM    1  C1  UNL     1      21.014   7.445  48.382  1.00  0.00     0.038 C 
HETATM    2  C2  UNL     1      21.380   6.911  49.724  1.00  0.00    -0.006 C 
HETATM    3  C3  UNL     1      21.559   5.649  50.162  1.00  0.00     0.018 C 
HETATM    4  C4  UNL     1      21.922   5.580  51.595  1.00  0.00     0.085 C 
HETATM    5  C5  UNL     1      23.387   5.328  51.878  1.00  0.00     0.158 C 
HETATM    6 CL1  UNL     1      23.620   5.483  53.635  1.00  0.00    -0.116 Cl
HETATM    7  C6  UNL     1      23.831   4.022  51.458  1.00  0.00     0.133 C 
HETATM    8  N1  UNL     1      23.448   3.537  52.682  1.00  0.00    -0.231 NA
HETATM    9  C7  UNL     1      23.448   2.071  52.862  1.00  0.00     0.086 C 
HETATM   10  C8  UNL     1      24.050   0.885  53.192  1.00  0.00     0.150 C 
HETATM   11  N2  UNL     1      25.453   1.097  53.555  1.00  0.00    -0.251 NA
HETATM   12  C9  UNL     1      26.306   1.424  52.610  1.00  0.00     0.086 C 
HETATM   13  C10 UNL     1      26.800   1.768  51.199  1.00  0.00     0.175 C 
HETATM   14  C11 UNL     1      25.788   2.580  50.437  1.00  0.00     0.237 C 
HETATM   15  O1  UNL     1      25.870   3.135  49.508  1.00  0.00    -0.272 OA
HETATM   16  N4  UNL     1      24.404   3.005  50.492  1.00  0.00    -0.256 N 
HETATM   17  C12 UNL     1      23.188   2.758  49.909  1.00  0.00     0.160 C 
HETATM   18  C13 UNL     1      22.257   1.802  50.461  1.00  0.00     0.058 C 
HETATM   19  C14 UNL     1      22.326   1.427  51.997  1.00  0.00    -0.007 C 
HETATM   20  C15 UNL     1      21.475   0.556  52.421  1.00  0.00    -0.017 C 
HETATM   21  C16 UNL     1      20.374  -0.145  51.763  1.00  0.00     0.037 C 
HETATM   22  S1  UNL     1      22.022   3.190  48.619  1.00  0.00     0.279 S 
HETATM   23  O2  UNL     1      20.961   2.202  48.601  1.00  0.00    -0.199 OA
HETATM   24  O3  UNL     1      22.570   3.223  47.250  1.00  0.00    -0.199 OA
HETATM   25  N5  UNL     1      21.318   4.746  49.049  1.00  0.00    -0.283 N 
HETATM   26  H18 UNL     1      20.602   5.055  48.367  1.00  0.00     0.178 HD
ENDROOT
BRANCH  12  27
HETATM   27  N3  UNL     1      27.317   1.444  53.614  1.00  0.00    -0.290 NA
HETATM   28  H9  UNL     1      28.013   1.595  54.345  1.00  0.00     0.125 HD
HETATM   29  H10 UNL     1      27.943   1.819  54.343  1.00  0.00     0.125 HD
ENDBRANCH  12  27
TORSDOF 1
ENDMDL
MODEL 6
REMARK VINA RESULT:      -7.0      6.667     10.047
REMARK  1 active torsions:
REMARK  status: ('A' for Active; 'I' for Inactive)
REMARK    1  A    between atoms: C9_12  and  N3_13 
ROOT
HETATM    1  C1  UNL     1      30.212  13.147  45.461  1.00  0.00     0.038 C 
HETATM    2  C2  UNL     1      29.434  11.892  45.268  1.00  0.00    -0.006 C 
HETATM    3  C3  UNL     1      29.461  10.716  45.927  1.00  0.00     0.018 C 
HETATM    4  C4  UNL     1      28.500   9.727  45.388  1.00  0.00     0.085 C 
HETATM    5  C5  UNL     1      27.233   9.552  46.196  1.00  0.00     0.158 C 
HETATM    6 CL1  UNL     1      26.158   8.482  45.267  1.00  0.00    -0.116 Cl
HETATM    7  C6  UNL     1      27.463   8.974  47.496  1.00  0.00     0.133 C 
HETATM    8  N1  UNL     1      27.344   7.732  46.927  1.00  0.00    -0.231 NA
HETATM    9  C7  UNL     1      27.704   6.566  47.758  1.00  0.00     0.086 C 
HETATM   10  C8  UNL     1      27.411   5.578  48.660  1.00  0.00     0.150 C 
HETATM   11  N2  UNL     1      26.015   5.668  49.096  1.00  0.00    -0.251 NA
HETATM   12  C9  UNL     1      25.661   6.668  49.871  1.00  0.00     0.086 C 
HETATM   13  C10 UNL     1      25.820   7.954  50.694  1.00  0.00     0.175 C 
HETATM   14  C11 UNL     1      26.771   8.919  50.041  1.00  0.00     0.237 C 
HETATM   15  O1  UNL     1      26.977   9.966  50.240  1.00  0.00    -0.272 OA
HETATM   16  N4  UNL     1      27.758   8.995  48.982  1.00  0.00    -0.256 N 
HETATM   17  C12 UNL     1      29.115   9.057  48.791  1.00  0.00     0.160 C 
HETATM   18  C13 UNL     1      29.911   7.870  48.586  1.00  0.00     0.058 C 
HETATM   19  C14 UNL     1      29.237   6.553  48.024  1.00  0.00    -0.007 C 
HETATM   20  C15 UNL     1      30.002   5.526  47.879  1.00  0.00    -0.017 C 
HETATM   21  C16 UNL     1      31.437   5.331  48.080  1.00  0.00     0.037 C 
HETATM   22  S1  UNL     1      30.560  10.095  48.582  1.00  0.00     0.279 S 
HETATM   23  O2  UNL     1      31.744   9.261  48.637  1.00  0.00    -0.199 OA
HETATM   24  O3  UNL     1      30.748  11.138  49.609  1.00  0.00    -0.199 OA
HETATM   25  N5  UNL     1      30.464  10.810  46.975  1.00  0.00    -0.283 N 
HETATM   26  H18 UNL     1      31.285  11.403  46.759  1.00  0.00     0.178 HD
ENDROOT
BRANCH  12  27
HETATM   27  N3  UNL     1      24.343   6.128  49.865  1.00  0.00    -0.290 NA
HETATM   28  H9  UNL     1      23.435   5.675  49.976  1.00  0.00     0.125 HD
HETATM   29  H10 UNL     1      23.526   5.579  50.172  1.00  0.00     0.125 HD
ENDBRANCH  12  27
TORSDOF 1
ENDMDL
MODEL 7
REMARK VINA RESULT:      -6.9      8.079     10.867
REMARK  1 active torsions:
REMARK  status: ('A' for Active; 'I' for Inactive)
REMARK    1  A    between atoms: C9_12  and  N3_13 
ROOT
HETATM    1  C1  UNL     1      29.823  13.047  48.485  1.00  0.00     0.038 C 
HETATM    2  C2  UNL     1      30.539  11.801  48.876  1.00  0.00    -0.006 C 
HETATM    3  C3  UNL     1      30.283  10.505  48.612  1.00  0.00     0.018 C 
HETATM    4  C4  UNL     1      31.274   9.584  49.212  1.00  0.00     0.085 C 
HETATM    5  C5  UNL     1      32.306   9.032  48.253  1.00  0.00     0.158 C 
HETATM    6 CL1  UNL     1      33.493   8.125  49.219  1.00  0.00    -0.116 Cl
HETATM    7  C6  UNL     1      31.745   8.157  47.255  1.00  0.00     0.133 C 
HETATM    8  N1  UNL     1      31.909   7.113  48.127  1.00  0.00    -0.231 NA
HETATM    9  C7  UNL     1      31.290   5.821  47.766  1.00  0.00     0.086 C 
HETATM   10  C8  UNL     1      31.301   4.596  47.155  1.00  0.00     0.150 C 
HETATM   11  N2  UNL     1      32.561   4.382  46.439  1.00  0.00    -0.251 NA
HETATM   12  C9  UNL     1      32.792   5.079  45.349  1.00  0.00     0.086 C 
HETATM   13  C10 UNL     1      32.534   6.102  44.235  1.00  0.00     0.175 C 
HETATM   14  C11 UNL     1      31.825   7.323  44.753  1.00  0.00     0.237 C 
HETATM   15  O1  UNL     1      31.649   8.294  44.301  1.00  0.00    -0.272 OA
HETATM   16  N4  UNL     1      31.116   7.811  45.919  1.00  0.00    -0.256 N 
HETATM   17  C12 UNL     1      29.848   8.099  46.354  1.00  0.00     0.160 C 
HETATM   18  C13 UNL     1      29.043   7.126  47.055  1.00  0.00     0.058 C 
HETATM   19  C14 UNL     1      29.739   5.935  47.831  1.00  0.00    -0.007 C 
HETATM   20  C15 UNL     1      28.962   5.095  48.423  1.00  0.00    -0.017 C 
HETATM   21  C16 UNL     1      27.510   5.041  48.582  1.00  0.00     0.037 C 
HETATM   22  S1  UNL     1      28.562   9.333  46.536  1.00  0.00     0.279 S 
HETATM   23  O2  UNL     1      27.345   8.677  46.968  1.00  0.00    -0.199 OA
HETATM   24  O3  UNL     1      28.212  10.073  45.308  1.00  0.00    -0.199 OA
HETATM   25  N5  UNL     1      29.074  10.439  47.808  1.00  0.00    -0.283 N 
HETATM   26  H18 UNL     1      28.366  11.170  48.001  1.00  0.00     0.178 HD
ENDROOT
BRANCH  12  27
HETATM   27  N3  UNL     1      34.038   4.394  45.248  1.00  0.00    -0.290 NA
HETATM   28  H9  UNL     1      34.930   3.942  45.042  1.00  0.00     0.125 HD
HETATM   29  H10 UNL     1      34.901   4.023  44.823  1.00  0.00     0.125 HD
ENDBRANCH  12  27
TORSDOF 1
ENDMDL
MODEL 8
REMARK VINA RESULT:      -6.9      3.166      5.207
REMARK  1 active torsions:
REMARK  status: ('A' for Active; 'I' for Inactive)
REMARK    1  A    between atoms: C9_12  and  N3_13 
ROOT
HETATM    1  C1  UNL     1      27.288   1.232  52.901  1.00  0.00     0.038 C 
HETATM    2  C2  UNL     1      25.848   1.585  53.045  1.00  0.00    -0.006 C 
HETATM    3  C3  UNL     1      25.095   2.520  52.432  1.00  0.00     0.018 C 
HETATM    4  C4  UNL     1      23.687   2.521  52.889  1.00  0.00     0.085 C 
HETATM    5  C5  UNL     1      22.702   1.863  51.948  1.00  0.00     0.158 C 
HETATM    6 CL1  UNL     1      21.132   1.803  52.782  1.00  0.00    -0.116 Cl
HETATM    7  C6  UNL     1      22.547   2.571  50.703  1.00  0.00     0.133 C 
HETATM    8  N1  UNL     1      21.568   3.328  51.295  1.00  0.00    -0.231 NA
HETATM    9  C7  UNL     1      21.071   4.502  50.549  1.00  0.00     0.086 C 
HETATM   10  C8  UNL     1      20.231   5.107  49.653  1.00  0.00     0.150 C 
HETATM   11  N2  UNL     1      19.315   4.132  49.057  1.00  0.00    -0.251 NA
HETATM   12  C9  UNL     1      19.799   3.248  48.213  1.00  0.00     0.086 C 
HETATM   13  C10 UNL     1      20.852   2.513  47.372  1.00  0.00     0.175 C 
HETATM   14  C11 UNL     1      22.164   2.400  48.098  1.00  0.00     0.237 C 
HETATM   15  O1  UNL     1      23.048   1.806  47.890  1.00  0.00    -0.272 OA
HETATM   16  N4  UNL     1      22.863   2.912  49.260  1.00  0.00    -0.256 N 
HETATM   17  C12 UNL     1      23.871   3.776  49.603  1.00  0.00     0.160 C 
HETATM   18  C13 UNL     1      23.612   5.156  49.938  1.00  0.00     0.058 C 
HETATM   19  C14 UNL     1      22.182   5.588  50.461  1.00  0.00    -0.007 C 
HETATM   20  C15 UNL     1      22.014   6.838  50.727  1.00  0.00    -0.017 C 
HETATM   21  C16 UNL     1      22.925   7.981  50.699  1.00  0.00     0.037 C 
HETATM   22  S1  UNL     1      25.617   3.994  49.943  1.00  0.00     0.279 S 
HETATM   23  O2  UNL     1      25.896   5.412  50.051  1.00  0.00    -0.199 OA
HETATM   24  O3  UNL     1      26.535   3.476  48.911  1.00  0.00    -0.199 OA
HETATM   25  N5  UNL     1      25.945   3.247  51.504  1.00  0.00    -0.283 N 
HETATM   26  H18 UNL     1      26.933   3.359  51.793  1.00  0.00     0.178 HD
ENDROOT
BRANCH  12  27
HETATM   27  N3  UNL     1      18.475   2.734  48.086  1.00  0.00    -0.290 NA
HETATM   28  H9  UNL     1      17.487   2.500  47.987  1.00  0.00     0.125 HD
HETATM   29  H10 UNL     1      17.450   2.732  47.974  1.00  0.00     0.125 HD
ENDBRANCH  12  27
TORSDOF 1
ENDMDL
MODEL 9
REMARK VINA RESULT:      -6.6     22.783     24.473
REMARK  1 active torsions:
REMARK  status: ('A' for Active; 'I' for Inactive)
REMARK    1  A    between atoms: C9_12  and  N3_13 
ROOT
HETATM    1  C1  UNL     1      34.879  -6.904  68.161  1.00  0.00     0.038 C 
HETATM    2  C2  UNL     1      35.614  -5.955  69.043  1.00  0.00    -0.006 C 
HETATM    3  C3  UNL     1      36.905  -5.568  69.056  1.00  0.00     0.018 C 
HETATM    4  C4  UNL     1      37.206  -4.590  70.125  1.00  0.00     0.085 C 
HETATM    5  C5  UNL     1      37.325  -3.152  69.671  1.00  0.00     0.158 C 
HETATM    6 CL1  UNL     1      37.486  -2.148  71.130  1.00  0.00    -0.116 Cl
HETATM    7  C6  UNL     1      38.458  -2.919  68.811  1.00  0.00     0.133 C 
HETATM    8  N1  UNL     1      39.216  -2.691  69.931  1.00  0.00    -0.231 NA
HETATM    9  C7  UNL     1      40.677  -2.577  69.751  1.00  0.00     0.086 C 
HETATM   10  C8  UNL     1      41.821  -1.865  69.501  1.00  0.00     0.150 C 
HETATM   11  N2  UNL     1      41.511  -0.455  69.249  1.00  0.00    -0.251 NA
HETATM   12  C9  UNL     1      40.904  -0.134  68.129  1.00  0.00     0.086 C 
HETATM   13  C10 UNL     1      40.233  -0.345  66.765  1.00  0.00     0.175 C 
HETATM   14  C11 UNL     1      39.421  -1.610  66.733  1.00  0.00     0.237 C 
HETATM   15  O1  UNL     1      38.690  -1.974  66.018  1.00  0.00    -0.272 OA
HETATM   16  N4  UNL     1      39.189  -2.826  67.487  1.00  0.00    -0.256 N 
HETATM   17  C12 UNL     1      39.467  -4.169  67.457  1.00  0.00     0.160 C 
HETATM   18  C13 UNL     1      40.619  -4.725  68.126  1.00  0.00     0.058 C 
HETATM   19  C14 UNL     1      41.275  -3.955  69.344  1.00  0.00    -0.007 C 
HETATM   20  C15 UNL     1      42.310  -4.500  69.885  1.00  0.00    -0.017 C 
HETATM   21  C16 UNL     1      43.001  -5.763  69.636  1.00  0.00     0.037 C 
HETATM   22  S1  UNL     1      38.940  -5.804  66.948  1.00  0.00     0.279 S 
HETATM   23  O2  UNL     1      40.029  -6.734  67.171  1.00  0.00    -0.199 OA
HETATM   24  O3  UNL     1      38.574  -5.940  65.525  1.00  0.00    -0.199 OA
HETATM   25  N5  UNL     1      37.597  -6.269  67.987  1.00  0.00    -0.283 N 
HETATM   26  H18 UNL     1      37.252  -7.224  67.780  1.00  0.00     0.178 HD
ENDROOT
BRANCH  12  27
HETATM   27  N3  UNL     1      40.954   1.223  68.562  1.00  0.00    -0.290 NA
HETATM   28  H9  UNL     1      41.110   2.161  68.932  1.00  0.00     0.125 HD
HETATM   29  H10 UNL     1      41.310   2.074  69.021  1.00  0.00     0.125 HD
ENDBRANCH  12  27
TORSDOF 1
ENDMDL
