MODEL 1
REMARK VINA RESULT:      -7.7      0.000      0.000
REMARK  8 active torsions:
REMARK  status: ('A' for Active; 'I' for Inactive)
REMARK    1  A    between atoms: C2_2  and  C3_3 
REMARK    2  A    between atoms: C4_4  and  C5_5 
REMARK    3  A    between atoms: C5_5  and  N1_6 
REMARK    4  A    between atoms: N1_6  and  C6_7 
REMARK    5  A    between atoms: C9_14  and  N4_15 
REMARK    6  A    between atoms: N4_15  and  C10_16 
REMARK    7  A    between atoms: C10_16  and  C11_17 
REMARK    8  A    between atoms: C10_16  and  C13_19 
ROOT
HETATM    1  C3  UNL     1      21.860   0.522  51.947  1.00  0.00    -0.027 A 
HETATM    2  C4  UNL     1      20.482   0.484  51.780  1.00  0.00     0.010 A 
HETATM    3  S1  UNL     1      19.824  -0.410  53.184  1.00  0.00    -0.072 SA
HETATM    4  C7  UNL     1      21.522  -0.677  53.921  1.00  0.00     0.114 A 
HETATM    5  N2  UNL     1      21.758  -1.347  55.084  1.00  0.00    -0.234 NA
HETATM    6  C8  UNL     1      23.032  -1.454  55.458  1.00  0.00     0.236 A 
HETATM    7  N3  UNL     1      23.887  -0.885  54.629  1.00  0.00    -0.224 NA
HETATM    8  C9  UNL     1      23.658  -0.233  53.494  1.00  0.00     0.139 A 
HETATM    9  C19 UNL     1      22.374  -0.070  53.032  1.00  0.00     0.053 A 
ENDROOT
BRANCH   8  10
HETATM   10  N4  UNL     1      24.820   0.189  52.783  1.00  0.00    -0.365 N 
HETATM   11  H11 UNL     1      25.154   0.155  51.811  1.00  0.00     0.162 HD
BRANCH  10  12
HETATM   12  C10 UNL     1      25.921   0.818  53.478  1.00  0.00     0.116 C 
BRANCH  12  13
HETATM   13  C11 UNL     1      26.314   2.141  52.820  1.00  0.00     0.025 C 
HETATM   14  C12 UNL     1      26.395   2.040  51.321  1.00  0.00     0.007 C 
ENDBRANCH  12  13
BRANCH  12  15
HETATM   15  C13 UNL     1      27.147  -0.011  53.417  1.00  0.00    -0.036 A 
HETATM   16  C14 UNL     1      28.223   0.674  54.000  1.00  0.00     0.009 A 
HETATM   17  C15 UNL     1      29.484   0.120  54.067  1.00  0.00     0.001 A 
HETATM   18  C16 UNL     1      29.691  -1.159  53.540  1.00  0.00     0.000 A 
HETATM   19  C17 UNL     1      28.631  -1.812  52.976  1.00  0.00     0.001 A 
HETATM   20  C18 UNL     1      27.367  -1.257  52.907  1.00  0.00     0.009 A 
ENDBRANCH  12  15
ENDBRANCH  10  12
ENDBRANCH   8  10
BRANCH   1  21
HETATM   21  C2  UNL     1      22.536   1.266  50.860  1.00  0.00     0.036 C 
HETATM   22  C1  UNL     1      22.711   2.705  51.288  1.00  0.00     0.010 C 
ENDBRANCH   1  21
BRANCH   2  23
HETATM   23  C5  UNL     1      19.572   1.009  50.734  1.00  0.00     0.168 C 
BRANCH  23  24
HETATM   24  N1  UNL     1      18.405   1.616  51.310  1.00  0.00    -0.363 N 
HETATM   25  H8  UNL     1      17.575   1.014  51.568  1.00  0.00     0.162 HD
BRANCH  24  26
HETATM   26  C6  UNL     1      18.240   2.983  51.581  1.00  0.00     0.348 C 
HETATM   27  O1  UNL     1      19.209   3.642  52.012  1.00  0.00    -0.284 OA
ENDBRANCH  24  26
ENDBRANCH  23  24
ENDBRANCH   2  23
TORSDOF 8
ENDMDL
MODEL 2
REMARK VINA RESULT:      -7.6      3.753      6.536
REMARK  8 active torsions:
REMARK  status: ('A' for Active; 'I' for Inactive)
REMARK    1  A    between atoms: C2_2  and  C3_3 
REMARK    2  A    between atoms: C4_4  and  C5_5 
REMARK    3  A    between atoms: C5_5  and  N1_6 
REMARK    4  A    between atoms: N1_6  and  C6_7 
REMARK    5  A    between atoms: C9_14  and  N4_15 
REMARK    6  A    between atoms: N4_15  and  C10_16 
REMARK    7  A    between atoms: C10_16  and  C11_17 
REMARK    8  A    between atoms: C10_16  and  C13_19 
ROOT
HETATM    1  C3  UNL     1      25.403   1.180  52.210  1.00  0.00    -0.027 A 
HETATM    2  C4  UNL     1      25.497  -0.085  52.776  1.00  0.00     0.010 A 
HETATM    3  S1  UNL     1      23.864  -0.492  53.384  1.00  0.00    -0.072 SA
HETATM    4  C7  UNL     1      23.147   1.137  52.811  1.00  0.00     0.114 A 
HETATM    5  N2  UNL     1      21.847   1.506  52.980  1.00  0.00    -0.234 NA
HETATM    6  C8  UNL     1      21.508   2.709  52.519  1.00  0.00     0.236 A 
HETATM    7  N3  UNL     1      22.502   3.372  51.961  1.00  0.00    -0.224 NA
HETATM    8  C9  UNL     1      23.771   3.014  51.796  1.00  0.00     0.139 A 
HETATM    9  C19 UNL     1      24.210   1.788  52.237  1.00  0.00     0.053 A 
ENDROOT
BRANCH   8  10
HETATM   10  N4  UNL     1      24.621   4.006  51.226  1.00  0.00    -0.365 N 
HETATM   11  H11 UNL     1      25.390   4.607  51.550  1.00  0.00     0.162 HD
BRANCH  10  12
HETATM   12  C10 UNL     1      24.463   4.407  49.845  1.00  0.00     0.116 C 
BRANCH  12  13
HETATM   13  C11 UNL     1      24.074   3.223  48.961  1.00  0.00     0.025 C 
HETATM   14  C12 UNL     1      22.743   3.419  48.285  1.00  0.00     0.007 C 
ENDBRANCH  12  13
BRANCH  12  15
HETATM   15  C13 UNL     1      25.737   4.902  49.273  1.00  0.00    -0.036 A 
HETATM   16  C14 UNL     1      25.577   6.210  48.797  1.00  0.00     0.009 A 
HETATM   17  C15 UNL     1      26.616   6.901  48.210  1.00  0.00     0.001 A 
HETATM   18  C16 UNL     1      27.863   6.276  48.091  1.00  0.00     0.000 A 
HETATM   19  C17 UNL     1      28.001   5.000  48.562  1.00  0.00     0.001 A 
HETATM   20  C18 UNL     1      26.959   4.307  49.149  1.00  0.00     0.009 A 
ENDBRANCH  12  15
ENDBRANCH  10  12
ENDBRANCH   8  10
BRANCH   1  21
HETATM   21  C2  UNL     1      26.689   1.634  51.635  1.00  0.00     0.036 C 
HETATM   22  C1  UNL     1      27.409   2.483  52.656  1.00  0.00     0.010 C 
ENDBRANCH   1  21
BRANCH   2  23
HETATM   23  C5  UNL     1      26.616  -1.044  52.935  1.00  0.00     0.168 C 
BRANCH  23  24
HETATM   24  N1  UNL     1      27.290  -0.860  54.190  1.00  0.00    -0.363 N 
HETATM   25  H8  UNL     1      26.820  -1.163  55.087  1.00  0.00     0.162 HD
BRANCH  24  26
HETATM   26  C6  UNL     1      28.563  -0.296  54.361  1.00  0.00     0.348 C 
HETATM   27  O1  UNL     1      28.724   0.608  55.208  1.00  0.00    -0.284 OA
ENDBRANCH  24  26
ENDBRANCH  23  24
ENDBRANCH   2  23
TORSDOF 8
ENDMDL
MODEL 3
REMARK VINA RESULT:      -7.3      3.245      7.614
REMARK  8 active torsions:
REMARK  status: ('A' for Active; 'I' for Inactive)
REMARK    1  A    between atoms: C2_2  and  C3_3 
REMARK    2  A    between atoms: C4_4  and  C5_5 
REMARK    3  A    between atoms: C5_5  and  N1_6 
REMARK    4  A    between atoms: N1_6  and  C6_7 
REMARK    5  A    between atoms: C9_14  and  N4_15 
REMARK    6  A    between atoms: N4_15  and  C10_16 
REMARK    7  A    between atoms: C10_16  and  C11_17 
REMARK    8  A    between atoms: C10_16  and  C13_19 
ROOT
HETATM    1  C3  UNL     1      23.447   0.557  53.042  1.00  0.00    -0.027 A 
HETATM    2  C4  UNL     1      24.826   0.414  53.129  1.00  0.00     0.010 A 
HETATM    3  S1  UNL     1      25.527   2.023  52.778  1.00  0.00    -0.072 SA
HETATM    4  C7  UNL     1      23.844   2.800  52.528  1.00  0.00     0.114 A 
HETATM    5  N2  UNL     1      23.643   4.108  52.206  1.00  0.00    -0.234 NA
HETATM    6  C8  UNL     1      22.376   4.492  52.055  1.00  0.00     0.236 A 
HETATM    7  N3  UNL     1      21.495   3.528  52.242  1.00  0.00    -0.224 NA
HETATM    8  C9  UNL     1      21.690   2.252  52.556  1.00  0.00     0.139 A 
HETATM    9  C19 UNL     1      22.964   1.768  52.735  1.00  0.00     0.053 A 
ENDROOT
BRANCH   8  10
HETATM   10  N4  UNL     1      20.517   1.443  52.600  1.00  0.00    -0.365 N 
HETATM   11  H11 UNL     1      19.753   1.270  53.266  1.00  0.00     0.162 HD
BRANCH  10  12
HETATM   12  C10 UNL     1      20.195   0.552  51.507  1.00  0.00     0.116 C 
BRANCH  12  13
HETATM   13  C11 UNL     1      20.082   1.309  50.184  1.00  0.00     0.025 C 
HETATM   14  C12 UNL     1      21.200   0.978  49.231  1.00  0.00     0.007 C 
ENDBRANCH  12  13
BRANCH  12  15
HETATM   15  C13 UNL     1      18.868  -0.080  51.694  1.00  0.00    -0.036 A 
HETATM   16  C14 UNL     1      18.834  -0.781  52.907  1.00  0.00     0.009 A 
HETATM   17  C15 UNL     1      17.709  -1.465  53.319  1.00  0.00     0.001 A 
HETATM   18  C16 UNL     1      16.574  -1.455  52.501  1.00  0.00     0.000 A 
HETATM   19  C17 UNL     1      16.625  -0.766  51.321  1.00  0.00     0.001 A 
HETATM   20  C18 UNL     1      17.753  -0.082  50.908  1.00  0.00     0.009 A 
ENDBRANCH  12  15
ENDBRANCH  10  12
ENDBRANCH   8  10
BRANCH   1  21
HETATM   21  C2  UNL     1      22.732  -0.704  53.342  1.00  0.00     0.036 C 
HETATM   22  C1  UNL     1      22.300  -0.688  54.790  1.00  0.00     0.010 C 
ENDBRANCH   1  21
BRANCH   2  23
HETATM   23  C5  UNL     1      25.708  -0.737  53.434  1.00  0.00     0.168 C 
BRANCH  23  24
HETATM   24  N1  UNL     1      26.511  -0.489  54.600  1.00  0.00    -0.363 N 
HETATM   25  H8  UNL     1      26.073  -0.552  55.560  1.00  0.00     0.162 HD
BRANCH  24  26
HETATM   26  C6  UNL     1      27.874  -0.158  54.601  1.00  0.00     0.348 C 
HETATM   27  O1  UNL     1      28.235   0.950  55.048  1.00  0.00    -0.284 OA
ENDBRANCH  24  26
ENDBRANCH  23  24
ENDBRANCH   2  23
TORSDOF 8
ENDMDL
MODEL 4
REMARK VINA RESULT:      -7.2      2.893      4.604
REMARK  8 active torsions:
REMARK  status: ('A' for Active; 'I' for Inactive)
REMARK    1  A    between atoms: C2_2  and  C3_3 
REMARK    2  A    between atoms: C4_4  and  C5_5 
REMARK    3  A    between atoms: C5_5  and  N1_6 
REMARK    4  A    between atoms: N1_6  and  C6_7 
REMARK    5  A    between atoms: C9_14  and  N4_15 
REMARK    6  A    between atoms: N4_15  and  C10_16 
REMARK    7  A    between atoms: C10_16  and  C11_17 
REMARK    8  A    between atoms: C10_16  and  C13_19 
ROOT
HETATM    1  C3  UNL     1      24.402   2.740  50.948  1.00  0.00    -0.027 A 
HETATM    2  C4  UNL     1      24.546   3.501  49.795  1.00  0.00     0.010 A 
HETATM    3  S1  UNL     1      23.148   3.109  48.749  1.00  0.00    -0.072 SA
HETATM    4  C7  UNL     1      22.445   1.899  49.991  1.00  0.00     0.114 A 
HETATM    5  N2  UNL     1      21.300   1.186  49.804  1.00  0.00    -0.234 NA
HETATM    6  C8  UNL     1      20.950   0.360  50.789  1.00  0.00     0.236 A 
HETATM    7  N3  UNL     1      21.783   0.358  51.813  1.00  0.00    -0.224 NA
HETATM    8  C9  UNL     1      22.901   1.053  51.995  1.00  0.00     0.139 A 
HETATM    9  C19 UNL     1      23.337   1.932  51.033  1.00  0.00     0.053 A 
ENDROOT
BRANCH   8  10
HETATM   10  N4  UNL     1      23.624   0.752  53.186  1.00  0.00    -0.365 N 
HETATM   11  H11 UNL     1      23.962   1.271  54.006  1.00  0.00     0.162 HD
BRANCH  10  12
HETATM   12  C10 UNL     1      24.105  -0.589  53.437  1.00  0.00     0.116 C 
BRANCH  12  13
HETATM   13  C11 UNL     1      23.668  -1.092  54.812  1.00  0.00     0.025 C 
HETATM   14  C12 UNL     1      22.174  -1.056  54.992  1.00  0.00     0.007 C 
ENDBRANCH  12  13
BRANCH  12  15
HETATM   15  C13 UNL     1      25.586  -0.637  53.472  1.00  0.00    -0.036 A 
HETATM   16  C14 UNL     1      26.071   0.162  54.516  1.00  0.00     0.009 A 
HETATM   17  C15 UNL     1      27.421   0.293  54.763  1.00  0.00     0.001 A 
HETATM   18  C16 UNL     1      28.328  -0.393  53.947  1.00  0.00     0.000 A 
HETATM   19  C17 UNL     1      27.837  -1.168  52.933  1.00  0.00     0.001 A 
HETATM   20  C18 UNL     1      26.484  -1.299  52.685  1.00  0.00     0.009 A 
ENDBRANCH  12  15
ENDBRANCH  10  12
ENDBRANCH   8  10
BRANCH   1  21
HETATM   21  C2  UNL     1      25.486   2.991  51.924  1.00  0.00     0.036 C 
HETATM   22  C1  UNL     1      26.704   2.194  51.518  1.00  0.00     0.010 C 
ENDBRANCH   1  21
BRANCH   2  23
HETATM   23  C5  UNL     1      25.565   4.479  49.347  1.00  0.00     0.168 C 
BRANCH  23  24
HETATM   24  N1  UNL     1      25.087   5.828  49.466  1.00  0.00    -0.363 N 
HETATM   25  H8  UNL     1      25.075   6.457  48.616  1.00  0.00     0.162 HD
BRANCH  24  26
HETATM   26  C6  UNL     1      24.612   6.429  50.641  1.00  0.00     0.348 C 
HETATM   27  O1  UNL     1      24.490   7.670  50.689  1.00  0.00    -0.284 OA
ENDBRANCH  24  26
ENDBRANCH  23  24
ENDBRANCH   2  23
TORSDOF 8
ENDMDL
MODEL 5
REMARK VINA RESULT:      -7.2      2.989      6.579
REMARK  8 active torsions:
REMARK  status: ('A' for Active; 'I' for Inactive)
REMARK    1  A    between atoms: C2_2  and  C3_3 
REMARK    2  A    between atoms: C4_4  and  C5_5 
REMARK    3  A    between atoms: C5_5  and  N1_6 
REMARK    4  A    between atoms: N1_6  and  C6_7 
REMARK    5  A    between atoms: C9_14  and  N4_15 
REMARK    6  A    between atoms: N4_15  and  C10_16 
REMARK    7  A    between atoms: C10_16  and  C11_17 
REMARK    8  A    between atoms: C10_16  and  C13_19 
ROOT
HETATM    1  C3  UNL     1      24.902   0.004  53.362  1.00  0.00    -0.027 A 
HETATM    2  C4  UNL     1      25.844  -0.218  54.359  1.00  0.00     0.010 A 
HETATM    3  S1  UNL     1      24.988  -1.051  55.691  1.00  0.00    -0.072 SA
HETATM    4  C7  UNL     1      23.359  -1.037  54.772  1.00  0.00     0.114 A 
HETATM    5  N2  UNL     1      22.197  -1.550  55.262  1.00  0.00    -0.234 NA
HETATM    6  C8  UNL     1      21.126  -1.446  54.476  1.00  0.00     0.236 A 
HETATM    7  N3  UNL     1      21.360  -0.848  53.323  1.00  0.00    -0.224 NA
HETATM    8  C9  UNL     1      22.493  -0.346  52.845  1.00  0.00     0.139 A 
HETATM    9  C19 UNL     1      23.649  -0.412  53.585  1.00  0.00     0.053 A 
ENDROOT
BRANCH   8  10
HETATM   10  N4  UNL     1      22.388   0.319  51.588  1.00  0.00    -0.365 N 
HETATM   11  H11 UNL     1      22.828   0.241  50.663  1.00  0.00     0.162 HD
BRANCH  10  12
HETATM   12  C10 UNL     1      21.492   1.442  51.421  1.00  0.00     0.116 C 
BRANCH  12  13
HETATM   13  C11 UNL     1      20.450   1.169  50.336  1.00  0.00     0.025 C 
HETATM   14  C12 UNL     1      19.170   0.606  50.893  1.00  0.00     0.007 C 
ENDBRANCH  12  13
BRANCH  12  15
HETATM   15  C13 UNL     1      22.214   2.649  50.955  1.00  0.00    -0.036 A 
HETATM   16  C14 UNL     1      22.883   2.378  49.754  1.00  0.00     0.009 A 
HETATM   17  C15 UNL     1      23.636   3.337  49.110  1.00  0.00     0.001 A 
HETATM   18  C16 UNL     1      23.731   4.614  49.674  1.00  0.00     0.000 A 
HETATM   19  C17 UNL     1      23.071   4.861  50.846  1.00  0.00     0.001 A 
HETATM   20  C18 UNL     1      22.318   3.899  51.492  1.00  0.00     0.009 A 
ENDBRANCH  12  15
ENDBRANCH  10  12
ENDBRANCH   8  10
BRANCH   1  21
HETATM   21  C2  UNL     1      25.488   0.667  52.175  1.00  0.00     0.036 C 
HETATM   22  C1  UNL     1      25.498   2.160  52.404  1.00  0.00     0.010 C 
ENDBRANCH   1  21
BRANCH   2  23
HETATM   23  C5  UNL     1      27.289   0.093  54.476  1.00  0.00     0.168 C 
BRANCH  23  24
HETATM   24  N1  UNL     1      28.101  -1.013  54.052  1.00  0.00    -0.363 N 
HETATM   25  H8  UNL     1      27.677  -1.979  53.987  1.00  0.00     0.162 HD
BRANCH  24  26
HETATM   26  C6  UNL     1      29.456  -0.946  53.697  1.00  0.00     0.348 C 
HETATM   27  O1  UNL     1      29.979   0.168  53.483  1.00  0.00    -0.284 OA
ENDBRANCH  24  26
ENDBRANCH  23  24
ENDBRANCH   2  23
TORSDOF 8
ENDMDL
MODEL 6
REMARK VINA RESULT:      -7.1      3.274      7.750
REMARK  8 active torsions:
REMARK  status: ('A' for Active; 'I' for Inactive)
REMARK    1  A    between atoms: C2_2  and  C3_3 
REMARK    2  A    between atoms: C4_4  and  C5_5 
REMARK    3  A    between atoms: C5_5  and  N1_6 
REMARK    4  A    between atoms: N1_6  and  C6_7 
REMARK    5  A    between atoms: C9_14  and  N4_15 
REMARK    6  A    between atoms: N4_15  and  C10_16 
REMARK    7  A    between atoms: C10_16  and  C11_17 
REMARK    8  A    between atoms: C10_16  and  C13_19 
ROOT
HETATM    1  C3  UNL     1      23.711   0.268  52.815  1.00  0.00    -0.027 A 
HETATM    2  C4  UNL     1      24.984   0.379  53.361  1.00  0.00     0.010 A 
HETATM    3  S1  UNL     1      25.829   1.650  52.427  1.00  0.00    -0.072 SA
HETATM    4  C7  UNL     1      24.347   1.949  51.325  1.00  0.00     0.114 A 
HETATM    5  N2  UNL     1      24.315   2.859  50.312  1.00  0.00    -0.234 NA
HETATM    6  C8  UNL     1      23.179   2.934  49.620  1.00  0.00     0.236 A 
HETATM    7  N3  UNL     1      22.243   2.098  50.027  1.00  0.00    -0.224 NA
HETATM    8  C9  UNL     1      22.274   1.209  51.014  1.00  0.00     0.139 A 
HETATM    9  C19 UNL     1      23.403   1.066  51.785  1.00  0.00     0.053 A 
ENDROOT
BRANCH   8  10
HETATM   10  N4  UNL     1      21.114   0.391  51.140  1.00  0.00    -0.365 N 
HETATM   11  H11 UNL     1      20.903  -0.615  51.120  1.00  0.00     0.162 HD
BRANCH  10  12
HETATM   12  C10 UNL     1      19.807   0.987  51.318  1.00  0.00     0.116 C 
BRANCH  12  13
HETATM   13  C11 UNL     1      19.852   2.143  52.316  1.00  0.00     0.025 C 
HETATM   14  C12 UNL     1      19.306   3.424  51.742  1.00  0.00     0.007 C 
ENDBRANCH  12  13
BRANCH  12  15
HETATM   15  C13 UNL     1      18.845   0.023  51.900  1.00  0.00    -0.036 A 
HETATM   16  C14 UNL     1      17.666  -0.001  51.141  1.00  0.00     0.009 A 
HETATM   17  C15 UNL     1      16.605  -0.815  51.475  1.00  0.00     0.001 A 
HETATM   18  C16 UNL     1      16.712  -1.639  52.600  1.00  0.00     0.000 A 
HETATM   19  C17 UNL     1      17.868  -1.604  53.329  1.00  0.00     0.001 A 
HETATM   20  C18 UNL     1      18.932  -0.786  52.995  1.00  0.00     0.009 A 
ENDBRANCH  12  15
ENDBRANCH  10  12
ENDBRANCH   8  10
BRANCH   1  21
HETATM   21  C2  UNL     1      22.885  -0.738  53.520  1.00  0.00     0.036 C 
HETATM   22  C1  UNL     1      22.010  -0.032  54.529  1.00  0.00     0.010 C 
ENDBRANCH   1  21
BRANCH   2  23
HETATM   23  C5  UNL     1      25.674  -0.316  54.474  1.00  0.00     0.168 C 
BRANCH  23  24
HETATM   24  N1  UNL     1      27.082  -0.444  54.221  1.00  0.00    -0.363 N 
HETATM   25  H8  UNL     1      27.414  -0.966  53.363  1.00  0.00     0.162 HD
BRANCH  24  26
HETATM   26  C6  UNL     1      28.109   0.073  55.024  1.00  0.00     0.348 C 
HETATM   27  O1  UNL     1      28.603   1.186  54.746  1.00  0.00    -0.284 OA
ENDBRANCH  24  26
ENDBRANCH  23  24
ENDBRANCH   2  23
TORSDOF 8
ENDMDL
MODEL 7
REMARK VINA RESULT:      -7.0      2.972      6.678
REMARK  8 active torsions:
REMARK  status: ('A' for Active; 'I' for Inactive)
REMARK    1  A    between atoms: C2_2  and  C3_3 
REMARK    2  A    between atoms: C4_4  and  C5_5 
REMARK    3  A    between atoms: C5_5  and  N1_6 
REMARK    4  A    between atoms: N1_6  and  C6_7 
REMARK    5  A    between atoms: C9_14  and  N4_15 
REMARK    6  A    between atoms: N4_15  and  C10_16 
REMARK    7  A    between atoms: C10_16  and  C11_17 
REMARK    8  A    between atoms: C10_16  and  C13_19 
ROOT
HETATM    1  C3  UNL     1      23.922   1.427  52.417  1.00  0.00    -0.027 A 
HETATM    2  C4  UNL     1      25.243   1.005  52.506  1.00  0.00     0.010 A 
HETATM    3  S1  UNL     1      25.250  -0.418  53.591  1.00  0.00    -0.072 SA
HETATM    4  C7  UNL     1      23.400  -0.336  53.857  1.00  0.00     0.114 A 
HETATM    5  N2  UNL     1      22.699  -1.196  54.646  1.00  0.00    -0.234 NA
HETATM    6  C8  UNL     1      21.386  -0.985  54.731  1.00  0.00     0.236 A 
HETATM    7  N3  UNL     1      20.959   0.045  54.026  1.00  0.00    -0.224 NA
HETATM    8  C9  UNL     1      21.642   0.886  53.257  1.00  0.00     0.139 A 
HETATM    9  C19 UNL     1      23.001   0.742  53.107  1.00  0.00     0.053 A 
ENDROOT
BRANCH   8  10
HETATM   10  N4  UNL     1      20.888   1.957  52.696  1.00  0.00    -0.365 N 
HETATM   11  H11 UNL     1      20.753   2.958  52.890  1.00  0.00     0.162 HD
BRANCH  10  12
HETATM   12  C10 UNL     1      20.008   1.729  51.570  1.00  0.00     0.116 C 
BRANCH  12  13
HETATM   13  C11 UNL     1      19.768   0.237  51.343  1.00  0.00     0.025 C 
HETATM   14  C12 UNL     1      18.334  -0.160  51.576  1.00  0.00     0.007 C 
ENDBRANCH  12  13
BRANCH  12  15
HETATM   15  C13 UNL     1      20.608   2.211  50.304  1.00  0.00    -0.036 A 
HETATM   16  C14 UNL     1      21.137   1.134  49.580  1.00  0.00     0.009 A 
HETATM   17  C15 UNL     1      21.758   1.314  48.362  1.00  0.00     0.001 A 
HETATM   18  C16 UNL     1      21.860   2.608  47.839  1.00  0.00     0.000 A 
HETATM   19  C17 UNL     1      21.338   3.647  48.559  1.00  0.00     0.001 A 
HETATM   20  C18 UNL     1      20.717   3.467  49.780  1.00  0.00     0.009 A 
ENDBRANCH  12  15
ENDBRANCH  10  12
ENDBRANCH   8  10
BRANCH   1  21
HETATM   21  C2  UNL     1      23.766   2.592  51.517  1.00  0.00     0.036 C 
HETATM   22  C1  UNL     1      23.755   3.853  52.348  1.00  0.00     0.010 C 
ENDBRANCH   1  21
BRANCH   2  23
HETATM   23  C5  UNL     1      26.507   1.496  51.908  1.00  0.00     0.168 C 
BRANCH  23  24
HETATM   24  N1  UNL     1      27.241   2.316  52.831  1.00  0.00    -0.363 N 
HETATM   25  H8  UNL     1      26.821   3.223  53.175  1.00  0.00     0.162 HD
BRANCH  24  26
HETATM   26  C6  UNL     1      28.512   2.029  53.350  1.00  0.00     0.348 C 
HETATM   27  O1  UNL     1      28.871   2.561  54.421  1.00  0.00    -0.284 OA
ENDBRANCH  24  26
ENDBRANCH  23  24
ENDBRANCH   2  23
TORSDOF 8
ENDMDL
MODEL 8
REMARK VINA RESULT:      -6.7      2.810      7.323
REMARK  8 active torsions:
REMARK  status: ('A' for Active; 'I' for Inactive)
REMARK    1  A    between atoms: C2_2  and  C3_3 
REMARK    2  A    between atoms: C4_4  and  C5_5 
REMARK    3  A    between atoms: C5_5  and  N1_6 
REMARK    4  A    between atoms: N1_6  and  C6_7 
REMARK    5  A    between atoms: C9_14  and  N4_15 
REMARK    6  A    between atoms: N4_15  and  C10_16 
REMARK    7  A    between atoms: C10_16  and  C11_17 
REMARK    8  A    between atoms: C10_16  and  C13_19 
ROOT
HETATM    1  C3  UNL     1      24.183   0.878  52.612  1.00  0.00    -0.027 A 
HETATM    2  C4  UNL     1      25.499   0.604  52.961  1.00  0.00     0.010 A 
HETATM    3  S1  UNL     1      25.435  -0.620  54.265  1.00  0.00    -0.072 SA
HETATM    4  C7  UNL     1      23.565  -0.673  54.245  1.00  0.00     0.114 A 
HETATM    5  N2  UNL     1      22.811  -1.458  55.062  1.00  0.00    -0.234 NA
HETATM    6  C8  UNL     1      21.489  -1.363  54.920  1.00  0.00     0.236 A 
HETATM    7  N3  UNL     1      21.107  -0.504  53.994  1.00  0.00    -0.224 NA
HETATM    8  C9  UNL     1      21.843   0.263  53.197  1.00  0.00     0.139 A 
HETATM    9  C19 UNL     1      23.215   0.228  53.270  1.00  0.00     0.053 A 
ENDROOT
BRANCH   8  10
HETATM   10  N4  UNL     1      21.113   1.154  52.357  1.00  0.00    -0.365 N 
HETATM   11  H11 UNL     1      20.869   2.153  52.360  1.00  0.00     0.162 HD
BRANCH  10  12
HETATM   12  C10 UNL     1      20.457   0.669  51.162  1.00  0.00     0.116 C 
BRANCH  12  13
HETATM   13  C11 UNL     1      20.649   1.630  49.989  1.00  0.00     0.025 C 
HETATM   14  C12 UNL     1      21.449   1.021  48.868  1.00  0.00     0.007 C 
ENDBRANCH  12  13
BRANCH  12  15
HETATM   15  C13 UNL     1      18.988   0.586  51.344  1.00  0.00    -0.036 A 
HETATM   16  C14 UNL     1      18.397   1.827  51.069  1.00  0.00     0.009 A 
HETATM   17  C15 UNL     1      17.035   2.019  51.168  1.00  0.00     0.001 A 
HETATM   18  C16 UNL     1      16.226   0.945  51.553  1.00  0.00     0.000 A 
HETATM   19  C17 UNL     1      16.820  -0.258  51.817  1.00  0.00     0.001 A 
HETATM   20  C18 UNL     1      18.185  -0.451  51.719  1.00  0.00     0.009 A 
ENDBRANCH  12  15
ENDBRANCH  10  12
ENDBRANCH   8  10
BRANCH   1  21
HETATM   21  C2  UNL     1      24.088   1.863  51.510  1.00  0.00     0.036 C 
HETATM   22  C1  UNL     1      23.909   3.241  52.102  1.00  0.00     0.010 C 
ENDBRANCH   1  21
BRANCH   2  23
HETATM   23  C5  UNL     1      26.804   1.111  52.474  1.00  0.00     0.168 C 
BRANCH  23  24
HETATM   24  N1  UNL     1      27.888   0.637  53.287  1.00  0.00    -0.363 N 
HETATM   25  H8  UNL     1      28.043  -0.403  53.401  1.00  0.00     0.162 HD
BRANCH  24  26
HETATM   26  C6  UNL     1      28.807   1.442  53.978  1.00  0.00     0.348 C 
HETATM   27  O1  UNL     1      28.581   2.664  54.099  1.00  0.00    -0.284 OA
ENDBRANCH  24  26
ENDBRANCH  23  24
ENDBRANCH   2  23
TORSDOF 8
ENDMDL
MODEL 9
REMARK VINA RESULT:      -6.7      3.269      7.237
REMARK  8 active torsions:
REMARK  status: ('A' for Active; 'I' for Inactive)
REMARK    1  A    between atoms: C2_2  and  C3_3 
REMARK    2  A    between atoms: C4_4  and  C5_5 
REMARK    3  A    between atoms: C5_5  and  N1_6 
REMARK    4  A    between atoms: N1_6  and  C6_7 
REMARK    5  A    between atoms: C9_14  and  N4_15 
REMARK    6  A    between atoms: N4_15  and  C10_16 
REMARK    7  A    between atoms: C10_16  and  C11_17 
REMARK    8  A    between atoms: C10_16  and  C13_19 
ROOT
HETATM    1  C3  UNL     1      23.154   0.785  52.837  1.00  0.00    -0.027 A 
HETATM    2  C4  UNL     1      24.515   0.610  53.051  1.00  0.00     0.010 A 
HETATM    3  S1  UNL     1      25.249   2.242  53.016  1.00  0.00    -0.072 SA
HETATM    4  C7  UNL     1      23.603   3.073  52.702  1.00  0.00     0.114 A 
HETATM    5  N2  UNL     1      23.438   4.416  52.554  1.00  0.00    -0.234 NA
HETATM    6  C8  UNL     1      22.195   4.838  52.325  1.00  0.00     0.236 A 
HETATM    7  N3  UNL     1      21.298   3.871  52.274  1.00  0.00    -0.224 NA
HETATM    8  C9  UNL     1      21.459   2.560  52.417  1.00  0.00     0.139 A 
HETATM    9  C19 UNL     1      22.706   2.035  52.660  1.00  0.00     0.053 A 
ENDROOT
BRANCH   8  10
HETATM   10  N4  UNL     1      20.289   1.771  52.216  1.00  0.00    -0.365 N 
HETATM   11  H11 UNL     1      19.778   1.046  52.735  1.00  0.00     0.162 HD
BRANCH  10  12
HETATM   12  C10 UNL     1      19.525   1.884  50.992  1.00  0.00     0.116 C 
BRANCH  12  13
HETATM   13  C11 UNL     1      18.639   0.658  50.771  1.00  0.00     0.025 C 
HETATM   14  C12 UNL     1      18.686  -0.305  51.927  1.00  0.00     0.007 C 
ENDBRANCH  12  13
BRANCH  12  15
HETATM   15  C13 UNL     1      20.408   1.929  49.803  1.00  0.00    -0.036 A 
HETATM   16  C14 UNL     1      20.201   3.120  49.094  1.00  0.00     0.009 A 
HETATM   17  C15 UNL     1      20.899   3.408  47.939  1.00  0.00     0.001 A 
HETATM   18  C16 UNL     1      21.838   2.484  47.468  1.00  0.00     0.000 A 
HETATM   19  C17 UNL     1      22.028   1.328  48.173  1.00  0.00     0.001 A 
HETATM   20  C18 UNL     1      21.328   1.039  49.330  1.00  0.00     0.009 A 
ENDBRANCH  12  15
ENDBRANCH  10  12
ENDBRANCH   8  10
BRANCH   1  21
HETATM   21  C2  UNL     1      22.412  -0.495  52.872  1.00  0.00     0.036 C 
HETATM   22  C1  UNL     1      21.859  -0.702  54.262  1.00  0.00     0.010 C 
ENDBRANCH   1  21
BRANCH   2  23
HETATM   23  C5  UNL     1      25.360  -0.586  53.278  1.00  0.00     0.168 C 
BRANCH  23  24
HETATM   24  N1  UNL     1      26.311  -0.365  54.332  1.00  0.00    -0.363 N 
HETATM   25  H8  UNL     1      25.990  -0.383  55.339  1.00  0.00     0.162 HD
BRANCH  24  26
HETATM   26  C6  UNL     1      27.681  -0.117  54.161  1.00  0.00     0.348 C 
HETATM   27  O1  UNL     1      28.464  -0.320  55.112  1.00  0.00    -0.284 OA
ENDBRANCH  24  26
ENDBRANCH  23  24
ENDBRANCH   2  23
TORSDOF 8
ENDMDL
