MODEL 1
REMARK VINA RESULT:      -8.3      0.000      0.000
REMARK  9 active torsions:
REMARK  status: ('A' for Active; 'I' for Inactive)
REMARK    1  A    between atoms: C2_2  and  O1_3 
REMARK    2  A    between atoms: O1_3  and  C3_4 
REMARK    3  A    between atoms: C9_12  and  C10_13 
REMARK    4  A    between atoms: C11_14  and  C12_15 
REMARK    5  A    between atoms: C13_16  and  N3_17 
REMARK    6  A    between atoms: C16_20  and  N4_21 
REMARK       I    between atoms: N4_21  and  C17_22 
REMARK    7  A    between atoms: C17_22  and  C18_24 
REMARK    8  A    between atoms: C19_25  and  C20_26 
REMARK    9  A    between atoms: C20_26  and  N5_27 
ROOT
HETATM    1  C3  UNL     1      26.948   1.246  53.054  1.00  0.00     0.097 A 
HETATM    2  C4  UNL     1      26.443   0.333  53.949  1.00  0.00     0.071 A 
HETATM    3  C5  UNL     1      25.107  -0.002  53.955  1.00  0.00     0.070 A 
HETATM    4  N1  UNL     1      24.597  -0.902  54.779  1.00  0.00    -0.259 NA
HETATM    5  C6  UNL     1      23.318  -1.270  54.787  1.00  0.00     0.140 A 
HETATM    6  C7  UNL     1      22.489  -0.676  53.889  1.00  0.00     0.073 A 
HETATM    7  C8  UNL     1      21.118  -1.128  53.964  1.00  0.00     0.102 C 
HETATM    8  N2  UNL     1      20.001  -1.507  54.013  1.00  0.00    -0.191 NA
HETATM    9  C9  UNL     1      22.916   0.279  52.983  1.00  0.00    -0.001 A 
HETATM   10  C14 UNL     1      24.252   0.579  53.062  1.00  0.00     0.007 A 
HETATM   11  C15 UNL     1      24.773   1.484  52.175  1.00  0.00     0.047 A 
HETATM   12  C16 UNL     1      26.085   1.851  52.121  1.00  0.00     0.069 A 
ENDROOT
BRANCH   9  13
HETATM   13  C10 UNL     1      21.911   0.793  52.112  1.00  0.00     0.014 C 
HETATM   14  C11 UNL     1      21.411   1.022  50.948  1.00  0.00     0.002 C 
BRANCH  14  15
HETATM   15  C12 UNL     1      21.451   0.949  49.532  1.00  0.00     0.017 C 
HETATM   16  C13 UNL     1      21.788   1.286  48.370  1.00  0.00     0.080 C 
BRANCH  16  17
HETATM   17  N3  UNL     1      22.623   2.336  47.874  1.00  0.00    -0.408 N 
HETATM   18  H12 UNL     1      22.513   3.366  47.782  1.00  0.00     0.155 HD
HETATM   19  H13 UNL     1      23.591   2.216  47.486  1.00  0.00     0.155 HD
ENDBRANCH  16  17
ENDBRANCH  14  15
ENDBRANCH   9  13
BRANCH  12  20
HETATM   20  N4  UNL     1      26.692   2.736  51.245  1.00  0.00    -0.321 N 
HETATM   21  C17 UNL     1      26.222   3.374  50.096  1.00  0.00     0.245 C 
HETATM   22  O2  UNL     1      25.035   3.132  49.757  1.00  0.00    -0.268 OA
HETATM   23  H15 UNL     1      27.700   3.055  51.378  1.00  0.00     0.169 HD
BRANCH  21  24
HETATM   24  C18 UNL     1      26.929   4.293  49.226  1.00  0.00     0.072 C 
HETATM   25  C19 UNL     1      26.562   5.548  49.055  1.00  0.00     0.008 C 
BRANCH  25  26
HETATM   26  C20 UNL     1      27.250   6.518  48.179  1.00  0.00     0.299 C 
BRANCH  26  27
HETATM   27  N5  UNL     1      27.179   7.848  48.710  1.00  0.00     0.083 N 
HETATM   28  C21 UNL     1      28.474   8.479  48.826  1.00  0.00     0.309 C 
HETATM   29  C22 UNL     1      26.456   7.983  49.934  1.00  0.00     0.309 C 
ENDBRANCH  26  27
ENDBRANCH  25  26
ENDBRANCH  21  24
ENDBRANCH  12  20
BRANCH   1  30
HETATM   30  O1  UNL     1      28.293   1.550  53.086  1.00  0.00    -0.349 OA
BRANCH  30  31
HETATM   31  C2  UNL     1      29.236   1.107  54.007  1.00  0.00     0.171 C 
HETATM   32  C1  UNL     1      29.907  -0.143  53.549  1.00  0.00     0.034 C 
ENDBRANCH  30  31
ENDBRANCH   1  30
TORSDOF 9
ENDMDL
MODEL 2
REMARK VINA RESULT:      -8.2      1.935      4.767
REMARK  9 active torsions:
REMARK  status: ('A' for Active; 'I' for Inactive)
REMARK    1  A    between atoms: C2_2  and  O1_3 
REMARK    2  A    between atoms: O1_3  and  C3_4 
REMARK    3  A    between atoms: C9_12  and  C10_13 
REMARK    4  A    between atoms: C11_14  and  C12_15 
REMARK    5  A    between atoms: C13_16  and  N3_17 
REMARK    6  A    between atoms: C16_20  and  N4_21 
REMARK       I    between atoms: N4_21  and  C17_22 
REMARK    7  A    between atoms: C17_22  and  C18_24 
REMARK    8  A    between atoms: C19_25  and  C20_26 
REMARK    9  A    between atoms: C20_26  and  N5_27 
ROOT
HETATM    1  C3  UNL     1      22.750   3.685  50.404  1.00  0.00     0.097 A 
HETATM    2  C4  UNL     1      21.723   3.192  51.173  1.00  0.00     0.071 A 
HETATM    3  C5  UNL     1      21.914   2.127  52.027  1.00  0.00     0.070 A 
HETATM    4  N1  UNL     1      20.956   1.652  52.805  1.00  0.00    -0.259 NA
HETATM    5  C6  UNL     1      21.119   0.647  53.663  1.00  0.00     0.140 A 
HETATM    6  C7  UNL     1      22.351   0.076  53.735  1.00  0.00     0.073 A 
HETATM    7  C8  UNL     1      22.443  -1.007  54.687  1.00  0.00     0.102 C 
HETATM    8  N2  UNL     1      22.525  -1.883  55.473  1.00  0.00    -0.191 NA
HETATM    9  C9  UNL     1      23.422   0.493  52.965  1.00  0.00    -0.001 A 
HETATM   10  C14 UNL     1      23.142   1.537  52.120  1.00  0.00     0.007 A 
HETATM   11  C15 UNL     1      24.154   2.044  51.348  1.00  0.00     0.047 A 
HETATM   12  C16 UNL     1      24.025   3.095  50.490  1.00  0.00     0.069 A 
ENDROOT
BRANCH   9  13
HETATM   13  C10 UNL     1      24.642  -0.215  53.173  1.00  0.00     0.014 C 
HETATM   14  C11 UNL     1      25.920  -0.281  53.312  1.00  0.00     0.002 C 
BRANCH  14  15
HETATM   15  C12 UNL     1      27.205   0.317  53.371  1.00  0.00     0.017 C 
HETATM   16  C13 UNL     1      28.039   1.242  53.528  1.00  0.00     0.080 C 
BRANCH  16  17
HETATM   17  N3  UNL     1      27.892   2.630  53.839  1.00  0.00    -0.408 N 
HETATM   18  H12 UNL     1      28.160   3.224  54.649  1.00  0.00     0.155 HD
HETATM   19  H13 UNL     1      27.441   3.351  53.221  1.00  0.00     0.155 HD
ENDBRANCH  16  17
ENDBRANCH  14  15
ENDBRANCH   9  13
BRANCH  12  20
HETATM   20  N4  UNL     1      24.999   3.680  49.697  1.00  0.00    -0.321 N 
HETATM   21  C17 UNL     1      26.388   3.730  49.819  1.00  0.00     0.245 C 
HETATM   22  O2  UNL     1      26.892   3.149  50.815  1.00  0.00    -0.268 OA
HETATM   23  H15 UNL     1      24.753   4.213  48.808  1.00  0.00     0.169 HD
BRANCH  21  24
HETATM   24  C18 UNL     1      27.344   4.369  48.938  1.00  0.00     0.072 C 
HETATM   25  C19 UNL     1      27.408   5.676  48.772  1.00  0.00     0.008 C 
BRANCH  25  26
HETATM   26  C20 UNL     1      28.362   6.370  47.884  1.00  0.00     0.299 C 
BRANCH  26  27
HETATM   27  N5  UNL     1      28.247   7.796  48.000  1.00  0.00     0.083 N 
HETATM   28  C21 UNL     1      27.352   8.206  49.058  1.00  0.00     0.309 C 
HETATM   29  C22 UNL     1      27.928   8.486  46.792  1.00  0.00     0.309 C 
ENDBRANCH  26  27
ENDBRANCH  25  26
ENDBRANCH  21  24
ENDBRANCH  12  20
BRANCH   1  30
HETATM   30  O1  UNL     1      22.510   4.753  49.563  1.00  0.00    -0.349 OA
BRANCH  30  31
HETATM   31  C2  UNL     1      21.700   4.771  48.434  1.00  0.00     0.171 C 
HETATM   32  C1  UNL     1      22.120   3.742  47.439  1.00  0.00     0.034 C 
ENDBRANCH  30  31
ENDBRANCH   1  30
TORSDOF 9
ENDMDL
MODEL 3
REMARK VINA RESULT:      -8.2      2.210      5.160
REMARK  9 active torsions:
REMARK  status: ('A' for Active; 'I' for Inactive)
REMARK    1  A    between atoms: C2_2  and  O1_3 
REMARK    2  A    between atoms: O1_3  and  C3_4 
REMARK    3  A    between atoms: C9_12  and  C10_13 
REMARK    4  A    between atoms: C11_14  and  C12_15 
REMARK    5  A    between atoms: C13_16  and  N3_17 
REMARK    6  A    between atoms: C16_20  and  N4_21 
REMARK       I    between atoms: N4_21  and  C17_22 
REMARK    7  A    between atoms: C17_22  and  C18_24 
REMARK    8  A    between atoms: C19_25  and  C20_26 
REMARK    9  A    between atoms: C20_26  and  N5_27 
ROOT
HETATM    1  C3  UNL     1      23.089   2.809  49.326  1.00  0.00     0.097 A 
HETATM    2  C4  UNL     1      22.082   2.034  49.851  1.00  0.00     0.071 A 
HETATM    3  C5  UNL     1      22.272   1.289  50.995  1.00  0.00     0.070 A 
HETATM    4  N1  UNL     1      21.314   0.562  51.544  1.00  0.00    -0.259 NA
HETATM    5  C6  UNL     1      21.458  -0.142  52.664  1.00  0.00     0.140 A 
HETATM    6  C7  UNL     1      22.671  -0.108  53.275  1.00  0.00     0.073 A 
HETATM    7  C8  UNL     1      22.746  -0.899  54.483  1.00  0.00     0.102 C 
HETATM    8  N2  UNL     1      22.804  -1.533  55.476  1.00  0.00    -0.191 NA
HETATM    9  C9  UNL     1      23.744   0.617  52.785  1.00  0.00    -0.001 A 
HETATM   10  C14 UNL     1      23.482   1.307  51.629  1.00  0.00     0.007 A 
HETATM   11  C15 UNL     1      24.473   2.086  51.093  1.00  0.00     0.047 A 
HETATM   12  C16 UNL     1      24.341   2.845  49.968  1.00  0.00     0.069 A 
ENDROOT
BRANCH   9  13
HETATM   13  C10 UNL     1      24.940   0.542  53.556  1.00  0.00     0.014 C 
HETATM   14  C11 UNL     1      26.163   0.185  53.743  1.00  0.00     0.002 C 
BRANCH  14  15
HETATM   15  C12 UNL     1      27.360  -0.450  53.323  1.00  0.00     0.017 C 
HETATM   16  C13 UNL     1      28.117  -1.412  53.042  1.00  0.00     0.080 C 
BRANCH  16  17
HETATM   17  N3  UNL     1      27.926  -2.829  53.072  1.00  0.00    -0.408 N 
HETATM   18  H12 UNL     1      28.304  -3.622  52.517  1.00  0.00     0.155 HD
HETATM   19  H13 UNL     1      27.306  -3.348  53.742  1.00  0.00     0.155 HD
ENDBRANCH  16  17
ENDBRANCH  14  15
ENDBRANCH   9  13
BRANCH  12  20
HETATM   20  N4  UNL     1      25.281   3.675  49.379  1.00  0.00    -0.321 N 
HETATM   21  C17 UNL     1      25.612   5.011  49.606  1.00  0.00     0.245 C 
HETATM   22  O2  UNL     1      24.965   5.612  50.502  1.00  0.00    -0.268 OA
HETATM   23  H15 UNL     1      25.922   3.332  48.600  1.00  0.00     0.169 HD
BRANCH  21  24
HETATM   24  C18 UNL     1      26.618   5.813  48.938  1.00  0.00     0.072 C 
HETATM   25  C19 UNL     1      27.797   5.341  48.584  1.00  0.00     0.008 C 
BRANCH  25  26
HETATM   26  C20 UNL     1      28.851   6.120  47.905  1.00  0.00     0.299 C 
BRANCH  26  27
HETATM   27  N5  UNL     1      30.140   5.879  48.486  1.00  0.00     0.083 N 
HETATM   28  C21 UNL     1      30.824   7.093  48.869  1.00  0.00     0.309 C 
HETATM   29  C22 UNL     1      31.012   5.045  47.721  1.00  0.00     0.309 C 
ENDBRANCH  26  27
ENDBRANCH  25  26
ENDBRANCH  21  24
ENDBRANCH  12  20
BRANCH   1  30
HETATM   30  O1  UNL     1      22.852   3.537  48.179  1.00  0.00    -0.349 OA
BRANCH  30  31
HETATM   31  C2  UNL     1      21.951   3.240  47.163  1.00  0.00     0.171 C 
HETATM   32  C1  UNL     1      21.941   4.296  46.110  1.00  0.00     0.034 C 
ENDBRANCH  30  31
ENDBRANCH   1  30
TORSDOF 9
ENDMDL
MODEL 4
REMARK VINA RESULT:      -7.8      3.393      7.545
REMARK  9 active torsions:
REMARK  status: ('A' for Active; 'I' for Inactive)
REMARK    1  A    between atoms: C2_2  and  O1_3 
REMARK    2  A    between atoms: O1_3  and  C3_4 
REMARK    3  A    between atoms: C9_12  and  C10_13 
REMARK    4  A    between atoms: C11_14  and  C12_15 
REMARK    5  A    between atoms: C13_16  and  N3_17 
REMARK    6  A    between atoms: C16_20  and  N4_21 
REMARK       I    between atoms: N4_21  and  C17_22 
REMARK    7  A    between atoms: C17_22  and  C18_24 
REMARK    8  A    between atoms: C19_25  and  C20_26 
REMARK    9  A    between atoms: C20_26  and  N5_27 
ROOT
HETATM    1  C3  UNL     1      23.056   3.000  50.383  1.00  0.00     0.097 A 
HETATM    2  C4  UNL     1      24.410   3.209  50.495  1.00  0.00     0.071 A 
HETATM    3  C5  UNL     1      25.177   2.482  51.380  1.00  0.00     0.070 A 
HETATM    4  N1  UNL     1      26.486   2.635  51.486  1.00  0.00    -0.259 NA
HETATM    5  C6  UNL     1      27.258   1.926  52.307  1.00  0.00     0.140 A 
HETATM    6  C7  UNL     1      26.653   0.989  53.084  1.00  0.00     0.073 A 
HETATM    7  C8  UNL     1      27.559   0.266  53.947  1.00  0.00     0.102 C 
HETATM    8  N2  UNL     1      28.298  -0.336  54.642  1.00  0.00    -0.191 NA
HETATM    9  C9  UNL     1      25.290   0.749  53.055  1.00  0.00    -0.001 A 
HETATM   10  C14 UNL     1      24.594   1.534  52.171  1.00  0.00     0.007 A 
HETATM   11  C15 UNL     1      23.244   1.338  52.044  1.00  0.00     0.047 A 
HETATM   12  C16 UNL     1      22.437   2.023  51.186  1.00  0.00     0.069 A 
ENDROOT
BRANCH   9  13
HETATM   13  C10 UNL     1      24.827  -0.273  53.935  1.00  0.00     0.014 C 
HETATM   14  C11 UNL     1      23.900  -0.951  54.518  1.00  0.00     0.002 C 
BRANCH  14  15
HETATM   15  C12 UNL     1      22.537  -1.244  54.772  1.00  0.00     0.017 C 
HETATM   16  C13 UNL     1      21.302  -1.021  54.835  1.00  0.00     0.080 C 
BRANCH  16  17
HETATM   17  N3  UNL     1      20.514   0.133  54.530  1.00  0.00    -0.408 N 
HETATM   18  H12 UNL     1      19.839   0.711  55.069  1.00  0.00     0.155 HD
HETATM   19  H13 UNL     1      20.498   0.636  53.608  1.00  0.00     0.155 HD
ENDBRANCH  16  17
ENDBRANCH  14  15
ENDBRANCH   9  13
BRANCH  12  20
HETATM   20  N4  UNL     1      21.076   1.869  50.981  1.00  0.00    -0.321 N 
HETATM   21  C17 UNL     1      19.973   2.253  51.745  1.00  0.00     0.245 C 
HETATM   22  O2  UNL     1      20.211   2.855  52.824  1.00  0.00    -0.268 OA
HETATM   23  H15 UNL     1      20.690   1.382  50.116  1.00  0.00     0.169 HD
BRANCH  21  24
HETATM   24  C18 UNL     1      18.567   2.050  51.458  1.00  0.00     0.072 C 
HETATM   25  C19 UNL     1      17.678   3.023  51.488  1.00  0.00     0.008 C 
BRANCH  25  26
HETATM   26  C20 UNL     1      16.238   2.863  51.205  1.00  0.00     0.299 C 
BRANCH  26  27
HETATM   27  N5  UNL     1      15.493   4.028  51.587  1.00  0.00     0.083 N 
HETATM   28  C21 UNL     1      15.192   4.068  53.000  1.00  0.00     0.309 C 
HETATM   29  C22 UNL     1      14.311   4.277  50.826  1.00  0.00     0.309 C 
ENDBRANCH  26  27
ENDBRANCH  25  26
ENDBRANCH  21  24
ENDBRANCH  12  20
BRANCH   1  30
HETATM   30  O1  UNL     1      22.329   3.753  49.484  1.00  0.00    -0.349 OA
BRANCH  30  31
HETATM   31  C2  UNL     1      22.495   3.811  48.106  1.00  0.00     0.171 C 
HETATM   32  C1  UNL     1      22.298   2.476  47.471  1.00  0.00     0.034 C 
ENDBRANCH  30  31
ENDBRANCH   1  30
TORSDOF 9
ENDMDL
MODEL 5
REMARK VINA RESULT:      -7.7      3.145      7.900
REMARK  9 active torsions:
REMARK  status: ('A' for Active; 'I' for Inactive)
REMARK    1  A    between atoms: C2_2  and  O1_3 
REMARK    2  A    between atoms: O1_3  and  C3_4 
REMARK    3  A    between atoms: C9_12  and  C10_13 
REMARK    4  A    between atoms: C11_14  and  C12_15 
REMARK    5  A    between atoms: C13_16  and  N3_17 
REMARK    6  A    between atoms: C16_20  and  N4_21 
REMARK       I    between atoms: N4_21  and  C17_22 
REMARK    7  A    between atoms: C17_22  and  C18_24 
REMARK    8  A    between atoms: C19_25  and  C20_26 
REMARK    9  A    between atoms: C20_26  and  N5_27 
ROOT
HETATM    1  C3  UNL     1      23.059   2.960  50.416  1.00  0.00     0.097 A 
HETATM    2  C4  UNL     1      24.414   3.170  50.509  1.00  0.00     0.071 A 
HETATM    3  C5  UNL     1      25.193   2.452  51.391  1.00  0.00     0.070 A 
HETATM    4  N1  UNL     1      26.503   2.606  51.479  1.00  0.00    -0.259 NA
HETATM    5  C6  UNL     1      27.286   1.906  52.297  1.00  0.00     0.140 A 
HETATM    6  C7  UNL     1      26.691   0.977  53.091  1.00  0.00     0.073 A 
HETATM    7  C8  UNL     1      27.608   0.262  53.949  1.00  0.00     0.102 C 
HETATM    8  N2  UNL     1      28.357  -0.333  54.641  1.00  0.00    -0.191 NA
HETATM    9  C9  UNL     1      25.328   0.736  53.081  1.00  0.00    -0.001 A 
HETATM   10  C14 UNL     1      24.621   1.511  52.198  1.00  0.00     0.007 A 
HETATM   11  C15 UNL     1      23.269   1.313  52.091  1.00  0.00     0.047 A 
HETATM   12  C16 UNL     1      22.451   1.990  51.236  1.00  0.00     0.069 A 
ENDROOT
BRANCH   9  13
HETATM   13  C10 UNL     1      24.877  -0.278  53.977  1.00  0.00     0.014 C 
HETATM   14  C11 UNL     1      23.958  -0.952  54.576  1.00  0.00     0.002 C 
BRANCH  14  15
HETATM   15  C12 UNL     1      22.598  -1.247  54.846  1.00  0.00     0.017 C 
HETATM   16  C13 UNL     1      21.360  -1.039  54.888  1.00  0.00     0.080 C 
BRANCH  16  17
HETATM   17  N3  UNL     1      20.556   0.077  54.498  1.00  0.00    -0.408 N 
HETATM   18  H12 UNL     1      19.632   0.446  54.802  1.00  0.00     0.155 HD
HETATM   19  H13 UNL     1      20.806   0.783  53.762  1.00  0.00     0.155 HD
ENDBRANCH  16  17
ENDBRANCH  14  15
ENDBRANCH   9  13
BRANCH  12  20
HETATM   20  N4  UNL     1      21.087   1.833  51.050  1.00  0.00    -0.321 N 
HETATM   21  C17 UNL     1      19.993   2.240  51.815  1.00  0.00     0.245 C 
HETATM   22  O2  UNL     1      20.244   2.871  52.874  1.00  0.00    -0.268 OA
HETATM   23  H15 UNL     1      20.692   1.324  50.202  1.00  0.00     0.169 HD
BRANCH  21  24
HETATM   24  C18 UNL     1      18.584   2.033  51.548  1.00  0.00     0.072 C 
HETATM   25  C19 UNL     1      18.031   0.837  51.492  1.00  0.00     0.008 C 
BRANCH  25  26
HETATM   26  C20 UNL     1      16.602   0.578  51.221  1.00  0.00     0.299 C 
BRANCH  26  27
HETATM   27  N5  UNL     1      16.047  -0.347  52.166  1.00  0.00     0.083 N 
HETATM   28  C21 UNL     1      17.053  -1.027  52.949  1.00  0.00     0.309 C 
HETATM   29  C22 UNL     1      15.122  -1.292  51.628  1.00  0.00     0.309 C 
ENDBRANCH  26  27
ENDBRANCH  25  26
ENDBRANCH  21  24
ENDBRANCH  12  20
BRANCH   1  30
HETATM   30  O1  UNL     1      22.320   3.703  49.519  1.00  0.00    -0.349 OA
BRANCH  30  31
HETATM   31  C2  UNL     1      22.130   5.080  49.520  1.00  0.00     0.171 C 
HETATM   32  C1  UNL     1      21.466   5.543  50.772  1.00  0.00     0.034 C 
ENDBRANCH  30  31
ENDBRANCH   1  30
TORSDOF 9
ENDMDL
MODEL 6
REMARK VINA RESULT:      -7.7      2.728      6.104
REMARK  9 active torsions:
REMARK  status: ('A' for Active; 'I' for Inactive)
REMARK    1  A    between atoms: C2_2  and  O1_3 
REMARK    2  A    between atoms: O1_3  and  C3_4 
REMARK    3  A    between atoms: C9_12  and  C10_13 
REMARK    4  A    between atoms: C11_14  and  C12_15 
REMARK    5  A    between atoms: C13_16  and  N3_17 
REMARK    6  A    between atoms: C16_20  and  N4_21 
REMARK       I    between atoms: N4_21  and  C17_22 
REMARK    7  A    between atoms: C17_22  and  C18_24 
REMARK    8  A    between atoms: C19_25  and  C20_26 
REMARK    9  A    between atoms: C20_26  and  N5_27 
ROOT
HETATM    1  C3  UNL     1      21.186   0.462  52.104  1.00  0.00     0.097 A 
HETATM    2  C4  UNL     1      21.721  -0.276  53.133  1.00  0.00     0.071 A 
HETATM    3  C5  UNL     1      23.069  -0.244  53.414  1.00  0.00     0.070 A 
HETATM    4  N1  UNL     1      23.608  -0.915  54.418  1.00  0.00    -0.259 NA
HETATM    5  C6  UNL     1      24.901  -0.878  54.734  1.00  0.00     0.140 A 
HETATM    6  C7  UNL     1      25.712  -0.101  53.969  1.00  0.00     0.073 A 
HETATM    7  C8  UNL     1      27.099  -0.118  54.376  1.00  0.00     0.102 C 
HETATM    8  N2  UNL     1      28.229  -0.119  54.715  1.00  0.00    -0.191 NA
HETATM    9  C9  UNL     1      25.254   0.640  52.894  1.00  0.00    -0.001 A 
HETATM   10  C14 UNL     1      23.906   0.530  52.662  1.00  0.00     0.007 A 
HETATM   11  C15 UNL     1      23.356   1.261  51.642  1.00  0.00     0.047 A 
HETATM   12  C16 UNL     1      22.031   1.271  51.321  1.00  0.00     0.069 A 
ENDROOT
BRANCH   9  13
HETATM   13  C10 UNL     1      26.243   1.401  52.205  1.00  0.00     0.014 C 
HETATM   14  C11 UNL     1      26.627   2.221  51.289  1.00  0.00     0.002 C 
BRANCH  14  15
HETATM   15  C12 UNL     1      26.373   3.064  50.178  1.00  0.00     0.017 C 
HETATM   16  C13 UNL     1      26.568   4.023  49.391  1.00  0.00     0.080 C 
BRANCH  16  17
HETATM   17  N3  UNL     1      27.571   5.041  49.341  1.00  0.00    -0.408 N 
HETATM   18  H12 UNL     1      28.529   5.134  49.734  1.00  0.00     0.155 HD
HETATM   19  H13 UNL     1      27.486   5.958  48.836  1.00  0.00     0.155 HD
ENDBRANCH  16  17
ENDBRANCH  14  15
ENDBRANCH   9  13
BRANCH  12  20
HETATM   20  N4  UNL     1      21.396   1.997  50.326  1.00  0.00    -0.321 N 
HETATM   21  C17 UNL     1      21.155   1.714  48.981  1.00  0.00     0.245 C 
HETATM   22  O2  UNL     1      21.572   0.609  48.549  1.00  0.00    -0.268 OA
HETATM   23  H15 UNL     1      20.978   2.958  50.514  1.00  0.00     0.169 HD
BRANCH  21  24
HETATM   24  C18 UNL     1      20.478   2.536  47.998  1.00  0.00     0.072 C 
HETATM   25  C19 UNL     1      20.794   3.796  47.772  1.00  0.00     0.008 C 
BRANCH  25  26
HETATM   26  C20 UNL     1      20.131   4.671  46.785  1.00  0.00     0.299 C 
BRANCH  26  27
HETATM   27  N5  UNL     1      21.077   5.249  45.875  1.00  0.00     0.083 N 
HETATM   28  C21 UNL     1      21.439   4.359  44.796  1.00  0.00     0.309 C 
HETATM   29  C22 UNL     1      22.251   5.796  46.475  1.00  0.00     0.309 C 
ENDBRANCH  26  27
ENDBRANCH  25  26
ENDBRANCH  21  24
ENDBRANCH  12  20
BRANCH   1  30
HETATM   30  O1  UNL     1      19.830   0.397  51.860  1.00  0.00    -0.349 OA
BRANCH  30  31
HETATM   31  C2  UNL     1      18.879  -0.326  52.571  1.00  0.00     0.171 C 
HETATM   32  C1  UNL     1      17.622  -0.500  51.788  1.00  0.00     0.034 C 
ENDBRANCH  30  31
ENDBRANCH   1  30
TORSDOF 9
ENDMDL
MODEL 7
REMARK VINA RESULT:      -7.6      1.883      2.820
REMARK  9 active torsions:
REMARK  status: ('A' for Active; 'I' for Inactive)
REMARK    1  A    between atoms: C2_2  and  O1_3 
REMARK    2  A    between atoms: O1_3  and  C3_4 
REMARK    3  A    between atoms: C9_12  and  C10_13 
REMARK    4  A    between atoms: C11_14  and  C12_15 
REMARK    5  A    between atoms: C13_16  and  N3_17 
REMARK    6  A    between atoms: C16_20  and  N4_21 
REMARK       I    between atoms: N4_21  and  C17_22 
REMARK    7  A    between atoms: C17_22  and  C18_24 
REMARK    8  A    between atoms: C19_25  and  C20_26 
REMARK    9  A    between atoms: C20_26  and  N5_27 
ROOT
HETATM    1  C3  UNL     1      24.026   0.557  53.094  1.00  0.00     0.097 A 
HETATM    2  C4  UNL     1      22.990  -0.021  53.789  1.00  0.00     0.071 A 
HETATM    3  C5  UNL     1      21.711  -0.051  53.276  1.00  0.00     0.070 A 
HETATM    4  N1  UNL     1      20.701  -0.631  53.902  1.00  0.00    -0.259 NA
HETATM    5  C6  UNL     1      19.464  -0.705  53.419  1.00  0.00     0.140 A 
HETATM    6  C7  UNL     1      19.231  -0.143  52.203  1.00  0.00     0.073 A 
HETATM    7  C8  UNL     1      17.864  -0.264  51.751  1.00  0.00     0.102 C 
HETATM    8  N2  UNL     1      16.751  -0.374  51.373  1.00  0.00    -0.191 NA
HETATM    9  C9  UNL     1      20.214   0.491  51.463  1.00  0.00    -0.001 A 
HETATM   10  C14 UNL     1      21.451   0.504  52.056  1.00  0.00     0.007 A 
HETATM   11  C15 UNL     1      22.495   1.074  51.377  1.00  0.00     0.047 A 
HETATM   12  C16 UNL     1      23.779   1.130  51.833  1.00  0.00     0.069 A 
ENDROOT
BRANCH   9  13
HETATM   13  C10 UNL     1      19.793   1.019  50.208  1.00  0.00     0.014 C 
HETATM   14  C11 UNL     1      19.945   1.764  49.168  1.00  0.00     0.002 C 
BRANCH  14  15
HETATM   15  C12 UNL     1      20.678   2.702  48.398  1.00  0.00     0.017 C 
HETATM   16  C13 UNL     1      21.632   3.470  48.119  1.00  0.00     0.080 C 
BRANCH  16  17
HETATM   17  N3  UNL     1      22.841   3.795  48.809  1.00  0.00    -0.408 N 
HETATM   18  H12 UNL     1      23.548   4.552  48.716  1.00  0.00     0.155 HD
HETATM   19  H13 UNL     1      23.248   3.259  49.617  1.00  0.00     0.155 HD
ENDBRANCH  16  17
ENDBRANCH  14  15
ENDBRANCH   9  13
BRANCH  12  20
HETATM   20  N4  UNL     1      24.890   1.664  51.200  1.00  0.00    -0.321 N 
HETATM   21  C17 UNL     1      25.289   2.984  50.982  1.00  0.00     0.245 C 
HETATM   22  O2  UNL     1      24.533   3.887  51.424  1.00  0.00    -0.268 OA
HETATM   23  H15 UNL     1      25.640   1.045  50.767  1.00  0.00     0.169 HD
BRANCH  21  24
HETATM   24  C18 UNL     1      26.477   3.462  50.303  1.00  0.00     0.072 C 
HETATM   25  C19 UNL     1      26.444   4.366  49.345  1.00  0.00     0.008 C 
BRANCH  25  26
HETATM   26  C20 UNL     1      27.627   4.880  48.625  1.00  0.00     0.299 C 
BRANCH  26  27
HETATM   27  N5  UNL     1      27.483   6.270  48.300  1.00  0.00     0.083 N 
HETATM   28  C21 UNL     1      28.744   6.973  48.254  1.00  0.00     0.309 C 
HETATM   29  C22 UNL     1      26.546   6.992  49.100  1.00  0.00     0.309 C 
ENDBRANCH  26  27
ENDBRANCH  25  26
ENDBRANCH  21  24
ENDBRANCH  12  20
BRANCH   1  30
HETATM   30  O1  UNL     1      25.289   0.565  53.648  1.00  0.00    -0.349 OA
BRANCH  30  31
HETATM   31  C2  UNL     1      26.087  -0.535  53.941  1.00  0.00     0.171 C 
HETATM   32  C1  UNL     1      26.699  -1.115  52.711  1.00  0.00     0.034 C 
ENDBRANCH  30  31
ENDBRANCH   1  30
TORSDOF 9
ENDMDL
MODEL 8
REMARK VINA RESULT:      -7.6      3.810      7.545
REMARK  9 active torsions:
REMARK  status: ('A' for Active; 'I' for Inactive)
REMARK    1  A    between atoms: C2_2  and  O1_3 
REMARK    2  A    between atoms: O1_3  and  C3_4 
REMARK    3  A    between atoms: C9_12  and  C10_13 
REMARK    4  A    between atoms: C11_14  and  C12_15 
REMARK    5  A    between atoms: C13_16  and  N3_17 
REMARK    6  A    between atoms: C16_20  and  N4_21 
REMARK       I    between atoms: N4_21  and  C17_22 
REMARK    7  A    between atoms: C17_22  and  C18_24 
REMARK    8  A    between atoms: C19_25  and  C20_26 
REMARK    9  A    between atoms: C20_26  and  N5_27 
ROOT
HETATM    1  C3  UNL     1      20.327  -0.354  53.576  1.00  0.00     0.097 A 
HETATM    2  C4  UNL     1      21.126  -0.961  54.515  1.00  0.00     0.071 A 
HETATM    3  C5  UNL     1      22.498  -0.825  54.486  1.00  0.00     0.070 A 
HETATM    4  N1  UNL     1      23.291  -1.367  55.395  1.00  0.00    -0.259 NA
HETATM    5  C6  UNL     1      24.614  -1.227  55.412  1.00  0.00     0.140 A 
HETATM    6  C7  UNL     1      25.179  -0.480  54.427  1.00  0.00     0.073 A 
HETATM    7  C8  UNL     1      26.618  -0.379  54.515  1.00  0.00     0.102 C 
HETATM    8  N2  UNL     1      27.791  -0.283  54.594  1.00  0.00    -0.191 NA
HETATM    9  C9  UNL     1      24.443   0.129  53.425  1.00  0.00    -0.001 A 
HETATM   10  C14 UNL     1      23.090  -0.078  53.508  1.00  0.00     0.007 A 
HETATM   11  C15 UNL     1      22.278   0.521  52.582  1.00  0.00     0.047 A 
HETATM   12  C16 UNL     1      20.918   0.425  52.563  1.00  0.00     0.069 A 
ENDROOT
BRANCH   9  13
HETATM   13  C10 UNL     1      25.199   0.878  52.476  1.00  0.00     0.014 C 
HETATM   14  C11 UNL     1      25.338   1.815  51.603  1.00  0.00     0.002 C 
BRANCH  14  15
HETATM   15  C12 UNL     1      24.836   2.903  50.845  1.00  0.00     0.017 C 
HETATM   16  C13 UNL     1      24.842   4.048  50.330  1.00  0.00     0.080 C 
BRANCH  16  17
HETATM   17  N3  UNL     1      25.795   5.113  50.358  1.00  0.00    -0.408 N 
HETATM   18  H12 UNL     1      26.586   5.361  50.985  1.00  0.00     0.155 HD
HETATM   19  H13 UNL     1      25.855   5.899  49.663  1.00  0.00     0.155 HD
ENDBRANCH  16  17
ENDBRANCH  14  15
ENDBRANCH   9  13
BRANCH  12  20
HETATM   20  N4  UNL     1      20.029   1.017  51.681  1.00  0.00    -0.321 N 
HETATM   21  C17 UNL     1      19.439   2.281  51.666  1.00  0.00     0.245 C 
HETATM   22  O2  UNL     1      19.744   3.061  52.605  1.00  0.00    -0.268 OA
HETATM   23  H15 UNL     1      19.663   0.501  50.823  1.00  0.00     0.169 HD
BRANCH  21  24
HETATM   24  C18 UNL     1      18.509   2.827  50.698  1.00  0.00     0.072 C 
HETATM   25  C19 UNL     1      17.501   3.609  51.030  1.00  0.00     0.008 C 
BRANCH  25  26
HETATM   26  C20 UNL     1      16.528   4.185  50.079  1.00  0.00     0.299 C 
BRANCH  26  27
HETATM   27  N5  UNL     1      15.235   4.340  50.680  1.00  0.00     0.083 N 
HETATM   28  C21 UNL     1      15.183   3.860  52.041  1.00  0.00     0.309 C 
HETATM   29  C22 UNL     1      14.143   3.809  49.929  1.00  0.00     0.309 C 
ENDBRANCH  26  27
ENDBRANCH  25  26
ENDBRANCH  21  24
ENDBRANCH  12  20
BRANCH   1  30
HETATM   30  O1  UNL     1      18.959  -0.519  53.645  1.00  0.00    -0.349 OA
BRANCH  30  31
HETATM   31  C2  UNL     1      18.183  -1.424  52.932  1.00  0.00     0.171 C 
HETATM   32  C1  UNL     1      17.888  -2.647  53.731  1.00  0.00     0.034 C 
ENDBRANCH  30  31
ENDBRANCH   1  30
TORSDOF 9
ENDMDL
MODEL 9
REMARK VINA RESULT:      -7.5      3.666      7.194
REMARK  9 active torsions:
REMARK  status: ('A' for Active; 'I' for Inactive)
REMARK    1  A    between atoms: C2_2  and  O1_3 
REMARK    2  A    between atoms: O1_3  and  C3_4 
REMARK    3  A    between atoms: C9_12  and  C10_13 
REMARK    4  A    between atoms: C11_14  and  C12_15 
REMARK    5  A    between atoms: C13_16  and  N3_17 
REMARK    6  A    between atoms: C16_20  and  N4_21 
REMARK       I    between atoms: N4_21  and  C17_22 
REMARK    7  A    between atoms: C17_22  and  C18_24 
REMARK    8  A    between atoms: C19_25  and  C20_26 
REMARK    9  A    between atoms: C20_26  and  N5_27 
ROOT
HETATM    1  C3  UNL     1      19.885  -0.628  53.408  1.00  0.00     0.097 A 
HETATM    2  C4  UNL     1      20.667  -1.225  54.367  1.00  0.00     0.071 A 
HETATM    3  C5  UNL     1      22.028  -1.012  54.419  1.00  0.00     0.070 A 
HETATM    4  N1  UNL     1      22.802  -1.543  55.350  1.00  0.00    -0.259 NA
HETATM    5  C6  UNL     1      24.113  -1.330  55.445  1.00  0.00     0.140 A 
HETATM    6  C7  UNL     1      24.684  -0.514  54.520  1.00  0.00     0.073 A 
HETATM    7  C8  UNL     1      26.108  -0.335  54.691  1.00  0.00     0.102 C 
HETATM    8  N2  UNL     1      27.268  -0.177  54.838  1.00  0.00    -0.191 NA
HETATM    9  C9  UNL     1      23.968   0.092  53.502  1.00  0.00    -0.001 A 
HETATM   10  C14 UNL     1      22.626  -0.194  53.503  1.00  0.00     0.007 A 
HETATM   11  C15 UNL     1      21.831   0.395  52.556  1.00  0.00     0.047 A 
HETATM   12  C16 UNL     1      20.482   0.223  52.459  1.00  0.00     0.069 A 
ENDROOT
BRANCH   9  13
HETATM   13  C10 UNL     1      24.728   0.920  52.624  1.00  0.00     0.014 C 
HETATM   14  C11 UNL     1      24.915   1.990  51.933  1.00  0.00     0.002 C 
BRANCH  14  15
HETATM   15  C12 UNL     1      24.504   3.262  51.461  1.00  0.00     0.017 C 
HETATM   16  C13 UNL     1      24.103   4.449  51.548  1.00  0.00     0.080 C 
BRANCH  16  17
HETATM   17  N3  UNL     1      23.784   5.280  52.668  1.00  0.00    -0.408 N 
HETATM   18  H12 UNL     1      24.346   5.850  53.331  1.00  0.00     0.155 HD
HETATM   19  H13 UNL     1      22.817   5.468  53.033  1.00  0.00     0.155 HD
ENDBRANCH  16  17
ENDBRANCH  14  15
ENDBRANCH   9  13
BRANCH  12  20
HETATM   20  N4  UNL     1      19.608   0.798  51.551  1.00  0.00    -0.321 N 
HETATM   21  C17 UNL     1      19.052   2.076  51.480  1.00  0.00     0.245 C 
HETATM   22  O2  UNL     1      19.378   2.889  52.384  1.00  0.00    -0.268 OA
HETATM   23  H15 UNL     1      19.228   0.255  50.717  1.00  0.00     0.169 HD
BRANCH  21  24
HETATM   24  C18 UNL     1      18.135   2.603  50.489  1.00  0.00     0.072 C 
HETATM   25  C19 UNL     1      18.296   2.422  49.192  1.00  0.00     0.008 C 
BRANCH  25  26
HETATM   26  C20 UNL     1      17.390   2.941  48.148  1.00  0.00     0.299 C 
BRANCH  26  27
HETATM   27  N5  UNL     1      18.097   3.222  46.931  1.00  0.00     0.083 N 
HETATM   28  C21 UNL     1      19.532   3.192  47.092  1.00  0.00     0.309 C 
HETATM   29  C22 UNL     1      17.703   4.416  46.254  1.00  0.00     0.309 C 
ENDBRANCH  26  27
ENDBRANCH  25  26
ENDBRANCH  21  24
ENDBRANCH  12  20
BRANCH   1  30
HETATM   30  O1  UNL     1      18.527  -0.872  53.396  1.00  0.00    -0.349 OA
BRANCH  30  31
HETATM   31  C2  UNL     1      17.892  -2.105  53.489  1.00  0.00     0.171 C 
HETATM   32  C1  UNL     1      16.611  -2.124  52.726  1.00  0.00     0.034 C 
ENDBRANCH  30  31
ENDBRANCH   1  30
TORSDOF 9
ENDMDL
