MODEL 1
REMARK VINA RESULT:      -8.1      0.000      0.000
REMARK  6 active torsions:
REMARK  status: ('A' for Active; 'I' for Inactive)
REMARK    1  A    between atoms: C5_5  and  N1_6 
REMARK    2  A    between atoms: N1_6  and  C6_7 
REMARK    3  A    between atoms: C9_12  and  C10_13 
REMARK    4  A    between atoms: C10_13  and  O1_14 
REMARK    5  A    between atoms: O1_14  and  C11_15 
REMARK    6  A    between atoms: C15_20  and  S1_21 
ROOT
HETATM    1  C1  UNL     1      30.058  -1.116  53.573  1.00  0.00     0.049 C 
HETATM    2  C2  UNL     1      28.596  -0.859  53.445  1.00  0.00    -0.041 A 
HETATM    3  C3  UNL     1      27.767  -1.809  52.863  1.00  0.00     0.010 A 
HETATM    4  C4  UNL     1      26.418  -1.576  52.744  1.00  0.00     0.030 A 
HETATM    5  C5  UNL     1      25.853  -0.401  53.194  1.00  0.00     0.031 A 
HETATM    6  C17 UNL     1      26.714   0.533  53.771  1.00  0.00     0.052 A 
HETATM    7  C18 UNL     1      28.071   0.331  53.908  1.00  0.00     0.052 A 
HETATM    8  C19 UNL     1      28.929   1.314  54.509  1.00  0.00     0.100 C 
HETATM    9  N4  UNL     1      29.628   2.124  54.981  1.00  0.00    -0.191 NA
ENDROOT
BRANCH   5  10
HETATM   10  N1  UNL     1      24.447  -0.148  53.073  1.00  0.00    -0.363 N 
HETATM   11  H6  UNL     1      23.819  -0.901  53.424  1.00  0.00     0.162 HD
BRANCH  10  12
HETATM   12  C6  UNL     1      23.993   1.081  52.500  1.00  0.00     0.149 A 
HETATM   13  N2  UNL     1      22.868   1.616  52.841  1.00  0.00    -0.186 NA
HETATM   14  C7  UNL     1      22.378   2.817  52.309  1.00  0.00     0.094 A 
HETATM   15  N3  UNL     1      23.487   2.364  51.916  1.00  0.00     0.000 N 
HETATM   16  C8  UNL     1      24.374   2.908  50.962  1.00  0.00    -0.046 A 
HETATM   17  C16 UNL     1      24.937   1.653  51.510  1.00  0.00     0.092 A 
HETATM   18  C9  UNL     1      24.973   3.646  50.050  1.00  0.00     0.051 C 
BRANCH  18  19
HETATM   19  C10 UNL     1      24.354   4.884  49.551  1.00  0.00     0.209 C 
HETATM   20  C14 UNL     1      23.974   5.792  50.696  1.00  0.00     0.245 C 
HETATM   21  O2  UNL     1      22.618   6.069  50.493  1.00  0.00    -0.346 OA
HETATM   22  C15 UNL     1      22.505   5.902  49.104  1.00  0.00     0.326 C 
HETATM   23  O3  UNL     1      23.130   4.667  48.937  1.00  0.00    -0.310 OA
BRANCH  19  24
HETATM   24  O1  UNL     1      25.132   5.549  48.592  1.00  0.00    -0.345 OA
BRANCH  24  25
HETATM   25  C11 UNL     1      26.326   5.928  49.234  1.00  0.00     0.117 C 
HETATM   26  C12 UNL     1      26.549   7.425  49.188  1.00  0.00     0.039 C 
HETATM   27  C13 UNL     1      27.528   5.310  48.552  1.00  0.00     0.039 C 
ENDBRANCH  24  25
ENDBRANCH  19  24
BRANCH  22  28
HETATM   28  S1  UNL     1      20.776   5.889  48.576  1.00  0.00    -0.123 SA
HETATM   29  H19 UNL     1      20.188   7.089  49.062  1.00  0.00     0.106 HD
ENDBRANCH  22  28
ENDBRANCH  18  19
ENDBRANCH  10  12
ENDBRANCH   5  10
TORSDOF 6
ENDMDL
MODEL 2
REMARK VINA RESULT:      -8.0      2.718      4.838
REMARK  6 active torsions:
REMARK  status: ('A' for Active; 'I' for Inactive)
REMARK    1  A    between atoms: C5_5  and  N1_6 
REMARK    2  A    between atoms: N1_6  and  C6_7 
REMARK    3  A    between atoms: C9_12  and  C10_13 
REMARK    4  A    between atoms: C10_13  and  O1_14 
REMARK    5  A    between atoms: O1_14  and  C11_15 
REMARK    6  A    between atoms: C15_20  and  S1_21 
ROOT
HETATM    1  C1  UNL     1      30.081  -0.817  53.671  1.00  0.00     0.049 C 
HETATM    2  C2  UNL     1      28.925   0.118  53.576  1.00  0.00    -0.041 A 
HETATM    3  C3  UNL     1      29.083   1.459  53.901  1.00  0.00     0.010 A 
HETATM    4  C4  UNL     1      28.019   2.325  53.814  1.00  0.00     0.030 A 
HETATM    5  C5  UNL     1      26.774   1.891  53.406  1.00  0.00     0.031 A 
HETATM    6  C17 UNL     1      26.651   0.538  53.089  1.00  0.00     0.052 A 
HETATM    7  C18 UNL     1      27.696  -0.357  53.164  1.00  0.00     0.052 A 
HETATM    8  C19 UNL     1      27.535  -1.745  52.829  1.00  0.00     0.100 C 
HETATM    9  N4  UNL     1      27.396  -2.877  52.573  1.00  0.00    -0.191 NA
ENDROOT
BRANCH   5  10
HETATM   10  N1  UNL     1      25.658   2.786  53.313  1.00  0.00    -0.363 N 
HETATM   11  H6  UNL     1      25.527   3.431  54.120  1.00  0.00     0.162 HD
BRANCH  10  12
HETATM   12  C6  UNL     1      24.814   2.751  52.160  1.00  0.00     0.149 A 
HETATM   13  N2  UNL     1      25.185   3.252  51.030  1.00  0.00    -0.186 NA
HETATM   14  C7  UNL     1      24.395   3.243  49.871  1.00  0.00     0.094 A 
HETATM   15  N3  UNL     1      23.953   2.733  50.935  1.00  0.00     0.000 N 
HETATM   16  C8  UNL     1      22.705   2.113  51.163  1.00  0.00    -0.046 A 
HETATM   17  C16 UNL     1      23.512   2.085  52.404  1.00  0.00     0.092 A 
HETATM   18  C9  UNL     1      21.491   1.609  51.064  1.00  0.00     0.051 C 
BRANCH  18  19
HETATM   19  C10 UNL     1      20.747   1.672  49.796  1.00  0.00     0.209 C 
HETATM   20  C14 UNL     1      21.561   1.086  48.667  1.00  0.00     0.245 C 
HETATM   21  O2  UNL     1      21.584   2.087  47.691  1.00  0.00    -0.346 OA
HETATM   22  C15 UNL     1      20.402   2.786  47.981  1.00  0.00     0.326 C 
HETATM   23  O3  UNL     1      20.538   2.971  49.356  1.00  0.00    -0.310 OA
BRANCH  19  24
HETATM   24  O1  UNL     1      19.469   1.101  49.871  1.00  0.00    -0.345 OA
BRANCH  24  25
HETATM   25  C11 UNL     1      19.065   1.194  51.217  1.00  0.00     0.117 C 
HETATM   26  C12 UNL     1      18.539  -0.123  51.748  1.00  0.00     0.039 C 
HETATM   27  C13 UNL     1      17.933   2.185  51.375  1.00  0.00     0.039 C 
ENDBRANCH  24  25
ENDBRANCH  19  24
BRANCH  22  28
HETATM   28  S1  UNL     1      20.314   4.346  47.071  1.00  0.00    -0.123 SA
HETATM   29  H19 UNL     1      20.928   5.334  47.889  1.00  0.00     0.106 HD
ENDBRANCH  22  28
ENDBRANCH  18  19
ENDBRANCH  10  12
ENDBRANCH   5  10
TORSDOF 6
ENDMDL
MODEL 3
REMARK VINA RESULT:      -7.9      3.037      4.495
REMARK  6 active torsions:
REMARK  status: ('A' for Active; 'I' for Inactive)
REMARK    1  A    between atoms: C5_5  and  N1_6 
REMARK    2  A    between atoms: N1_6  and  C6_7 
REMARK    3  A    between atoms: C9_12  and  C10_13 
REMARK    4  A    between atoms: C10_13  and  O1_14 
REMARK    5  A    between atoms: O1_14  and  C11_15 
REMARK    6  A    between atoms: C15_20  and  S1_21 
ROOT
HETATM    1  C1  UNL     1      26.390   0.304  54.856  1.00  0.00     0.049 C 
HETATM    2  C2  UNL     1      26.113   1.035  53.588  1.00  0.00    -0.041 A 
HETATM    3  C3  UNL     1      24.932   0.807  52.893  1.00  0.00     0.010 A 
HETATM    4  C4  UNL     1      24.672   1.480  51.724  1.00  0.00     0.030 A 
HETATM    5  C5  UNL     1      25.569   2.395  51.210  1.00  0.00     0.031 A 
HETATM    6  C17 UNL     1      26.745   2.599  51.933  1.00  0.00     0.052 A 
HETATM    7  C18 UNL     1      27.037   1.942  53.108  1.00  0.00     0.052 A 
HETATM    8  C19 UNL     1      28.258   2.178  53.828  1.00  0.00     0.100 C 
HETATM    9  N4  UNL     1      29.260   2.358  54.402  1.00  0.00    -0.191 NA
ENDROOT
BRANCH   5  10
HETATM   10  N1  UNL     1      25.307   3.102  49.990  1.00  0.00    -0.363 N 
HETATM   11  H6  UNL     1      24.987   2.519  49.189  1.00  0.00     0.162 HD
BRANCH  10  12
HETATM   12  C6  UNL     1      25.492   4.518  49.937  1.00  0.00     0.149 A 
HETATM   13  N2  UNL     1      24.710   5.330  50.567  1.00  0.00    -0.186 NA
HETATM   14  C7  UNL     1      24.847   6.725  50.547  1.00  0.00     0.094 A 
HETATM   15  N3  UNL     1      25.655   6.006  49.900  1.00  0.00     0.000 N 
HETATM   16  C8  UNL     1      26.750   6.408  49.103  1.00  0.00    -0.046 A 
HETATM   17  C16 UNL     1      26.652   4.931  49.111  1.00  0.00     0.092 A 
HETATM   18  C9  UNL     1      27.673   7.080  48.446  1.00  0.00     0.051 C 
BRANCH  18  19
HETATM   19  C10 UNL     1      27.710   8.551  48.485  1.00  0.00     0.209 C 
HETATM   20  C14 UNL     1      27.425   9.058  49.878  1.00  0.00     0.245 C 
HETATM   21  O2  UNL     1      26.370   9.962  49.717  1.00  0.00    -0.346 OA
HETATM   22  C15 UNL     1      26.554  10.370  48.386  1.00  0.00     0.326 C 
HETATM   23  O3  UNL     1      26.690   9.136  47.750  1.00  0.00    -0.310 OA
BRANCH  19  24
HETATM   24  O1  UNL     1      28.894   9.092  47.963  1.00  0.00    -0.345 OA
BRANCH  24  25
HETATM   25  C11 UNL     1      29.865   8.990  48.977  1.00  0.00     0.117 C 
HETATM   26  C12 UNL     1      30.564  10.309  49.233  1.00  0.00     0.039 C 
HETATM   27  C13 UNL     1      30.954   8.014  48.588  1.00  0.00     0.039 C 
ENDBRANCH  24  25
ENDBRANCH  19  24
BRANCH  22  28
HETATM   28  S1  UNL     1      25.138  11.317  47.781  1.00  0.00    -0.123 SA
HETATM   29  H19 UNL     1      24.484  11.854  48.924  1.00  0.00     0.106 HD
ENDBRANCH  22  28
ENDBRANCH  18  19
ENDBRANCH  10  12
ENDBRANCH   5  10
TORSDOF 6
ENDMDL
MODEL 4
REMARK VINA RESULT:      -7.9      1.610      2.182
REMARK  6 active torsions:
REMARK  status: ('A' for Active; 'I' for Inactive)
REMARK    1  A    between atoms: C5_5  and  N1_6 
REMARK    2  A    between atoms: N1_6  and  C6_7 
REMARK    3  A    between atoms: C9_12  and  C10_13 
REMARK    4  A    between atoms: C10_13  and  O1_14 
REMARK    5  A    between atoms: O1_14  and  C11_15 
REMARK    6  A    between atoms: C15_20  and  S1_21 
ROOT
HETATM    1  C1  UNL     1      29.864  -0.837  53.067  1.00  0.00     0.049 C 
HETATM    2  C2  UNL     1      28.404  -0.728  53.344  1.00  0.00    -0.041 A 
HETATM    3  C3  UNL     1      27.525  -1.683  52.849  1.00  0.00     0.010 A 
HETATM    4  C4  UNL     1      26.178  -1.587  53.103  1.00  0.00     0.030 A 
HETATM    5  C5  UNL     1      25.663  -0.548  53.851  1.00  0.00     0.031 A 
HETATM    6  C17 UNL     1      26.574   0.394  54.333  1.00  0.00     0.052 A 
HETATM    7  C18 UNL     1      27.930   0.327  54.098  1.00  0.00     0.052 A 
HETATM    8  C19 UNL     1      28.839   1.314  54.610  1.00  0.00     0.100 C 
HETATM    9  N4  UNL     1      29.575   2.129  55.013  1.00  0.00    -0.191 NA
ENDROOT
BRANCH   5  10
HETATM   10  N1  UNL     1      24.260  -0.439  54.121  1.00  0.00    -0.363 N 
HETATM   11  H6  UNL     1      23.927  -0.911  54.988  1.00  0.00     0.162 HD
BRANCH  10  12
HETATM   12  C6  UNL     1      23.418   0.285  53.221  1.00  0.00     0.149 A 
HETATM   13  N2  UNL     1      22.430  -0.280  52.611  1.00  0.00    -0.186 NA
HETATM   14  C7  UNL     1      21.576   0.385  51.719  1.00  0.00     0.094 A 
HETATM   15  N3  UNL     1      22.519   1.014  52.270  1.00  0.00     0.000 N 
HETATM   16  C8  UNL     1      22.878   2.371  52.124  1.00  0.00    -0.046 A 
HETATM   17  C16 UNL     1      23.792   1.713  53.085  1.00  0.00     0.092 A 
HETATM   18  C9  UNL     1      22.961   3.641  51.781  1.00  0.00     0.051 C 
BRANCH  18  19
HETATM   19  C10 UNL     1      22.016   4.229  50.819  1.00  0.00     0.209 C 
HETATM   20  C14 UNL     1      20.611   4.214  51.371  1.00  0.00     0.245 C 
HETATM   21  O2  UNL     1      19.852   3.569  50.388  1.00  0.00    -0.346 OA
HETATM   22  C15 UNL     1      20.605   3.837  49.234  1.00  0.00     0.326 C 
HETATM   23  O3  UNL     1      21.880   3.473  49.664  1.00  0.00    -0.310 OA
BRANCH  19  24
HETATM   24  O1  UNL     1      22.392   5.506  50.378  1.00  0.00    -0.345 OA
BRANCH  24  25
HETATM   25  C11 UNL     1      23.791   5.582  50.511  1.00  0.00     0.117 C 
HETATM   26  C12 UNL     1      24.230   6.853  51.209  1.00  0.00     0.039 C 
HETATM   27  C13 UNL     1      24.465   5.600  49.156  1.00  0.00     0.039 C 
ENDBRANCH  24  25
ENDBRANCH  19  24
BRANCH  22  28
HETATM   28  S1  UNL     1      20.033   2.856  47.827  1.00  0.00    -0.123 SA
HETATM   29  H19 UNL     1      20.746   1.626  47.867  1.00  0.00     0.106 HD
ENDBRANCH  22  28
ENDBRANCH  18  19
ENDBRANCH  10  12
ENDBRANCH   5  10
TORSDOF 6
ENDMDL
MODEL 5
REMARK VINA RESULT:      -7.8      3.529      4.377
REMARK  6 active torsions:
REMARK  status: ('A' for Active; 'I' for Inactive)
REMARK    1  A    between atoms: C5_5  and  N1_6 
REMARK    2  A    between atoms: N1_6  and  C6_7 
REMARK    3  A    between atoms: C9_12  and  C10_13 
REMARK    4  A    between atoms: C10_13  and  O1_14 
REMARK    5  A    between atoms: O1_14  and  C11_15 
REMARK    6  A    between atoms: C15_20  and  S1_21 
ROOT
HETATM    1  C1  UNL     1      29.915  -0.783  53.085  1.00  0.00     0.049 C 
HETATM    2  C2  UNL     1      28.453  -0.728  53.364  1.00  0.00    -0.041 A 
HETATM    3  C3  UNL     1      27.603  -1.690  52.834  1.00  0.00     0.010 A 
HETATM    4  C4  UNL     1      26.254  -1.643  53.089  1.00  0.00     0.030 A 
HETATM    5  C5  UNL     1      25.708  -0.646  53.872  1.00  0.00     0.031 A 
HETATM    6  C17 UNL     1      26.590   0.304  54.388  1.00  0.00     0.052 A 
HETATM    7  C18 UNL     1      27.947   0.286  54.153  1.00  0.00     0.052 A 
HETATM    8  C19 UNL     1      28.827   1.281  54.701  1.00  0.00     0.100 C 
HETATM    9  N4  UNL     1      29.538   2.103  55.133  1.00  0.00    -0.191 NA
ENDROOT
BRANCH   5  10
HETATM   10  N1  UNL     1      24.301  -0.588  54.143  1.00  0.00    -0.363 N 
HETATM   11  H6  UNL     1      23.965  -1.192  54.922  1.00  0.00     0.162 HD
BRANCH  10  12
HETATM   12  C6  UNL     1      23.462   0.265  53.361  1.00  0.00     0.149 A 
HETATM   13  N2  UNL     1      23.910   1.347  52.818  1.00  0.00    -0.186 NA
HETATM   14  C7  UNL     1      23.129   2.217  52.043  1.00  0.00     0.094 A 
HETATM   15  N3  UNL     1      22.609   1.181  52.539  1.00  0.00     0.000 N 
HETATM   16  C8  UNL     1      21.277   0.726  52.433  1.00  0.00    -0.046 A 
HETATM   17  C16 UNL     1      22.069  -0.229  53.242  1.00  0.00     0.092 A 
HETATM   18  C9  UNL     1      19.997   0.572  52.158  1.00  0.00     0.051 C 
BRANCH  18  19
HETATM   19  C10 UNL     1      19.273   1.562  51.345  1.00  0.00     0.209 C 
HETATM   20  C14 UNL     1      19.783   2.956  51.618  1.00  0.00     0.245 C 
HETATM   21  O2  UNL     1      18.640   3.691  51.951  1.00  0.00    -0.346 OA
HETATM   22  C15 UNL     1      17.640   2.969  51.281  1.00  0.00     0.326 C 
HETATM   23  O3  UNL     1      17.935   1.670  51.691  1.00  0.00    -0.310 OA
BRANCH  19  24
HETATM   24  O1  UNL     1      19.273   1.263  49.974  1.00  0.00    -0.345 OA
BRANCH  24  25
HETATM   25  C11 UNL     1      20.340   1.985  49.405  1.00  0.00     0.117 C 
HETATM   26  C12 UNL     1      19.890   2.851  48.247  1.00  0.00     0.039 C 
HETATM   27  C13 UNL     1      21.386   1.049  48.839  1.00  0.00     0.039 C 
ENDBRANCH  24  25
ENDBRANCH  19  24
BRANCH  22  28
HETATM   28  S1  UNL     1      15.987   3.504  51.783  1.00  0.00    -0.123 SA
HETATM   29  H19 UNL     1      16.039   3.737  53.185  1.00  0.00     0.106 HD
ENDBRANCH  22  28
ENDBRANCH  18  19
ENDBRANCH  10  12
ENDBRANCH   5  10
TORSDOF 6
ENDMDL
MODEL 6
REMARK VINA RESULT:      -7.8      3.851      7.525
REMARK  6 active torsions:
REMARK  status: ('A' for Active; 'I' for Inactive)
REMARK    1  A    between atoms: C5_5  and  N1_6 
REMARK    2  A    between atoms: N1_6  and  C6_7 
REMARK    3  A    between atoms: C9_12  and  C10_13 
REMARK    4  A    between atoms: C10_13  and  O1_14 
REMARK    5  A    between atoms: O1_14  and  C11_15 
REMARK    6  A    between atoms: C15_20  and  S1_21 
ROOT
HETATM    1  C1  UNL     1      28.770   9.868  49.410  1.00  0.00     0.049 C 
HETATM    2  C2  UNL     1      27.865   8.693  49.266  1.00  0.00    -0.041 A 
HETATM    3  C3  UNL     1      26.699   8.613  50.016  1.00  0.00     0.010 A 
HETATM    4  C4  UNL     1      25.862   7.532  49.886  1.00  0.00     0.030 A 
HETATM    5  C5  UNL     1      26.153   6.501  49.014  1.00  0.00     0.031 A 
HETATM    6  C17 UNL     1      27.333   6.614  48.278  1.00  0.00     0.052 A 
HETATM    7  C18 UNL     1      28.194   7.684  48.383  1.00  0.00     0.052 A 
HETATM    8  C19 UNL     1      29.401   7.768  47.608  1.00  0.00     0.100 C 
HETATM    9  N4  UNL     1      30.392   7.825  46.990  1.00  0.00    -0.191 NA
ENDROOT
BRANCH   5  10
HETATM   10  N1  UNL     1      25.286   5.368  48.872  1.00  0.00    -0.363 N 
HETATM   11  H6  UNL     1      24.847   5.249  47.936  1.00  0.00     0.162 HD
BRANCH  10  12
HETATM   12  C6  UNL     1      25.076   4.491  49.982  1.00  0.00     0.149 A 
HETATM   13  N2  UNL     1      24.080   4.644  50.789  1.00  0.00    -0.186 NA
HETATM   14  C7  UNL     1      23.831   3.812  51.891  1.00  0.00     0.094 A 
HETATM   15  N3  UNL     1      24.829   3.593  51.154  1.00  0.00     0.000 N 
HETATM   16  C8  UNL     1      25.803   2.577  51.269  1.00  0.00    -0.046 A 
HETATM   17  C16 UNL     1      26.094   3.418  50.085  1.00  0.00     0.092 A 
HETATM   18  C9  UNL     1      26.537   1.546  51.636  1.00  0.00     0.051 C 
BRANCH  18  19
HETATM   19  C10 UNL     1      26.186   0.753  52.824  1.00  0.00     0.209 C 
HETATM   20  C14 UNL     1      26.398  -0.720  52.568  1.00  0.00     0.245 C 
HETATM   21  O2  UNL     1      25.173  -1.315  52.889  1.00  0.00    -0.346 OA
HETATM   22  C15 UNL     1      24.653  -0.397  53.815  1.00  0.00     0.326 C 
HETATM   23  O3  UNL     1      24.833   0.801  53.126  1.00  0.00    -0.310 OA
BRANCH  19  24
HETATM   24  O1  UNL     1      26.836   1.180  53.991  1.00  0.00    -0.345 OA
BRANCH  24  25
HETATM   25  C11 UNL     1      28.217   1.047  53.754  1.00  0.00     0.117 C 
HETATM   26  C12 UNL     1      28.888   0.152  54.776  1.00  0.00     0.039 C 
HETATM   27  C13 UNL     1      28.916   2.385  53.855  1.00  0.00     0.039 C 
ENDBRANCH  24  25
ENDBRANCH  19  24
BRANCH  22  28
HETATM   28  S1  UNL     1      22.915  -0.739  54.182  1.00  0.00    -0.123 SA
HETATM   29  H19 UNL     1      22.897  -1.644  55.279  1.00  0.00     0.106 HD
ENDBRANCH  22  28
ENDBRANCH  18  19
ENDBRANCH  10  12
ENDBRANCH   5  10
TORSDOF 6
ENDMDL
MODEL 7
REMARK VINA RESULT:      -7.7      3.239      5.032
REMARK  6 active torsions:
REMARK  status: ('A' for Active; 'I' for Inactive)
REMARK    1  A    between atoms: C5_5  and  N1_6 
REMARK    2  A    between atoms: N1_6  and  C6_7 
REMARK    3  A    between atoms: C9_12  and  C10_13 
REMARK    4  A    between atoms: C10_13  and  O1_14 
REMARK    5  A    between atoms: O1_14  and  C11_15 
REMARK    6  A    between atoms: C15_20  and  S1_21 
ROOT
HETATM    1  C1  UNL     1      26.337   0.193  54.486  1.00  0.00     0.049 C 
HETATM    2  C2  UNL     1      26.044   0.999  53.268  1.00  0.00    -0.041 A 
HETATM    3  C3  UNL     1      27.045   1.753  52.670  1.00  0.00     0.010 A 
HETATM    4  C4  UNL     1      26.779   2.497  51.546  1.00  0.00     0.030 A 
HETATM    5  C5  UNL     1      25.519   2.517  50.983  1.00  0.00     0.031 A 
HETATM    6  C17 UNL     1      24.536   1.750  51.610  1.00  0.00     0.052 A 
HETATM    7  C18 UNL     1      24.769   0.992  52.736  1.00  0.00     0.052 A 
HETATM    8  C19 UNL     1      23.734   0.211  53.355  1.00  0.00     0.100 C 
HETATM    9  N4  UNL     1      22.885  -0.408  53.868  1.00  0.00    -0.191 NA
ENDROOT
BRANCH   5  10
HETATM   10  N1  UNL     1      25.231   3.291  49.811  1.00  0.00    -0.363 N 
HETATM   11  H6  UNL     1      24.846   2.761  49.002  1.00  0.00     0.162 HD
BRANCH  10  12
HETATM   12  C6  UNL     1      25.476   4.700  49.812  1.00  0.00     0.149 A 
HETATM   13  N2  UNL     1      24.734   5.518  50.481  1.00  0.00    -0.186 NA
HETATM   14  C7  UNL     1      24.932   6.907  50.514  1.00  0.00     0.094 A 
HETATM   15  N3  UNL     1      25.703   6.180  49.832  1.00  0.00     0.000 N 
HETATM   16  C8  UNL     1      26.809   6.565  49.042  1.00  0.00    -0.046 A 
HETATM   17  C16 UNL     1      26.647   5.094  48.993  1.00  0.00     0.092 A 
HETATM   18  C9  UNL     1      27.756   7.223  48.404  1.00  0.00     0.051 C 
BRANCH  18  19
HETATM   19  C10 UNL     1      27.857   8.688  48.500  1.00  0.00     0.209 C 
HETATM   20  C14 UNL     1      27.561   9.154  49.905  1.00  0.00     0.245 C 
HETATM   21  O2  UNL     1      26.550  10.110  49.755  1.00  0.00    -0.346 OA
HETATM   22  C15 UNL     1      26.785  10.559  48.445  1.00  0.00     0.326 C 
HETATM   23  O3  UNL     1      26.881   9.345  47.766  1.00  0.00    -0.310 OA
BRANCH  19  24
HETATM   24  O1  UNL     1      29.075   9.194  48.026  1.00  0.00    -0.345 OA
BRANCH  24  25
HETATM   25  C11 UNL     1      29.949   9.239  49.129  1.00  0.00     0.117 C 
HETATM   26  C12 UNL     1      30.624  10.588  49.267  1.00  0.00     0.039 C 
HETATM   27  C13 UNL     1      31.067   8.231  48.976  1.00  0.00     0.039 C 
ENDBRANCH  24  25
ENDBRANCH  19  24
BRANCH  22  28
HETATM   28  S1  UNL     1      25.427  11.591  47.846  1.00  0.00    -0.123 SA
HETATM   29  H19 UNL     1      24.407  10.708  47.394  1.00  0.00     0.106 HD
ENDBRANCH  22  28
ENDBRANCH  18  19
ENDBRANCH  10  12
ENDBRANCH   5  10
TORSDOF 6
ENDMDL
MODEL 8
REMARK VINA RESULT:      -7.7      2.806      4.641
REMARK  6 active torsions:
REMARK  status: ('A' for Active; 'I' for Inactive)
REMARK    1  A    between atoms: C5_5  and  N1_6 
REMARK    2  A    between atoms: N1_6  and  C6_7 
REMARK    3  A    between atoms: C9_12  and  C10_13 
REMARK    4  A    between atoms: C10_13  and  O1_14 
REMARK    5  A    between atoms: O1_14  and  C11_15 
REMARK    6  A    between atoms: C15_20  and  S1_21 
ROOT
HETATM    1  C1  UNL     1      29.818  -1.003  53.289  1.00  0.00     0.049 C 
HETATM    2  C2  UNL     1      28.352  -0.738  53.332  1.00  0.00    -0.041 A 
HETATM    3  C3  UNL     1      27.460  -1.657  52.795  1.00  0.00     0.010 A 
HETATM    4  C4  UNL     1      26.107  -1.417  52.833  1.00  0.00     0.030 A 
HETATM    5  C5  UNL     1      25.600  -0.266  53.401  1.00  0.00     0.031 A 
HETATM    6  C17 UNL     1      26.525   0.636  53.930  1.00  0.00     0.052 A 
HETATM    7  C18 UNL     1      27.887   0.426  53.910  1.00  0.00     0.052 A 
HETATM    8  C19 UNL     1      28.810   1.376  54.465  1.00  0.00     0.100 C 
HETATM    9  N4  UNL     1      29.561   2.159  54.901  1.00  0.00    -0.191 NA
ENDROOT
BRANCH   5  10
HETATM   10  N1  UNL     1      24.191  -0.006  53.445  1.00  0.00    -0.363 N 
HETATM   11  H6  UNL     1      23.685  -0.394  54.267  1.00  0.00     0.162 HD
BRANCH  10  12
HETATM   12  C6  UNL     1      23.575   0.746  52.397  1.00  0.00     0.149 A 
HETATM   13  N2  UNL     1      24.234   1.615  51.705  1.00  0.00    -0.186 NA
HETATM   14  C7  UNL     1      23.677   2.378  50.669  1.00  0.00     0.094 A 
HETATM   15  N3  UNL     1      22.959   1.553  51.295  1.00  0.00     0.000 N 
HETATM   16  C8  UNL     1      21.592   1.253  51.108  1.00  0.00    -0.046 A 
HETATM   17  C16 UNL     1      22.143   0.415  52.197  1.00  0.00     0.092 A 
HETATM   18  C9  UNL     1      20.339   1.201  50.703  1.00  0.00     0.051 C 
BRANCH  18  19
HETATM   19  C10 UNL     1      19.860   2.064  49.611  1.00  0.00     0.209 C 
HETATM   20  C14 UNL     1      20.743   1.929  48.394  1.00  0.00     0.245 C 
HETATM   21  O2  UNL     1      21.125   3.240  48.087  1.00  0.00    -0.346 OA
HETATM   22  C15 UNL     1      20.057   3.974  48.628  1.00  0.00     0.326 C 
HETATM   23  O3  UNL     1      19.974   3.415  49.902  1.00  0.00    -0.310 OA
BRANCH  19  24
HETATM   24  O1  UNL     1      18.507   1.869  49.301  1.00  0.00    -0.345 OA
BRANCH  24  25
HETATM   25  C11 UNL     1      17.942   1.168  50.383  1.00  0.00     0.117 C 
HETATM   26  C12 UNL     1      17.149  -0.040  49.929  1.00  0.00     0.039 C 
HETATM   27  C13 UNL     1      16.967   2.040  51.145  1.00  0.00     0.039 C 
ENDBRANCH  24  25
ENDBRANCH  19  24
BRANCH  22  28
HETATM   28  S1  UNL     1      20.421   5.745  48.662  1.00  0.00    -0.123 SA
HETATM   29  H19 UNL     1      21.813   5.873  48.921  1.00  0.00     0.106 HD
ENDBRANCH  22  28
ENDBRANCH  18  19
ENDBRANCH  10  12
ENDBRANCH   5  10
TORSDOF 6
ENDMDL
MODEL 9
REMARK VINA RESULT:      -7.6      1.590      2.512
REMARK  6 active torsions:
REMARK  status: ('A' for Active; 'I' for Inactive)
REMARK    1  A    between atoms: C5_5  and  N1_6 
REMARK    2  A    between atoms: N1_6  and  C6_7 
REMARK    3  A    between atoms: C9_12  and  C10_13 
REMARK    4  A    between atoms: C10_13  and  O1_14 
REMARK    5  A    between atoms: O1_14  and  C11_15 
REMARK    6  A    between atoms: C15_20  and  S1_21 
ROOT
HETATM    1  C1  UNL     1      29.667  -0.999  53.529  1.00  0.00     0.049 C 
HETATM    2  C2  UNL     1      28.254  -0.553  53.371  1.00  0.00    -0.041 A 
HETATM    3  C3  UNL     1      27.313  -1.400  52.802  1.00  0.00     0.010 A 
HETATM    4  C4  UNL     1      26.009  -0.993  52.655  1.00  0.00     0.030 A 
HETATM    5  C5  UNL     1      25.600   0.260  53.065  1.00  0.00     0.031 A 
HETATM    6  C17 UNL     1      26.571   1.086  53.631  1.00  0.00     0.052 A 
HETATM    7  C18 UNL     1      27.887   0.709  53.794  1.00  0.00     0.052 A 
HETATM    8  C19 UNL     1      28.861   1.586  54.383  1.00  0.00     0.100 C 
HETATM    9  N4  UNL     1      29.657   2.307  54.845  1.00  0.00    -0.191 NA
ENDROOT
BRANCH   5  10
HETATM   10  N1  UNL     1      24.242   0.694  52.915  1.00  0.00    -0.363 N 
HETATM   11  H6  UNL     1      23.514   0.023  53.238  1.00  0.00     0.162 HD
BRANCH  10  12
HETATM   12  C6  UNL     1      23.966   1.979  52.352  1.00  0.00     0.149 A 
HETATM   13  N2  UNL     1      23.751   3.014  53.094  1.00  0.00    -0.186 NA
HETATM   14  C7  UNL     1      23.475   4.294  52.592  1.00  0.00     0.094 A 
HETATM   15  N3  UNL     1      23.670   3.338  51.796  1.00  0.00     0.000 N 
HETATM   16  C8  UNL     1      23.653   3.349  50.384  1.00  0.00    -0.046 A 
HETATM   17  C16 UNL     1      23.965   1.985  50.870  1.00  0.00     0.092 A 
HETATM   18  C9  UNL     1      23.568   3.673  49.110  1.00  0.00     0.051 C 
BRANCH  18  19
HETATM   19  C10 UNL     1      23.256   5.051  48.699  1.00  0.00     0.209 C 
HETATM   20  C14 UNL     1      24.421   5.970  48.975  1.00  0.00     0.245 C 
HETATM   21  O2  UNL     1      23.879   7.007  49.742  1.00  0.00    -0.346 OA
HETATM   22  C15 UNL     1      22.536   6.984  49.332  1.00  0.00     0.326 C 
HETATM   23  O3  UNL     1      22.248   5.626  49.459  1.00  0.00    -0.310 OA
BRANCH  19  24
HETATM   24  O1  UNL     1      22.814   5.150  47.371  1.00  0.00    -0.345 OA
BRANCH  24  25
HETATM   25  C11 UNL     1      21.867   4.125  47.185  1.00  0.00     0.117 C 
HETATM   26  C12 UNL     1      22.078   3.384  45.881  1.00  0.00     0.039 C 
HETATM   27  C13 UNL     1      20.464   4.689  47.117  1.00  0.00     0.039 C 
ENDBRANCH  24  25
ENDBRANCH  19  24
BRANCH  22  28
HETATM   28  S1  UNL     1      21.502   8.021  50.392  1.00  0.00    -0.123 SA
HETATM   29  H19 UNL     1      22.296   9.136  50.778  1.00  0.00     0.106 HD
ENDBRANCH  22  28
ENDBRANCH  18  19
ENDBRANCH  10  12
ENDBRANCH   5  10
TORSDOF 6
ENDMDL
