MODEL 1
REMARK VINA RESULT:      -8.7      0.000      0.000
REMARK  7 active torsions:
REMARK  status: ('A' for Active; 'I' for Inactive)
REMARK    1  A    between atoms: C6_6  and  O1_7 
REMARK    2  A    between atoms: C7_8  and  C8_9 
REMARK    3  A    between atoms: C8_9  and  N1_10 
REMARK    4  A    between atoms: N1_10  and  C9_11 
REMARK       I    between atoms: N1_10  and  C16_19 
REMARK    5  A    between atoms: C9_11  and  C10_12 
REMARK    6  A    between atoms: C13_15  and  O2_16 
REMARK    7  A    between atoms: C16_19  and  C17_21 
ROOT
HETATM    1  N1  UNL     1      25.960   2.359  51.714  1.00  0.00    -0.339 N 
HETATM    2  C16 UNL     1      24.938   2.579  52.716  1.00  0.00     0.255 C 
HETATM    3  O3  UNL     1      25.157   2.653  53.975  1.00  0.00    -0.267 OA
ENDROOT
BRANCH   1   4
HETATM    4  C8  UNL     1      25.816   2.384  50.290  1.00  0.00     0.167 C 
BRANCH   4   5
HETATM    5  C7  UNL     1      25.720   3.703  49.650  1.00  0.00    -0.006 A 
HETATM    6  C6  UNL     1      26.593   4.707  49.334  1.00  0.00     0.079 A 
HETATM    7  C4  UNL     1      26.301   5.915  48.761  1.00  0.00    -0.028 A 
HETATM    8  C3  UNL     1      25.000   6.207  48.443  1.00  0.00     0.016 A 
HETATM    9  C5  UNL     1      27.415   6.873  48.502  1.00  0.00     0.051 C 
HETATM   10  C2  UNL     1      24.014   5.302  48.698  1.00  0.00    -0.061 A 
HETATM   11  C1  UNL     1      22.609   5.595  48.367  1.00  0.00     0.048 C 
HETATM   12  C22 UNL     1      24.422   4.115  49.281  1.00  0.00     0.018 A 
BRANCH   6  13
HETATM   13  O1  UNL     1      27.901   4.443  49.638  1.00  0.00    -0.360 OA
HETATM   14  H8  UNL     1      28.354   3.555  49.659  1.00  0.00     0.217 HD
ENDBRANCH   6  13
ENDBRANCH   4   5
ENDBRANCH   1   4
BRANCH   1  15
HETATM   15  C9  UNL     1      27.232   2.063  52.321  1.00  0.00     0.165 C 
BRANCH  15  16
HETATM   16  C10 UNL     1      27.528   0.643  52.571  1.00  0.00    -0.040 A 
HETATM   17  C11 UNL     1      28.709   0.248  53.166  1.00  0.00     0.011 A 
HETATM   18  C12 UNL     1      29.061  -1.060  53.436  1.00  0.00     0.037 A 
HETATM   19  C13 UNL     1      28.202  -2.075  53.102  1.00  0.00     0.065 A 
HETATM   20  C14 UNL     1      27.007  -1.752  52.503  1.00  0.00     0.037 A 
HETATM   21  C15 UNL     1      26.720  -0.427  52.265  1.00  0.00     0.011 A 
BRANCH  19  22
HETATM   22  O2  UNL     1      28.514  -3.404  53.353  1.00  0.00    -0.361 OA
HETATM   23  H15 UNL     1      27.937  -4.031  53.875  1.00  0.00     0.217 HD
ENDBRANCH  19  22
ENDBRANCH  15  16
ENDBRANCH   1  15
BRANCH   2  24
HETATM   24  C17 UNL     1      23.495   2.736  52.414  1.00  0.00     0.043 C 
HETATM   25  C18 UNL     1      22.559   3.675  52.363  1.00  0.00    -0.009 C 
HETATM   26  C19 UNL     1      21.724   3.579  51.369  1.00  0.00     0.013 C 
HETATM   27  C20 UNL     1      21.554   2.130  51.336  1.00  0.00     0.002 C 
HETATM   28  C21 UNL     1      22.638   1.635  51.975  1.00  0.00     0.018 C 
ENDBRANCH   2  24
TORSDOF 7
ENDMDL
MODEL 2
REMARK VINA RESULT:      -8.6      2.074      6.146
REMARK  7 active torsions:
REMARK  status: ('A' for Active; 'I' for Inactive)
REMARK    1  A    between atoms: C6_6  and  O1_7 
REMARK    2  A    between atoms: C7_8  and  C8_9 
REMARK    3  A    between atoms: C8_9  and  N1_10 
REMARK    4  A    between atoms: N1_10  and  C9_11 
REMARK       I    between atoms: N1_10  and  C16_19 
REMARK    5  A    between atoms: C9_11  and  C10_12 
REMARK    6  A    between atoms: C13_15  and  O2_16 
REMARK    7  A    between atoms: C16_19  and  C17_21 
ROOT
HETATM    1  N1  UNL     1      23.739   1.812  51.640  1.00  0.00    -0.339 N 
HETATM    2  C16 UNL     1      22.654   0.874  51.844  1.00  0.00     0.255 C 
HETATM    3  O3  UNL     1      21.936   0.377  50.909  1.00  0.00    -0.267 OA
ENDROOT
BRANCH   1   4
HETATM    4  C8  UNL     1      24.660   2.317  52.613  1.00  0.00     0.167 C 
BRANCH   4   5
HETATM    5  C7  UNL     1      25.846   1.498  52.900  1.00  0.00    -0.006 A 
HETATM    6  C6  UNL     1      27.054   1.699  53.510  1.00  0.00     0.079 A 
HETATM    7  C4  UNL     1      28.076   0.800  53.648  1.00  0.00    -0.028 A 
HETATM    8  C3  UNL     1      27.930  -0.463  53.136  1.00  0.00     0.016 A 
HETATM    9  C5  UNL     1      29.319   1.232  54.353  1.00  0.00     0.051 C 
HETATM   10  C2  UNL     1      26.778  -0.813  52.498  1.00  0.00    -0.061 A 
HETATM   11  C1  UNL     1      26.599  -2.164  51.940  1.00  0.00     0.048 C 
HETATM   12  C22 UNL     1      25.812   0.173  52.415  1.00  0.00     0.018 A 
BRANCH   6  13
HETATM   13  O1  UNL     1      27.228   2.952  54.033  1.00  0.00    -0.360 OA
HETATM   14  H8  UNL     1      26.530   3.642  54.207  1.00  0.00     0.217 HD
ENDBRANCH   6  13
ENDBRANCH   4   5
ENDBRANCH   1   4
BRANCH   1  15
HETATM   15  C9  UNL     1      23.800   2.250  50.270  1.00  0.00     0.165 C 
BRANCH  15  16
HETATM   16  C10 UNL     1      24.763   3.321  49.963  1.00  0.00    -0.040 A 
HETATM   17  C11 UNL     1      24.417   4.652  50.070  1.00  0.00     0.011 A 
HETATM   18  C12 UNL     1      25.259   5.714  49.803  1.00  0.00     0.037 A 
HETATM   19  C13 UNL     1      26.546   5.470  49.394  1.00  0.00     0.065 A 
HETATM   20  C14 UNL     1      26.956   4.165  49.265  1.00  0.00     0.037 A 
HETATM   21  C15 UNL     1      26.064   3.156  49.549  1.00  0.00     0.011 A 
BRANCH  19  22
HETATM   22  O2  UNL     1      27.427   6.505  49.113  1.00  0.00    -0.361 OA
HETATM   23  H15 UNL     1      27.149   7.430  48.856  1.00  0.00     0.217 HD
ENDBRANCH  19  22
ENDBRANCH  15  16
ENDBRANCH   1  15
BRANCH   2  24
HETATM   24  C17 UNL     1      22.225   0.372  53.172  1.00  0.00     0.043 C 
HETATM   25  C18 UNL     1      21.291   0.583  54.090  1.00  0.00    -0.009 C 
HETATM   26  C19 UNL     1      20.807  -0.487  54.652  1.00  0.00     0.013 C 
HETATM   27  C20 UNL     1      22.031  -1.271  54.771  1.00  0.00     0.002 C 
HETATM   28  C21 UNL     1      22.881  -0.736  53.866  1.00  0.00     0.018 C 
ENDBRANCH   2  24
TORSDOF 7
ENDMDL
MODEL 3
REMARK VINA RESULT:      -8.5      2.309      6.569
REMARK  7 active torsions:
REMARK  status: ('A' for Active; 'I' for Inactive)
REMARK    1  A    between atoms: C6_6  and  O1_7 
REMARK    2  A    between atoms: C7_8  and  C8_9 
REMARK    3  A    between atoms: C8_9  and  N1_10 
REMARK    4  A    between atoms: N1_10  and  C9_11 
REMARK       I    between atoms: N1_10  and  C16_19 
REMARK    5  A    between atoms: C9_11  and  C10_12 
REMARK    6  A    between atoms: C13_15  and  O2_16 
REMARK    7  A    between atoms: C16_19  and  C17_21 
ROOT
HETATM    1  N1  UNL     1      24.022   1.930  51.803  1.00  0.00    -0.339 N 
HETATM    2  C16 UNL     1      22.835   1.136  51.561  1.00  0.00     0.255 C 
HETATM    3  O3  UNL     1      22.311   0.943  50.410  1.00  0.00    -0.267 OA
ENDROOT
BRANCH   1   4
HETATM    4  C8  UNL     1      24.736   2.094  53.033  1.00  0.00     0.167 C 
BRANCH   4   5
HETATM    5  C7  UNL     1      25.979   1.329  53.193  1.00  0.00    -0.006 A 
HETATM    6  C6  UNL     1      27.240   1.589  53.657  1.00  0.00     0.079 A 
HETATM    7  C4  UNL     1      28.307   0.734  53.689  1.00  0.00    -0.028 A 
HETATM    8  C3  UNL     1      28.156  -0.544  53.216  1.00  0.00     0.016 A 
HETATM    9  C5  UNL     1      29.604   1.227  54.241  1.00  0.00     0.051 C 
HETATM   10  C2  UNL     1      26.954  -0.951  52.720  1.00  0.00    -0.061 A 
HETATM   11  C1  UNL     1      26.769  -2.318  52.205  1.00  0.00     0.048 C 
HETATM   12  C22 UNL     1      25.945  -0.005  52.735  1.00  0.00     0.018 A 
BRANCH   6  13
HETATM   13  O1  UNL     1      27.421   2.857  54.139  1.00  0.00    -0.360 OA
HETATM   14  H8  UNL     1      28.171   3.192  54.704  1.00  0.00     0.217 HD
ENDBRANCH   6  13
ENDBRANCH   4   5
ENDBRANCH   1   4
BRANCH   1  15
HETATM   15  C9  UNL     1      24.443   2.618  50.609  1.00  0.00     0.165 C 
BRANCH  15  16
HETATM   16  C10 UNL     1      24.478   4.088  50.673  1.00  0.00    -0.040 A 
HETATM   17  C11 UNL     1      23.522   4.800  51.368  1.00  0.00     0.011 A 
HETATM   18  C12 UNL     1      23.484   6.177  51.478  1.00  0.00     0.037 A 
HETATM   19  C13 UNL     1      24.449   6.932  50.862  1.00  0.00     0.065 A 
HETATM   20  C14 UNL     1      25.432   6.285  50.151  1.00  0.00     0.037 A 
HETATM   21  C15 UNL     1      25.409   4.911  50.084  1.00  0.00     0.011 A 
BRANCH  19  22
HETATM   22  O2  UNL     1      24.450   8.317  50.944  1.00  0.00    -0.361 OA
HETATM   23  H15 UNL     1      24.689   8.927  50.189  1.00  0.00     0.217 HD
ENDBRANCH  19  22
ENDBRANCH  15  16
ENDBRANCH   1  15
BRANCH   2  24
HETATM   24  C17 UNL     1      22.063   0.449  52.624  1.00  0.00     0.043 C 
HETATM   25  C18 UNL     1      22.088  -0.662  53.349  1.00  0.00    -0.009 C 
HETATM   26  C19 UNL     1      21.754  -0.521  54.599  1.00  0.00     0.013 C 
HETATM   27  C20 UNL     1      20.663   0.436  54.450  1.00  0.00     0.002 C 
HETATM   28  C21 UNL     1      20.866   1.015  53.246  1.00  0.00     0.018 C 
ENDBRANCH   2  24
TORSDOF 7
ENDMDL
MODEL 4
REMARK VINA RESULT:      -8.2      1.764      4.832
REMARK  7 active torsions:
REMARK  status: ('A' for Active; 'I' for Inactive)
REMARK    1  A    between atoms: C6_6  and  O1_7 
REMARK    2  A    between atoms: C7_8  and  C8_9 
REMARK    3  A    between atoms: C8_9  and  N1_10 
REMARK    4  A    between atoms: N1_10  and  C9_11 
REMARK       I    between atoms: N1_10  and  C16_19 
REMARK    5  A    between atoms: C9_11  and  C10_12 
REMARK    6  A    between atoms: C13_15  and  O2_16 
REMARK    7  A    between atoms: C16_19  and  C17_21 
ROOT
HETATM    1  N1  UNL     1      25.542   2.494  52.807  1.00  0.00    -0.339 N 
HETATM    2  C16 UNL     1      26.422   2.796  51.697  1.00  0.00     0.255 C 
HETATM    3  O3  UNL     1      27.630   2.387  51.593  1.00  0.00    -0.267 OA
ENDROOT
BRANCH   1   4
HETATM    4  C8  UNL     1      24.152   2.809  52.940  1.00  0.00     0.167 C 
BRANCH   4   5
HETATM    5  C7  UNL     1      23.190   1.806  52.464  1.00  0.00    -0.006 A 
HETATM    6  C6  UNL     1      22.414   1.641  51.350  1.00  0.00     0.079 A 
HETATM    7  C4  UNL     1      21.522   0.633  51.099  1.00  0.00    -0.028 A 
HETATM    8  C3  UNL     1      21.345  -0.352  52.035  1.00  0.00     0.016 A 
HETATM    9  C5  UNL     1      20.773   0.646  49.808  1.00  0.00     0.051 C 
HETATM   10  C2  UNL     1      22.050  -0.322  53.201  1.00  0.00    -0.061 A 
HETATM   11  C1  UNL     1      21.875  -1.369  54.222  1.00  0.00     0.048 C 
HETATM   12  C22 UNL     1      22.922   0.741  53.350  1.00  0.00     0.018 A 
BRANCH   6  13
HETATM   13  O1  UNL     1      22.571   2.608  50.395  1.00  0.00    -0.360 OA
HETATM   14  H8  UNL     1      22.614   3.595  50.530  1.00  0.00     0.217 HD
ENDBRANCH   6  13
ENDBRANCH   4   5
ENDBRANCH   1   4
BRANCH   1  15
HETATM   15  C9  UNL     1      26.249   1.818  53.865  1.00  0.00     0.165 C 
BRANCH  15  16
HETATM   16  C10 UNL     1      26.777   0.479  53.554  1.00  0.00    -0.040 A 
HETATM   17  C11 UNL     1      28.056   0.109  53.914  1.00  0.00     0.011 A 
HETATM   18  C12 UNL     1      28.625  -1.124  53.661  1.00  0.00     0.037 A 
HETATM   19  C13 UNL     1      27.898  -2.082  53.002  1.00  0.00     0.065 A 
HETATM   20  C14 UNL     1      26.615  -1.779  52.613  1.00  0.00     0.037 A 
HETATM   21  C15 UNL     1      26.111  -0.530  52.899  1.00  0.00     0.011 A 
BRANCH  19  22
HETATM   22  O2  UNL     1      28.428  -3.334  52.726  1.00  0.00    -0.361 OA
HETATM   23  H15 UNL     1      29.295  -3.674  53.090  1.00  0.00     0.217 HD
ENDBRANCH  19  22
ENDBRANCH  15  16
ENDBRANCH   1  15
BRANCH   2  24
HETATM   24  C17 UNL     1      26.038   3.632  50.534  1.00  0.00     0.043 C 
HETATM   25  C18 UNL     1      25.002   4.314  50.063  1.00  0.00    -0.009 C 
HETATM   26  C19 UNL     1      25.288   5.456  49.509  1.00  0.00     0.013 C 
HETATM   27  C20 UNL     1      26.517   5.086  48.815  1.00  0.00     0.002 C 
HETATM   28  C21 UNL     1      26.958   3.977  49.450  1.00  0.00     0.018 C 
ENDBRANCH   2  24
TORSDOF 7
ENDMDL
MODEL 5
REMARK VINA RESULT:      -8.1      1.576      4.884
REMARK  7 active torsions:
REMARK  status: ('A' for Active; 'I' for Inactive)
REMARK    1  A    between atoms: C6_6  and  O1_7 
REMARK    2  A    between atoms: C7_8  and  C8_9 
REMARK    3  A    between atoms: C8_9  and  N1_10 
REMARK    4  A    between atoms: N1_10  and  C9_11 
REMARK       I    between atoms: N1_10  and  C16_19 
REMARK    5  A    between atoms: C9_11  and  C10_12 
REMARK    6  A    between atoms: C13_15  and  O2_16 
REMARK    7  A    between atoms: C16_19  and  C17_21 
ROOT
HETATM    1  N1  UNL     1      25.527   2.465  52.665  1.00  0.00    -0.339 N 
HETATM    2  C16 UNL     1      26.309   2.700  51.469  1.00  0.00     0.255 C 
HETATM    3  O3  UNL     1      27.524   2.329  51.309  1.00  0.00    -0.267 OA
ENDROOT
BRANCH   1   4
HETATM    4  C8  UNL     1      24.137   2.738  52.876  1.00  0.00     0.167 C 
BRANCH   4   5
HETATM    5  C7  UNL     1      23.189   1.657  52.574  1.00  0.00    -0.006 A 
HETATM    6  C6  UNL     1      22.764   0.520  53.204  1.00  0.00     0.079 A 
HETATM    7  C4  UNL     1      21.879  -0.411  52.733  1.00  0.00    -0.028 A 
HETATM    8  C3  UNL     1      21.323  -0.238  51.492  1.00  0.00     0.016 A 
HETATM    9  C5  UNL     1      21.552  -1.588  53.591  1.00  0.00     0.051 C 
HETATM   10  C2  UNL     1      21.651   0.851  50.742  1.00  0.00    -0.061 A 
HETATM   11  C1  UNL     1      21.067   1.057  49.406  1.00  0.00     0.048 C 
HETATM   12  C22 UNL     1      22.555   1.727  51.316  1.00  0.00     0.018 A 
BRANCH   6  13
HETATM   13  O1  UNL     1      23.301   0.321  54.447  1.00  0.00    -0.360 OA
HETATM   14  H8  UNL     1      24.254   0.421  54.723  1.00  0.00     0.217 HD
ENDBRANCH   6  13
ENDBRANCH   4   5
ENDBRANCH   1   4
BRANCH   1  15
HETATM   15  C9  UNL     1      26.337   1.912  53.720  1.00  0.00     0.165 C 
BRANCH  15  16
HETATM   16  C10 UNL     1      26.897   0.570  53.487  1.00  0.00    -0.040 A 
HETATM   17  C11 UNL     1      26.153  -0.424  52.886  1.00  0.00     0.011 A 
HETATM   18  C12 UNL     1      26.603  -1.705  52.631  1.00  0.00     0.037 A 
HETATM   19  C13 UNL     1      27.879  -2.058  52.989  1.00  0.00     0.065 A 
HETATM   20  C14 UNL     1      28.674  -1.114  53.595  1.00  0.00     0.037 A 
HETATM   21  C15 UNL     1      28.161   0.143  53.817  1.00  0.00     0.011 A 
BRANCH  19  22
HETATM   22  O2  UNL     1      28.373  -3.334  52.755  1.00  0.00    -0.361 OA
HETATM   23  H15 UNL     1      27.908  -4.027  52.204  1.00  0.00     0.217 HD
ENDBRANCH  19  22
ENDBRANCH  15  16
ENDBRANCH   1  15
BRANCH   2  24
HETATM   24  C17 UNL     1      25.806   3.415  50.272  1.00  0.00     0.043 C 
HETATM   25  C18 UNL     1      24.717   3.505  49.518  1.00  0.00    -0.009 C 
HETATM   26  C19 UNL     1      24.411   4.706  49.120  1.00  0.00     0.013 C 
HETATM   27  C20 UNL     1      25.749   5.215  48.839  1.00  0.00     0.002 C 
HETATM   28  C21 UNL     1      26.583   4.420  49.546  1.00  0.00     0.018 C 
ENDBRANCH   2  24
TORSDOF 7
ENDMDL
MODEL 6
REMARK VINA RESULT:      -8.1      1.687      2.546
REMARK  7 active torsions:
REMARK  status: ('A' for Active; 'I' for Inactive)
REMARK    1  A    between atoms: C6_6  and  O1_7 
REMARK    2  A    between atoms: C7_8  and  C8_9 
REMARK    3  A    between atoms: C8_9  and  N1_10 
REMARK    4  A    between atoms: N1_10  and  C9_11 
REMARK       I    between atoms: N1_10  and  C16_19 
REMARK    5  A    between atoms: C9_11  and  C10_12 
REMARK    6  A    between atoms: C13_15  and  O2_16 
REMARK    7  A    between atoms: C16_19  and  C17_21 
ROOT
HETATM    1  N1  UNL     1      25.164   2.685  50.982  1.00  0.00    -0.339 N 
HETATM    2  C16 UNL     1      23.762   2.456  51.265  1.00  0.00     0.255 C 
HETATM    3  O3  UNL     1      23.256   2.406  52.439  1.00  0.00    -0.267 OA
ENDROOT
BRANCH   1   4
HETATM    4  C8  UNL     1      25.784   2.874  49.705  1.00  0.00     0.167 C 
BRANCH   4   5
HETATM    5  C7  UNL     1      26.161   4.247  49.341  1.00  0.00    -0.006 A 
HETATM    6  C6  UNL     1      25.524   5.456  49.279  1.00  0.00     0.079 A 
HETATM    7  C4  UNL     1      26.045   6.651  48.863  1.00  0.00    -0.028 A 
HETATM    8  C3  UNL     1      27.351   6.703  48.451  1.00  0.00     0.016 A 
HETATM    9  C5  UNL     1      25.167   7.858  48.874  1.00  0.00     0.051 C 
HETATM   10  C2  UNL     1      28.116   5.575  48.457  1.00  0.00    -0.061 A 
HETATM   11  C1  UNL     1      29.521   5.608  48.017  1.00  0.00     0.048 C 
HETATM   12  C22 UNL     1      27.487   4.424  48.895  1.00  0.00     0.018 A 
BRANCH   6  13
HETATM   13  O1  UNL     1      24.217   5.435  49.687  1.00  0.00    -0.360 OA
HETATM   14  H8  UNL     1      23.663   4.639  49.914  1.00  0.00     0.217 HD
ENDBRANCH   6  13
ENDBRANCH   4   5
ENDBRANCH   1   4
BRANCH   1  15
HETATM   15  C9  UNL     1      25.949   2.678  52.189  1.00  0.00     0.165 C 
BRANCH  15  16
HETATM   16  C10 UNL     1      26.664   1.429  52.503  1.00  0.00    -0.040 A 
HETATM   17  C11 UNL     1      27.899   1.442  53.117  1.00  0.00     0.011 A 
HETATM   18  C12 UNL     1      28.633   0.319  53.445  1.00  0.00     0.037 A 
HETATM   19  C13 UNL     1      28.133  -0.925  53.155  1.00  0.00     0.065 A 
HETATM   20  C14 UNL     1      26.905  -1.010  52.541  1.00  0.00     0.037 A 
HETATM   21  C15 UNL     1      26.229   0.151  52.243  1.00  0.00     0.011 A 
BRANCH  19  22
HETATM   22  O2  UNL     1      28.834  -2.081  53.465  1.00  0.00    -0.361 OA
HETATM   23  H15 UNL     1      28.524  -2.771  54.118  1.00  0.00     0.217 HD
ENDBRANCH  19  22
ENDBRANCH  15  16
ENDBRANCH   1  15
BRANCH   2  24
HETATM   24  C17 UNL     1      22.726   2.239  50.226  1.00  0.00     0.043 C 
HETATM   25  C18 UNL     1      22.271   2.789  49.108  1.00  0.00    -0.009 C 
HETATM   26  C19 UNL     1      21.957   1.953  48.160  1.00  0.00     0.013 C 
HETATM   27  C20 UNL     1      21.348   0.898  48.963  1.00  0.00     0.002 C 
HETATM   28  C21 UNL     1      21.825   1.087  50.214  1.00  0.00     0.018 C 
ENDBRANCH   2  24
TORSDOF 7
ENDMDL
MODEL 7
REMARK VINA RESULT:      -8.1      1.551      2.120
REMARK  7 active torsions:
REMARK  status: ('A' for Active; 'I' for Inactive)
REMARK    1  A    between atoms: C6_6  and  O1_7 
REMARK    2  A    between atoms: C7_8  and  C8_9 
REMARK    3  A    between atoms: C8_9  and  N1_10 
REMARK    4  A    between atoms: N1_10  and  C9_11 
REMARK       I    between atoms: N1_10  and  C16_19 
REMARK    5  A    between atoms: C9_11  and  C10_12 
REMARK    6  A    between atoms: C13_15  and  O2_16 
REMARK    7  A    between atoms: C16_19  and  C17_21 
ROOT
HETATM    1  N1  UNL     1      25.404   2.681  51.020  1.00  0.00    -0.339 N 
HETATM    2  C16 UNL     1      23.977   2.456  51.120  1.00  0.00     0.255 C 
HETATM    3  O3  UNL     1      23.339   2.315  52.220  1.00  0.00    -0.267 OA
ENDROOT
BRANCH   1   4
HETATM    4  C8  UNL     1      26.169   2.967  49.844  1.00  0.00     0.167 C 
BRANCH   4   5
HETATM    5  C7  UNL     1      26.355   4.382  49.493  1.00  0.00    -0.006 A 
HETATM    6  C6  UNL     1      27.303   5.113  48.833  1.00  0.00     0.079 A 
HETATM    7  C4  UNL     1      27.323   6.467  48.637  1.00  0.00    -0.028 A 
HETATM    8  C3  UNL     1      26.300   7.230  49.137  1.00  0.00     0.016 A 
HETATM    9  C5  UNL     1      28.463   7.066  47.883  1.00  0.00     0.051 C 
HETATM   10  C2  UNL     1      25.279   6.641  49.821  1.00  0.00    -0.061 A 
HETATM   11  C1  UNL     1      24.170   7.441  50.369  1.00  0.00     0.048 C 
HETATM   12  C22 UNL     1      25.361   5.267  49.960  1.00  0.00     0.018 A 
BRANCH   6  13
HETATM   13  O1  UNL     1      28.337   4.378  48.319  1.00  0.00    -0.360 OA
HETATM   14  H8  UNL     1      29.274   4.677  48.154  1.00  0.00     0.217 HD
ENDBRANCH   6  13
ENDBRANCH   4   5
ENDBRANCH   1   4
BRANCH   1  15
HETATM   15  C9  UNL     1      26.046   2.556  52.303  1.00  0.00     0.165 C 
BRANCH  15  16
HETATM   16  C10 UNL     1      26.743   1.287  52.571  1.00  0.00    -0.040 A 
HETATM   17  C11 UNL     1      26.182   0.073  52.232  1.00  0.00     0.011 A 
HETATM   18  C12 UNL     1      26.769  -1.159  52.447  1.00  0.00     0.037 A 
HETATM   19  C13 UNL     1      28.003  -1.226  53.042  1.00  0.00     0.065 A 
HETATM   20  C14 UNL     1      28.618  -0.052  53.407  1.00  0.00     0.037 A 
HETATM   21  C15 UNL     1      27.976   1.140  53.162  1.00  0.00     0.011 A 
BRANCH  19  22
HETATM   22  O2  UNL     1      28.631  -2.440  53.279  1.00  0.00    -0.361 OA
HETATM   23  H15 UNL     1      28.234  -3.332  53.063  1.00  0.00     0.217 HD
ENDBRANCH  19  22
ENDBRANCH  15  16
ENDBRANCH   1  15
BRANCH   2  24
HETATM   24  C17 UNL     1      23.066   2.349  49.955  1.00  0.00     0.043 C 
HETATM   25  C18 UNL     1      22.879   2.878  48.753  1.00  0.00    -0.009 C 
HETATM   26  C19 UNL     1      22.537   2.038  47.819  1.00  0.00     0.013 C 
HETATM   27  C20 UNL     1      21.632   1.185  48.582  1.00  0.00     0.002 C 
HETATM   28  C21 UNL     1      21.967   1.386  49.877  1.00  0.00     0.018 C 
ENDBRANCH   2  24
TORSDOF 7
ENDMDL
MODEL 8
REMARK VINA RESULT:      -8.0      2.396      6.405
REMARK  7 active torsions:
REMARK  status: ('A' for Active; 'I' for Inactive)
REMARK    1  A    between atoms: C6_6  and  O1_7 
REMARK    2  A    between atoms: C7_8  and  C8_9 
REMARK    3  A    between atoms: C8_9  and  N1_10 
REMARK    4  A    between atoms: N1_10  and  C9_11 
REMARK       I    between atoms: N1_10  and  C16_19 
REMARK    5  A    between atoms: C9_11  and  C10_12 
REMARK    6  A    between atoms: C13_15  and  O2_16 
REMARK    7  A    between atoms: C16_19  and  C17_21 
ROOT
HETATM    1  N1  UNL     1      24.662   1.400  52.589  1.00  0.00    -0.339 N 
HETATM    2  C16 UNL     1      24.439   2.753  52.123  1.00  0.00     0.255 C 
HETATM    3  O3  UNL     1      23.876   3.676  52.809  1.00  0.00    -0.267 OA
ENDROOT
BRANCH   1   4
HETATM    4  C8  UNL     1      25.387   0.352  51.936  1.00  0.00     0.167 C 
BRANCH   4   5
HETATM    5  C7  UNL     1      26.710   0.015  52.477  1.00  0.00    -0.006 A 
HETATM    6  C6  UNL     1      27.423  -1.134  52.681  1.00  0.00     0.079 A 
HETATM    7  C4  UNL     1      28.660  -1.256  53.253  1.00  0.00    -0.028 A 
HETATM    8  C3  UNL     1      29.308  -0.130  53.692  1.00  0.00     0.016 A 
HETATM    9  C5  UNL     1      29.261  -2.616  53.379  1.00  0.00     0.051 C 
HETATM   10  C2  UNL     1      28.721   1.093  53.557  1.00  0.00    -0.061 A 
HETATM   11  C1  UNL     1      29.397   2.316  54.023  1.00  0.00     0.048 C 
HETATM   12  C22 UNL     1      27.470   1.098  52.966  1.00  0.00     0.018 A 
BRANCH   6  13
HETATM   13  O1  UNL     1      26.803  -2.276  52.250  1.00  0.00    -0.360 OA
HETATM   14  H8  UNL     1      25.879  -2.367  51.888  1.00  0.00     0.217 HD
ENDBRANCH   6  13
ENDBRANCH   4   5
ENDBRANCH   1   4
BRANCH   1  15
HETATM   15  C9  UNL     1      24.018   1.171  53.857  1.00  0.00     0.165 C 
BRANCH  15  16
HETATM   16  C10 UNL     1      22.741   0.439  53.824  1.00  0.00    -0.040 A 
HETATM   17  C11 UNL     1      21.625   0.965  53.206  1.00  0.00     0.011 A 
HETATM   18  C12 UNL     1      20.394   0.345  53.131  1.00  0.00     0.037 A 
HETATM   19  C13 UNL     1      20.223  -0.891  53.702  1.00  0.00     0.065 A 
HETATM   20  C14 UNL     1      21.295  -1.473  54.336  1.00  0.00     0.037 A 
HETATM   21  C15 UNL     1      22.493  -0.798  54.372  1.00  0.00     0.011 A 
BRANCH  19  22
HETATM   22  O2  UNL     1      19.004  -1.552  53.652  1.00  0.00    -0.361 OA
HETATM   23  H15 UNL     1      18.115  -1.108  53.765  1.00  0.00     0.217 HD
ENDBRANCH  19  22
ENDBRANCH  15  16
ENDBRANCH   1  15
BRANCH   2  24
HETATM   24  C17 UNL     1      24.827   3.246  50.780  1.00  0.00     0.043 C 
HETATM   25  C18 UNL     1      24.279   3.603  49.625  1.00  0.00    -0.009 C 
HETATM   26  C19 UNL     1      24.811   4.644  49.052  1.00  0.00     0.013 C 
HETATM   27  C20 UNL     1      26.217   4.387  49.344  1.00  0.00     0.002 C 
HETATM   28  C21 UNL     1      26.208   3.537  50.395  1.00  0.00     0.018 C 
ENDBRANCH   2  24
TORSDOF 7
ENDMDL
MODEL 9
REMARK VINA RESULT:      -8.0      2.351      5.579
REMARK  7 active torsions:
REMARK  status: ('A' for Active; 'I' for Inactive)
REMARK    1  A    between atoms: C6_6  and  O1_7 
REMARK    2  A    between atoms: C7_8  and  C8_9 
REMARK    3  A    between atoms: C8_9  and  N1_10 
REMARK    4  A    between atoms: N1_10  and  C9_11 
REMARK       I    between atoms: N1_10  and  C16_19 
REMARK    5  A    between atoms: C9_11  and  C10_12 
REMARK    6  A    between atoms: C13_15  and  O2_16 
REMARK    7  A    between atoms: C16_19  and  C17_21 
ROOT
HETATM    1  N1  UNL     1      23.630   1.670  52.952  1.00  0.00    -0.339 N 
HETATM    2  C16 UNL     1      24.424   0.466  53.085  1.00  0.00     0.255 C 
HETATM    3  O3  UNL     1      23.958  -0.724  53.020  1.00  0.00    -0.267 OA
ENDROOT
BRANCH   1   4
HETATM    4  C8  UNL     1      24.089   3.025  52.892  1.00  0.00     0.167 C 
BRANCH   4   5
HETATM    5  C7  UNL     1      24.457   3.549  51.570  1.00  0.00    -0.006 A 
HETATM    6  C6  UNL     1      25.615   3.674  50.851  1.00  0.00     0.079 A 
HETATM    7  C4  UNL     1      25.770   4.244  49.617  1.00  0.00    -0.028 A 
HETATM    8  C3  UNL     1      24.675   4.765  48.978  1.00  0.00     0.016 A 
HETATM    9  C5  UNL     1      27.134   4.277  49.010  1.00  0.00     0.051 C 
HETATM   10  C2  UNL     1      23.449   4.714  49.570  1.00  0.00    -0.061 A 
HETATM   11  C1  UNL     1      22.259   5.269  48.903  1.00  0.00     0.048 C 
HETATM   12  C22 UNL     1      23.408   4.117  50.818  1.00  0.00     0.018 A 
BRANCH   6  13
HETATM   13  O1  UNL     1      26.726   3.160  51.463  1.00  0.00    -0.360 OA
HETATM   14  H8  UNL     1      27.228   3.542  52.235  1.00  0.00     0.217 HD
ENDBRANCH   6  13
ENDBRANCH   4   5
ENDBRANCH   1   4
BRANCH   1  15
HETATM   15  C9  UNL     1      22.223   1.366  52.909  1.00  0.00     0.165 C 
BRANCH  15  16
HETATM   16  C10 UNL     1      21.550   1.543  51.611  1.00  0.00    -0.040 A 
HETATM   17  C11 UNL     1      20.443   2.356  51.480  1.00  0.00     0.011 A 
HETATM   18  C12 UNL     1      19.757   2.576  50.302  1.00  0.00     0.037 A 
HETATM   19  C13 UNL     1      20.172   1.956  49.151  1.00  0.00     0.065 A 
HETATM   20  C14 UNL     1      21.269   1.130  49.211  1.00  0.00     0.037 A 
HETATM   21  C15 UNL     1      21.906   0.957  50.419  1.00  0.00     0.011 A 
BRANCH  19  22
HETATM   22  O2  UNL     1      19.513   2.146  47.944  1.00  0.00    -0.361 OA
HETATM   23  H15 UNL     1      18.775   2.805  47.801  1.00  0.00     0.217 HD
ENDBRANCH  19  22
ENDBRANCH  15  16
ENDBRANCH   1  15
BRANCH   2  24
HETATM   24  C17 UNL     1      25.887   0.456  53.326  1.00  0.00     0.043 C 
HETATM   25  C18 UNL     1      26.781   0.899  54.200  1.00  0.00    -0.009 C 
HETATM   26  C19 UNL     1      27.748   0.073  54.479  1.00  0.00     0.013 C 
HETATM   27  C20 UNL     1      27.981  -0.483  53.150  1.00  0.00     0.002 C 
HETATM   28  C21 UNL     1      26.841  -0.241  52.463  1.00  0.00     0.018 C 
ENDBRANCH   2  24
TORSDOF 7
ENDMDL
