MODEL 1
REMARK VINA RESULT:      -7.5      0.000      0.000
REMARK  7 active torsions:
REMARK  status: ('A' for Active; 'I' for Inactive)
REMARK    1  A    between atoms: C2_2  and  C3_3 
REMARK    2  A    between atoms: C3_3  and  C4_4 
REMARK    3  A    between atoms: C4_4  and  N1_5 
REMARK    4  A    between atoms: N1_5  and  C5_6 
REMARK    5  A    between atoms: N1_5  and  C12_15 
REMARK    6  A    between atoms: N2_8  and  C6_9 
REMARK    7  A    between atoms: C17_21  and  O1_22 
ROOT
HETATM    1  N1  UNL     1      25.545   1.997  51.709  1.00  0.00    -0.342 N 
ENDROOT
BRANCH   1   2
HETATM    2  C4  UNL     1      26.470   2.881  51.044  1.00  0.00     0.126 C 
BRANCH   2   3
HETATM    3  C3  UNL     1      26.407   3.022  49.575  1.00  0.00     0.020 C 
BRANCH   3   4
HETATM    4  C2  UNL     1      26.438   4.548  49.281  1.00  0.00    -0.003 C 
HETATM    5  C1  UNL     1      27.720   4.942  48.575  1.00  0.00     0.005 C 
ENDBRANCH   3   4
ENDBRANCH   2   3
ENDBRANCH   1   2
BRANCH   1   6
HETATM    6  C5  UNL     1      24.254   1.560  51.508  1.00  0.00     0.290 A 
HETATM    7  S1  UNL     1      23.353   2.870  51.990  1.00  0.00     0.151 SA
HETATM    8  N2  UNL     1      22.971   1.110  51.302  1.00  0.00     0.071 N 
HETATM    9  H10 UNL     1      23.635   0.332  51.091  1.00  0.00     0.312 HD
BRANCH   8  10
HETATM   10  C6  UNL     1      21.597   0.894  51.180  1.00  0.00     0.156 A 
HETATM   11  C7  UNL     1      21.006   1.236  49.999  1.00  0.00     0.039 A 
HETATM   12  C8  UNL     1      19.655   1.027  49.922  1.00  0.00     0.002 A 
HETATM   13  C9  UNL     1      19.037   0.498  51.026  1.00  0.00     0.000 A 
HETATM   14  C10 UNL     1      19.646   0.148  52.231  1.00  0.00     0.002 A 
HETATM   15  C11 UNL     1      20.984   0.366  52.281  1.00  0.00     0.039 A 
ENDBRANCH   8  10
ENDBRANCH   1   6
BRANCH   1  16
HETATM   16  C12 UNL     1      26.198   1.474  52.946  1.00  0.00     0.144 A 
HETATM   17  C13 UNL     1      25.785   0.062  53.008  1.00  0.00     0.003 A 
HETATM   18  C14 UNL     1      26.495  -1.058  53.076  1.00  0.00     0.021 A 
HETATM   19  C15 UNL     1      27.952  -0.812  53.097  1.00  0.00     0.032 A 
HETATM   20 CL1  UNL     1      29.082  -2.168  53.159  1.00  0.00    -0.085 Cl
HETATM   21  C16 UNL     1      28.384   0.434  53.064  1.00  0.00     0.032 A 
HETATM   22  C17 UNL     1      27.647   1.724  53.017  1.00  0.00     0.196 A 
BRANCH  22  23
HETATM   23  O1  UNL     1      27.894   2.301  54.318  1.00  0.00    -0.272 OA
HETATM   24 CL2  UNL     1      29.576   2.166  54.572  1.00  0.00     0.062 Cl
ENDBRANCH  22  23
ENDBRANCH   1  16
TORSDOF 7
ENDMDL
MODEL 2
REMARK VINA RESULT:      -7.4      3.407      7.231
REMARK  7 active torsions:
REMARK  status: ('A' for Active; 'I' for Inactive)
REMARK    1  A    between atoms: C2_2  and  C3_3 
REMARK    2  A    between atoms: C3_3  and  C4_4 
REMARK    3  A    between atoms: C4_4  and  N1_5 
REMARK    4  A    between atoms: N1_5  and  C5_6 
REMARK    5  A    between atoms: N1_5  and  C12_15 
REMARK    6  A    between atoms: N2_8  and  C6_9 
REMARK    7  A    between atoms: C17_21  and  O1_22 
ROOT
HETATM    1  N1  UNL     1      23.306   0.205  53.116  1.00  0.00    -0.342 N 
ENDROOT
BRANCH   1   2
HETATM    2  C4  UNL     1      22.184  -0.487  53.699  1.00  0.00     0.126 C 
BRANCH   2   3
HETATM    3  C3  UNL     1      20.933   0.255  53.960  1.00  0.00     0.020 C 
BRANCH   3   4
HETATM    4  C2  UNL     1      19.775  -0.654  53.461  1.00  0.00    -0.003 C 
HETATM    5  C1  UNL     1      19.088  -0.049  52.252  1.00  0.00     0.005 C 
ENDBRANCH   3   4
ENDBRANCH   2   3
ENDBRANCH   1   2
BRANCH   1   6
HETATM    6  C5  UNL     1      24.673   0.044  53.073  1.00  0.00     0.290 A 
HETATM    7  S1  UNL     1      25.000  -0.632  54.556  1.00  0.00     0.151 SA
HETATM    8  N2  UNL     1      26.039  -0.112  53.017  1.00  0.00     0.071 N 
HETATM    9  H10 UNL     1      25.722   0.374  52.148  1.00  0.00     0.312 HD
BRANCH   8  10
HETATM   10  C6  UNL     1      27.397  -0.374  53.203  1.00  0.00     0.156 A 
HETATM   11  C7  UNL     1      28.195   0.666  53.580  1.00  0.00     0.039 A 
HETATM   12  C8  UNL     1      29.525   0.377  53.736  1.00  0.00     0.002 A 
HETATM   13  C9  UNL     1      29.917  -0.916  53.503  1.00  0.00     0.000 A 
HETATM   14  C10 UNL     1      29.097  -1.977  53.119  1.00  0.00     0.002 A 
HETATM   15  C11 UNL     1      27.786  -1.663  52.971  1.00  0.00     0.039 A 
ENDBRANCH   8  10
ENDBRANCH   1   6
BRANCH   1  16
HETATM   16  C12 UNL     1      22.797   1.421  52.413  1.00  0.00     0.144 A 
HETATM   17  C13 UNL     1      23.575   2.530  52.990  1.00  0.00     0.003 A 
HETATM   18  C14 UNL     1      24.340   3.454  52.422  1.00  0.00     0.021 A 
HETATM   19  C15 UNL     1      24.395   3.326  50.951  1.00  0.00     0.032 A 
HETATM   20 CL1  UNL     1      25.378   4.441  49.998  1.00  0.00    -0.085 Cl
HETATM   21  C16 UNL     1      23.702   2.364  50.373  1.00  0.00     0.032 A 
HETATM   22  C17 UNL     1      22.810   1.321  50.944  1.00  0.00     0.196 A 
BRANCH  22  23
HETATM   23  O1  UNL     1      21.496   1.722  50.501  1.00  0.00    -0.272 OA
HETATM   24 CL2  UNL     1      21.295   1.021  48.957  1.00  0.00     0.062 Cl
ENDBRANCH  22  23
ENDBRANCH   1  16
TORSDOF 7
ENDMDL
MODEL 3
REMARK VINA RESULT:      -7.3      2.016      2.513
REMARK  7 active torsions:
REMARK  status: ('A' for Active; 'I' for Inactive)
REMARK    1  A    between atoms: C2_2  and  C3_3 
REMARK    2  A    between atoms: C3_3  and  C4_4 
REMARK    3  A    between atoms: C4_4  and  N1_5 
REMARK    4  A    between atoms: N1_5  and  C5_6 
REMARK    5  A    between atoms: N1_5  and  C12_15 
REMARK    6  A    between atoms: N2_8  and  C6_9 
REMARK    7  A    between atoms: C17_21  and  O1_22 
ROOT
HETATM    1  N1  UNL     1      24.362   0.769  53.018  1.00  0.00    -0.342 N 
ENDROOT
BRANCH   1   2
HETATM    2  C4  UNL     1      25.150   1.960  52.821  1.00  0.00     0.126 C 
BRANCH   2   3
HETATM    3  C3  UNL     1      25.090   2.661  51.522  1.00  0.00     0.020 C 
BRANCH   3   4
HETATM    4  C2  UNL     1      26.514   2.562  50.906  1.00  0.00    -0.003 C 
HETATM    5  C1  UNL     1      26.579   3.270  49.567  1.00  0.00     0.005 C 
ENDBRANCH   3   4
ENDBRANCH   2   3
ENDBRANCH   1   2
BRANCH   1   6
HETATM    6  C5  UNL     1      23.060   0.377  52.792  1.00  0.00     0.290 A 
HETATM    7  S1  UNL     1      22.217   1.792  53.014  1.00  0.00     0.151 SA
HETATM    8  N2  UNL     1      21.766  -0.027  52.562  1.00  0.00     0.071 N 
HETATM    9  H10 UNL     1      22.391  -0.863  52.513  1.00  0.00     0.312 HD
BRANCH   8  10
HETATM   10  C6  UNL     1      20.391  -0.184  52.377  1.00  0.00     0.156 A 
HETATM   11  C7  UNL     1      19.844   0.335  51.239  1.00  0.00     0.039 A 
HETATM   12  C8  UNL     1      18.491   0.178  51.099  1.00  0.00     0.002 A 
HETATM   13  C9  UNL     1      17.828  -0.479  52.103  1.00  0.00     0.000 A 
HETATM   14  C10 UNL     1      18.392  -1.009  53.263  1.00  0.00     0.002 A 
HETATM   15  C11 UNL     1      19.733  -0.840  53.377  1.00  0.00     0.039 A 
ENDBRANCH   8  10
ENDBRANCH   1   6
BRANCH   1  16
HETATM   16  C12 UNL     1      25.223  -0.265  53.666  1.00  0.00     0.144 A 
HETATM   17  C13 UNL     1      26.038  -0.804  52.565  1.00  0.00     0.003 A 
HETATM   18  C14 UNL     1      27.354  -0.900  52.413  1.00  0.00     0.021 A 
HETATM   19  C15 UNL     1      28.104  -0.371  53.571  1.00  0.00     0.032 A 
HETATM   20 CL1  UNL     1      29.870  -0.378  53.565  1.00  0.00    -0.085 Cl
HETATM   21  C16 UNL     1      27.428   0.107  54.598  1.00  0.00     0.032 A 
HETATM   22  C17 UNL     1      25.966   0.217  54.842  1.00  0.00     0.196 A 
BRANCH  22  23
HETATM   23  O1  UNL     1      25.727  -0.743  55.893  1.00  0.00    -0.272 OA
HETATM   24 CL2  UNL     1      24.129  -1.296  55.658  1.00  0.00     0.062 Cl
ENDBRANCH  22  23
ENDBRANCH   1  16
TORSDOF 7
ENDMDL
MODEL 4
REMARK VINA RESULT:      -7.2      2.301      5.491
REMARK  7 active torsions:
REMARK  status: ('A' for Active; 'I' for Inactive)
REMARK    1  A    between atoms: C2_2  and  C3_3 
REMARK    2  A    between atoms: C3_3  and  C4_4 
REMARK    3  A    between atoms: C4_4  and  N1_5 
REMARK    4  A    between atoms: N1_5  and  C5_6 
REMARK    5  A    between atoms: N1_5  and  C12_15 
REMARK    6  A    between atoms: N2_8  and  C6_9 
REMARK    7  A    between atoms: C17_21  and  O1_22 
ROOT
HETATM    1  N1  UNL     1      24.013   0.676  52.491  1.00  0.00    -0.342 N 
ENDROOT
BRANCH   1   2
HETATM    2  C4  UNL     1      22.727   0.270  53.000  1.00  0.00     0.126 C 
BRANCH   2   3
HETATM    3  C3  UNL     1      22.394  -1.168  53.061  1.00  0.00     0.020 C 
BRANCH   3   4
HETATM    4  C2  UNL     1      21.554  -1.367  54.354  1.00  0.00    -0.003 C 
HETATM    5  C1  UNL     1      21.096  -0.036  54.917  1.00  0.00     0.005 C 
ENDBRANCH   3   4
ENDBRANCH   2   3
ENDBRANCH   1   2
BRANCH   1   6
HETATM    6  C5  UNL     1      24.492   1.625  51.615  1.00  0.00     0.290 A 
HETATM    7  S1  UNL     1      24.260   3.039  52.456  1.00  0.00     0.151 SA
HETATM    8  N2  UNL     1      24.974   2.562  50.731  1.00  0.00     0.071 N 
HETATM    9  H10 UNL     1      25.009   1.623  50.274  1.00  0.00     0.312 HD
BRANCH   8  10
HETATM   10  C6  UNL     1      25.400   3.687  50.023  1.00  0.00     0.156 A 
HETATM   11  C7  UNL     1      24.490   4.680  49.808  1.00  0.00     0.039 A 
HETATM   12  C8  UNL     1      24.938   5.761  49.096  1.00  0.00     0.002 A 
HETATM   13  C9  UNL     1      26.242   5.739  48.676  1.00  0.00     0.000 A 
HETATM   14  C10 UNL     1      27.170   4.722  48.899  1.00  0.00     0.002 A 
HETATM   15  C11 UNL     1      26.701   3.663  49.606  1.00  0.00     0.039 A 
ENDBRANCH   8  10
ENDBRANCH   1   6
BRANCH   1  16
HETATM   16  C12 UNL     1      25.055  -0.220  53.075  1.00  0.00     0.144 A 
HETATM   17  C13 UNL     1      26.208  -0.079  52.170  1.00  0.00     0.003 A 
HETATM   18  C14 UNL     1      27.467   0.272  52.401  1.00  0.00     0.021 A 
HETATM   19  C15 UNL     1      27.729   0.559  53.827  1.00  0.00     0.032 A 
HETATM   20 CL1  UNL     1      29.337   1.069  54.351  1.00  0.00    -0.085 Cl
HETATM   21  C16 UNL     1      26.741   0.430  54.690  1.00  0.00     0.032 A 
HETATM   22  C17 UNL     1      25.325   0.017  54.503  1.00  0.00     0.196 A 
BRANCH  22  23
HETATM   23  O1  UNL     1      25.263  -1.275  55.145  1.00  0.00    -0.272 OA
HETATM   24 CL2  UNL     1      25.032  -0.955  56.806  1.00  0.00     0.062 Cl
ENDBRANCH  22  23
ENDBRANCH   1  16
TORSDOF 7
ENDMDL
MODEL 5
REMARK VINA RESULT:      -7.1      1.695      5.542
REMARK  7 active torsions:
REMARK  status: ('A' for Active; 'I' for Inactive)
REMARK    1  A    between atoms: C2_2  and  C3_3 
REMARK    2  A    between atoms: C3_3  and  C4_4 
REMARK    3  A    between atoms: C4_4  and  N1_5 
REMARK    4  A    between atoms: N1_5  and  C5_6 
REMARK    5  A    between atoms: N1_5  and  C12_15 
REMARK    6  A    between atoms: N2_8  and  C6_9 
REMARK    7  A    between atoms: C17_21  and  O1_22 
ROOT
HETATM    1  N1  UNL     1      24.119   2.534  51.996  1.00  0.00    -0.342 N 
ENDROOT
BRANCH   1   2
HETATM    2  C4  UNL     1      22.812   1.926  51.991  1.00  0.00     0.126 C 
BRANCH   2   3
HETATM    3  C3  UNL     1      21.627   2.756  52.289  1.00  0.00     0.020 C 
BRANCH   3   4
HETATM    4  C2  UNL     1      20.535   1.784  52.818  1.00  0.00    -0.003 C 
HETATM    5  C1  UNL     1      20.433   0.550  51.944  1.00  0.00     0.005 C 
ENDBRANCH   3   4
ENDBRANCH   2   3
ENDBRANCH   1   2
BRANCH   1   6
HETATM    6  C5  UNL     1      24.777   3.506  51.275  1.00  0.00     0.290 A 
HETATM    7  S1  UNL     1      24.307   3.175  49.716  1.00  0.00     0.151 SA
HETATM    8  N2  UNL     1      25.440   4.482  50.567  1.00  0.00     0.071 N 
HETATM    9  H10 UNL     1      25.717   4.552  51.572  1.00  0.00     0.312 HD
BRANCH   8  10
HETATM   10  C6  UNL     1      25.995   5.363  49.638  1.00  0.00     0.156 A 
HETATM   11  C7  UNL     1      27.197   5.027  49.088  1.00  0.00     0.039 A 
HETATM   12  C8  UNL     1      27.719   5.923  48.193  1.00  0.00     0.002 A 
HETATM   13  C9  UNL     1      26.989   7.055  47.941  1.00  0.00     0.000 A 
HETATM   14  C10 UNL     1      25.760   7.394  48.505  1.00  0.00     0.002 A 
HETATM   15  C11 UNL     1      25.265   6.491  49.387  1.00  0.00     0.039 A 
ENDBRANCH   8  10
ENDBRANCH   1   6
BRANCH   1  16
HETATM   16  C12 UNL     1      24.939   1.880  53.059  1.00  0.00     0.144 A 
HETATM   17  C13 UNL     1      24.326   0.552  53.229  1.00  0.00     0.003 A 
HETATM   18  C14 UNL     1      24.841  -0.669  53.146  1.00  0.00     0.021 A 
HETATM   19  C15 UNL     1      26.286  -0.662  52.836  1.00  0.00     0.032 A 
HETATM   20 CL1  UNL     1      27.164  -2.183  52.657  1.00  0.00    -0.085 Cl
HETATM   21  C16 UNL     1      26.896   0.499  52.693  1.00  0.00     0.032 A 
HETATM   22  C17 UNL     1      26.388   1.892  52.799  1.00  0.00     0.196 A 
BRANCH  22  23
HETATM   23  O1  UNL     1      27.010   2.387  54.005  1.00  0.00    -0.272 OA
HETATM   24 CL2  UNL     1      28.671   2.535  53.640  1.00  0.00     0.062 Cl
ENDBRANCH  22  23
ENDBRANCH   1  16
TORSDOF 7
ENDMDL
MODEL 6
REMARK VINA RESULT:      -7.0      3.431      6.753
REMARK  7 active torsions:
REMARK  status: ('A' for Active; 'I' for Inactive)
REMARK    1  A    between atoms: C2_2  and  C3_3 
REMARK    2  A    between atoms: C3_3  and  C4_4 
REMARK    3  A    between atoms: C4_4  and  N1_5 
REMARK    4  A    between atoms: N1_5  and  C5_6 
REMARK    5  A    between atoms: N1_5  and  C12_15 
REMARK    6  A    between atoms: N2_8  and  C6_9 
REMARK    7  A    between atoms: C17_21  and  O1_22 
ROOT
HETATM    1  N1  UNL     1      23.788   1.974  51.826  1.00  0.00    -0.342 N 
ENDROOT
BRANCH   1   2
HETATM    2  C4  UNL     1      23.311   2.943  50.872  1.00  0.00     0.126 C 
BRANCH   2   3
HETATM    3  C3  UNL     1      23.765   2.862  49.468  1.00  0.00     0.020 C 
BRANCH   3   4
HETATM    4  C2  UNL     1      22.479   2.828  48.595  1.00  0.00    -0.003 C 
HETATM    5  C1  UNL     1      21.864   1.442  48.584  1.00  0.00     0.005 C 
ENDBRANCH   3   4
ENDBRANCH   2   3
ENDBRANCH   1   2
BRANCH   1   6
HETATM    6  C5  UNL     1      24.971   1.317  52.083  1.00  0.00     0.290 A 
HETATM    7  S1  UNL     1      25.502   2.065  53.469  1.00  0.00     0.151 SA
HETATM    8  N2  UNL     1      26.150   0.652  52.328  1.00  0.00     0.071 N 
HETATM    9  H10 UNL     1      25.752   0.305  51.427  1.00  0.00     0.312 HD
BRANCH   8  10
HETATM   10  C6  UNL     1      27.362   0.136  52.789  1.00  0.00     0.156 A 
HETATM   11  C7  UNL     1      27.498  -1.221  52.825  1.00  0.00     0.039 A 
HETATM   12  C8  UNL     1      28.694  -1.692  53.299  1.00  0.00     0.002 A 
HETATM   13  C9  UNL     1      29.626  -0.763  53.684  1.00  0.00     0.000 A 
HETATM   14  C10 UNL     1      29.483   0.624  53.644  1.00  0.00     0.002 A 
HETATM   15  C11 UNL     1      28.290   1.063  53.171  1.00  0.00     0.039 A 
ENDBRANCH   8  10
ENDBRANCH   1   6
BRANCH   1  16
HETATM   16  C12 UNL     1      22.655   1.598  52.723  1.00  0.00     0.144 A 
HETATM   17  C13 UNL     1      21.535   2.439  52.270  1.00  0.00     0.003 A 
HETATM   18  C14 UNL     1      20.313   2.125  51.857  1.00  0.00     0.021 A 
HETATM   19  C15 UNL     1      20.059   0.669  51.874  1.00  0.00     0.032 A 
HETATM   20 CL1  UNL     1      18.501   0.032  51.339  1.00  0.00    -0.085 Cl
HETATM   21  C16 UNL     1      21.017  -0.135  52.290  1.00  0.00     0.032 A 
HETATM   22  C17 UNL     1      22.389   0.151  52.788  1.00  0.00     0.196 A 
BRANCH  22  23
HETATM   23  O1  UNL     1      22.314  -0.183  54.191  1.00  0.00    -0.272 OA
HETATM   24 CL2  UNL     1      21.469  -1.664  54.269  1.00  0.00     0.062 Cl
ENDBRANCH  22  23
ENDBRANCH   1  16
TORSDOF 7
ENDMDL
MODEL 7
REMARK VINA RESULT:      -7.0      2.340      4.247
REMARK  7 active torsions:
REMARK  status: ('A' for Active; 'I' for Inactive)
REMARK    1  A    between atoms: C2_2  and  C3_3 
REMARK    2  A    between atoms: C3_3  and  C4_4 
REMARK    3  A    between atoms: C4_4  and  N1_5 
REMARK    4  A    between atoms: N1_5  and  C5_6 
REMARK    5  A    between atoms: N1_5  and  C12_15 
REMARK    6  A    between atoms: N2_8  and  C6_9 
REMARK    7  A    between atoms: C17_21  and  O1_22 
ROOT
HETATM    1  N1  UNL     1      24.284   0.866  52.752  1.00  0.00    -0.342 N 
ENDROOT
BRANCH   1   2
HETATM    2  C4  UNL     1      23.974  -0.039  53.831  1.00  0.00     0.126 C 
BRANCH   2   3
HETATM    3  C3  UNL     1      22.877  -1.014  53.664  1.00  0.00     0.020 C 
BRANCH   3   4
HETATM    4  C2  UNL     1      21.849  -0.712  54.791  1.00  0.00    -0.003 C 
HETATM    5  C1  UNL     1      20.816   0.298  54.330  1.00  0.00     0.005 C 
ENDBRANCH   3   4
ENDBRANCH   2   3
ENDBRANCH   1   2
BRANCH   1   6
HETATM    6  C5  UNL     1      23.676   1.288  51.590  1.00  0.00     0.290 A 
HETATM    7  S1  UNL     1      22.917   2.686  52.069  1.00  0.00     0.151 SA
HETATM    8  N2  UNL     1      23.076   1.697  50.422  1.00  0.00     0.071 N 
HETATM    9  H10 UNL     1      23.538   0.775  50.255  1.00  0.00     0.312 HD
BRANCH   8  10
HETATM   10  C6  UNL     1      22.381   2.317  49.383  1.00  0.00     0.156 A 
HETATM   11  C7  UNL     1      21.131   1.854  49.093  1.00  0.00     0.039 A 
HETATM   12  C8  UNL     1      20.485   2.474  48.057  1.00  0.00     0.002 A 
HETATM   13  C9  UNL     1      21.152   3.490  47.421  1.00  0.00     0.000 A 
HETATM   14  C10 UNL     1      22.429   3.962  47.721  1.00  0.00     0.002 A 
HETATM   15  C11 UNL     1      23.046   3.330  48.751  1.00  0.00     0.039 A 
ENDBRANCH   8  10
ENDBRANCH   1   6
BRANCH   1  16
HETATM   16  C12 UNL     1      25.640   1.442  52.995  1.00  0.00     0.144 A 
HETATM   17  C13 UNL     1      26.024   0.928  54.320  1.00  0.00     0.003 A 
HETATM   18  C14 UNL     1      27.083   0.234  54.718  1.00  0.00     0.021 A 
HETATM   19  C15 UNL     1      28.028  -0.051  53.619  1.00  0.00     0.032 A 
HETATM   20 CL1  UNL     1      29.494  -0.986  53.926  1.00  0.00    -0.085 Cl
HETATM   21  C16 UNL     1      27.749   0.402  52.412  1.00  0.00     0.032 A 
HETATM   22  C17 UNL     1      26.603   1.203  51.907  1.00  0.00     0.196 A 
BRANCH  22  23
HETATM   23  O1  UNL     1      27.195   2.485  51.604  1.00  0.00    -0.272 OA
HETATM   24 CL2  UNL     1      26.478   2.990  50.140  1.00  0.00     0.062 Cl
ENDBRANCH  22  23
ENDBRANCH   1  16
TORSDOF 7
ENDMDL
MODEL 8
REMARK VINA RESULT:      -7.0      1.768      5.010
REMARK  7 active torsions:
REMARK  status: ('A' for Active; 'I' for Inactive)
REMARK    1  A    between atoms: C2_2  and  C3_3 
REMARK    2  A    between atoms: C3_3  and  C4_4 
REMARK    3  A    between atoms: C4_4  and  N1_5 
REMARK    4  A    between atoms: N1_5  and  C5_6 
REMARK    5  A    between atoms: N1_5  and  C12_15 
REMARK    6  A    between atoms: N2_8  and  C6_9 
REMARK    7  A    between atoms: C17_21  and  O1_22 
ROOT
HETATM    1  N1  UNL     1      24.203   1.366  52.375  1.00  0.00    -0.342 N 
ENDROOT
BRANCH   1   2
HETATM    2  C4  UNL     1      23.152   0.425  52.675  1.00  0.00     0.126 C 
BRANCH   2   3
HETATM    3  C3  UNL     1      21.823   0.928  53.078  1.00  0.00     0.020 C 
BRANCH   3   4
HETATM    4  C2  UNL     1      21.055  -0.288  53.667  1.00  0.00    -0.003 C 
HETATM    5  C1  UNL     1      21.779  -0.858  54.872  1.00  0.00     0.005 C 
ENDBRANCH   3   4
ENDBRANCH   2   3
ENDBRANCH   1   2
BRANCH   1   6
HETATM    6  C5  UNL     1      24.445   2.328  51.420  1.00  0.00     0.290 A 
HETATM    7  S1  UNL     1      23.867   3.707  52.145  1.00  0.00     0.151 SA
HETATM    8  N2  UNL     1      24.694   3.279  50.457  1.00  0.00     0.071 N 
HETATM    9  H10 UNL     1      24.962   2.342  50.079  1.00  0.00     0.312 HD
BRANCH   8  10
HETATM   10  C6  UNL     1      24.841   4.412  49.656  1.00  0.00     0.156 A 
HETATM   11  C7  UNL     1      26.081   4.977  49.581  1.00  0.00     0.039 A 
HETATM   12  C8  UNL     1      26.184   6.097  48.800  1.00  0.00     0.002 A 
HETATM   13  C9  UNL     1      25.044   6.533  48.175  1.00  0.00     0.000 A 
HETATM   14  C10 UNL     1      23.779   5.951  48.252  1.00  0.00     0.002 A 
HETATM   15  C11 UNL     1      23.705   4.844  49.033  1.00  0.00     0.039 A 
ENDBRANCH   8  10
ENDBRANCH   1   6
BRANCH   1  16
HETATM   16  C12 UNL     1      25.298   1.184  53.373  1.00  0.00     0.144 A 
HETATM   17  C13 UNL     1      25.222  -0.239  53.744  1.00  0.00     0.003 A 
HETATM   18  C14 UNL     1      26.132  -1.205  53.704  1.00  0.00     0.021 A 
HETATM   19  C15 UNL     1      27.441  -0.740  53.203  1.00  0.00     0.032 A 
HETATM   20 CL1  UNL     1      28.788  -1.872  53.046  1.00  0.00    -0.085 Cl
HETATM   21  C16 UNL     1      27.578   0.531  52.875  1.00  0.00     0.032 A 
HETATM   22  C17 UNL     1      26.615   1.662  52.921  1.00  0.00     0.196 A 
BRANCH  22  23
HETATM   23  O1  UNL     1      27.127   2.498  53.982  1.00  0.00    -0.272 OA
HETATM   24 CL2  UNL     1      28.812   2.591  53.724  1.00  0.00     0.062 Cl
ENDBRANCH  22  23
ENDBRANCH   1  16
TORSDOF 7
ENDMDL
MODEL 9
REMARK VINA RESULT:      -6.8      3.385      7.036
REMARK  7 active torsions:
REMARK  status: ('A' for Active; 'I' for Inactive)
REMARK    1  A    between atoms: C2_2  and  C3_3 
REMARK    2  A    between atoms: C3_3  and  C4_4 
REMARK    3  A    between atoms: C4_4  and  N1_5 
REMARK    4  A    between atoms: N1_5  and  C5_6 
REMARK    5  A    between atoms: N1_5  and  C12_15 
REMARK    6  A    between atoms: N2_8  and  C6_9 
REMARK    7  A    between atoms: C17_21  and  O1_22 
ROOT
HETATM    1  N1  UNL     1      23.670   1.548  52.350  1.00  0.00    -0.342 N 
ENDROOT
BRANCH   1   2
HETATM    2  C4  UNL     1      22.294   1.285  52.692  1.00  0.00     0.126 C 
BRANCH   2   3
HETATM    3  C3  UNL     1      21.615   0.110  52.109  1.00  0.00     0.020 C 
BRANCH   3   4
HETATM    4  C2  UNL     1      20.607  -0.389  53.181  1.00  0.00    -0.003 C 
HETATM    5  C1  UNL     1      21.308  -1.204  54.251  1.00  0.00     0.005 C 
ENDBRANCH   3   4
ENDBRANCH   2   3
ENDBRANCH   1   2
BRANCH   1   6
HETATM    6  C5  UNL     1      24.867   0.869  52.412  1.00  0.00     0.290 A 
HETATM    7  S1  UNL     1      24.823   0.203  53.933  1.00  0.00     0.151 SA
HETATM    8  N2  UNL     1      26.065   0.195  52.459  1.00  0.00     0.071 N 
HETATM    9  H10 UNL     1      26.011   0.717  51.555  1.00  0.00     0.312 HD
BRANCH   8  10
HETATM   10  C6  UNL     1      27.202  -0.560  52.750  1.00  0.00     0.156 A 
HETATM   11  C7  UNL     1      27.137  -1.907  52.540  1.00  0.00     0.039 A 
HETATM   12  C8  UNL     1      28.265  -2.618  52.853  1.00  0.00     0.002 A 
HETATM   13  C9  UNL     1      29.336  -1.914  53.339  1.00  0.00     0.000 A 
HETATM   14  C10 UNL     1      29.399  -0.536  53.550  1.00  0.00     0.002 A 
HETATM   15  C11 UNL     1      28.269   0.144  53.232  1.00  0.00     0.039 A 
ENDBRANCH   8  10
ENDBRANCH   1   6
BRANCH   1  16
HETATM   16  C12 UNL     1      23.768   2.943  51.827  1.00  0.00     0.144 A 
HETATM   17  C13 UNL     1      24.591   2.822  50.613  1.00  0.00     0.003 A 
HETATM   18  C14 UNL     1      24.359   3.179  49.355  1.00  0.00     0.021 A 
HETATM   19  C15 UNL     1      23.036   3.813  49.175  1.00  0.00     0.032 A 
HETATM   20 CL1  UNL     1      22.514   4.341  47.573  1.00  0.00    -0.085 Cl
HETATM   21  C16 UNL     1      22.260   3.968  50.230  1.00  0.00     0.032 A 
HETATM   22  C17 UNL     1      22.470   3.619  51.660  1.00  0.00     0.196 A 
BRANCH  22  23
HETATM   23  O1  UNL     1      22.599   4.904  52.305  1.00  0.00    -0.272 OA
HETATM   24 CL2  UNL     1      23.771   4.693  53.528  1.00  0.00     0.062 Cl
ENDBRANCH  22  23
ENDBRANCH   1  16
TORSDOF 7
ENDMDL
