MODEL 1
REMARK VINA RESULT:      -8.0      0.000      0.000
REMARK  6 active torsions:
REMARK  status: ('A' for Active; 'I' for Inactive)
REMARK    1  A    between atoms: O1_2  and  C2_3 
REMARK    2  A    between atoms: C6_7  and  N1_8 
REMARK    3  A    between atoms: N1_8  and  C7_9 
REMARK    4  A    between atoms: C10_15  and  C11_16 
REMARK    5  A    between atoms: C11_16  and  O2_17 
REMARK    6  A    between atoms: O2_17  and  C12_18 
ROOT
HETATM    1  C7  UNL     1      22.980  -0.748  54.551  1.00  0.00     0.158 A 
HETATM    2  N2  UNL     1      22.075  -1.635  54.885  1.00  0.00    -0.220 NA
HETATM    3  C8  UNL     1      20.763  -1.586  54.301  1.00  0.00     0.257 A 
HETATM    4  N3  UNL     1      20.341  -0.710  53.425  1.00  0.00    -0.165 NA
HETATM    5  N4  UNL     1      21.271   0.282  53.019  1.00  0.00    -0.261 N 
HETATM    6  C9  UNL     1      21.606   1.447  52.226  1.00  0.00     0.190 A 
HETATM    7  C10 UNL     1      22.951   1.319  52.888  1.00  0.00    -0.004 A 
HETATM    8  C16 UNL     1      22.578   0.257  53.581  1.00  0.00     0.105 A 
ENDROOT
BRANCH   1   9
HETATM    9  N1  UNL     1      24.283  -0.820  55.150  1.00  0.00    -0.339 N 
HETATM   10  H7  UNL     1      24.259  -0.973  56.201  1.00  0.00     0.167 HD
BRANCH   9  11
HETATM   11  C6  UNL     1      25.434  -0.683  54.299  1.00  0.00     0.036 A 
HETATM   12  C5  UNL     1      25.658  -1.220  53.048  1.00  0.00     0.029 A 
HETATM   13  C4  UNL     1      26.856  -0.942  52.424  1.00  0.00     0.005 A 
HETATM   14  C3  UNL     1      27.823  -0.154  53.006  1.00  0.00     0.037 A 
HETATM   15  C2  UNL     1      27.612   0.388  54.255  1.00  0.00     0.070 A 
HETATM   16  C17 UNL     1      26.424   0.116  54.878  1.00  0.00     0.066 A 
BRANCH  15  17
HETATM   17  O1  UNL     1      28.605   1.182  54.821  1.00  0.00    -0.356 OA
HETATM   18  C1  UNL     1      29.206   2.252  54.107  1.00  0.00     0.210 C 
ENDBRANCH  15  17
ENDBRANCH   9  11
ENDBRANCH   1   9
BRANCH   7  19
HETATM   19  C11 UNL     1      24.177   2.139  52.742  1.00  0.00     0.209 C 
BRANCH  19  20
HETATM   20  O2  UNL     1      23.911   3.496  52.888  1.00  0.00    -0.355 OA
BRANCH  20  21
HETATM   21  C12 UNL     1      23.786   4.156  51.691  1.00  0.00     0.287 C 
HETATM   22  C13 UNL     1      23.191   5.553  51.867  1.00  0.00     0.330 C 
HETATM   23  N5  UNL     1      24.297   6.495  51.979  1.00  0.00     0.090 N 
HETATM   24  C14 UNL     1      24.911   6.608  50.676  1.00  0.00     0.295 C 
HETATM   25  H16 UNL     1      25.035   6.124  52.631  1.00  0.00     0.316 HD
HETATM   26  C15 UNL     1      24.965   5.232  50.058  1.00  0.00     0.201 C 
HETATM   27  O3  UNL     1      25.020   4.236  51.028  1.00  0.00    -0.358 OA
ENDBRANCH  20  21
ENDBRANCH  19  20
ENDBRANCH   7  19
TORSDOF 6
ENDMDL
MODEL 2
REMARK VINA RESULT:      -7.9      1.520      2.116
REMARK  6 active torsions:
REMARK  status: ('A' for Active; 'I' for Inactive)
REMARK    1  A    between atoms: O1_2  and  C2_3 
REMARK    2  A    between atoms: C6_7  and  N1_8 
REMARK    3  A    between atoms: N1_8  and  C7_9 
REMARK    4  A    between atoms: C10_15  and  C11_16 
REMARK    5  A    between atoms: C11_16  and  O2_17 
REMARK    6  A    between atoms: O2_17  and  C12_18 
ROOT
HETATM    1  C7  UNL     1      24.091  -0.405  53.527  1.00  0.00     0.158 A 
HETATM    2  N2  UNL     1      24.346  -0.987  54.673  1.00  0.00    -0.220 NA
HETATM    3  C8  UNL     1      23.270  -1.436  55.513  1.00  0.00     0.257 A 
HETATM    4  N3  UNL     1      21.991  -1.324  55.254  1.00  0.00    -0.165 NA
HETATM    5  N4  UNL     1      21.643  -0.701  54.028  1.00  0.00    -0.261 N 
HETATM    6  C9  UNL     1      20.642  -0.238  53.089  1.00  0.00     0.190 A 
HETATM    7  C10 UNL     1      21.830   0.199  52.276  1.00  0.00    -0.004 A 
HETATM    8  C16 UNL     1      22.688  -0.248  53.176  1.00  0.00     0.105 A 
ENDROOT
BRANCH   1   9
HETATM    9  N1  UNL     1      25.184   0.033  52.707  1.00  0.00    -0.339 N 
HETATM   10  H7  UNL     1      24.930   0.831  52.051  1.00  0.00     0.167 HD
BRANCH   9  11
HETATM   11  C6  UNL     1      26.454  -0.625  52.853  1.00  0.00     0.036 A 
HETATM   12  C5  UNL     1      26.790  -1.934  52.577  1.00  0.00     0.029 A 
HETATM   13  C4  UNL     1      28.090  -2.334  52.803  1.00  0.00     0.005 A 
HETATM   14  C3  UNL     1      29.051  -1.476  53.289  1.00  0.00     0.037 A 
HETATM   15  C2  UNL     1      28.728  -0.167  53.569  1.00  0.00     0.070 A 
HETATM   16  C17 UNL     1      27.439   0.236  53.346  1.00  0.00     0.066 A 
BRANCH  15  17
HETATM   17  O1  UNL     1      29.717   0.680  54.059  1.00  0.00    -0.356 OA
HETATM   18  C1  UNL     1      29.437   2.022  54.430  1.00  0.00     0.210 C 
ENDBRANCH  15  17
ENDBRANCH   9  11
ENDBRANCH   1   9
BRANCH   7  19
HETATM   19  C11 UNL     1      21.898   0.875  50.959  1.00  0.00     0.209 C 
BRANCH  19  20
HETATM   20  O2  UNL     1      22.920   1.816  50.914  1.00  0.00    -0.355 OA
BRANCH  20  21
HETATM   21  C12 UNL     1      22.685   2.911  51.707  1.00  0.00     0.287 C 
HETATM   22  C13 UNL     1      23.961   3.414  52.380  1.00  0.00     0.330 C 
HETATM   23  N5  UNL     1      24.522   4.464  51.540  1.00  0.00     0.090 N 
HETATM   24  C14 UNL     1      23.663   5.621  51.651  1.00  0.00     0.295 C 
HETATM   25  H16 UNL     1      24.510   4.173  50.527  1.00  0.00     0.316 HD
HETATM   26  C15 UNL     1      22.231   5.148  51.658  1.00  0.00     0.201 C 
HETATM   27  O3  UNL     1      22.084   3.945  50.974  1.00  0.00    -0.358 OA
ENDBRANCH  20  21
ENDBRANCH  19  20
ENDBRANCH   7  19
TORSDOF 6
ENDMDL
MODEL 3
REMARK VINA RESULT:      -7.8      2.689      5.892
REMARK  6 active torsions:
REMARK  status: ('A' for Active; 'I' for Inactive)
REMARK    1  A    between atoms: O1_2  and  C2_3 
REMARK    2  A    between atoms: C6_7  and  N1_8 
REMARK    3  A    between atoms: N1_8  and  C7_9 
REMARK    4  A    between atoms: C10_15  and  C11_16 
REMARK    5  A    between atoms: C11_16  and  O2_17 
REMARK    6  A    between atoms: O2_17  and  C12_18 
ROOT
HETATM    1  C7  UNL     1      26.732   1.842  52.199  1.00  0.00     0.158 A 
HETATM    2  N2  UNL     1      27.877   2.465  52.337  1.00  0.00    -0.220 NA
HETATM    3  C8  UNL     1      28.654   2.295  53.534  1.00  0.00     0.257 A 
HETATM    4  N3  UNL     1      28.335   1.549  54.561  1.00  0.00    -0.165 NA
HETATM    5  N4  UNL     1      27.106   0.845  54.479  1.00  0.00    -0.261 N 
HETATM    6  C9  UNL     1      26.129  -0.058  55.051  1.00  0.00     0.190 A 
HETATM    7  C10 UNL     1      25.384   0.179  53.766  1.00  0.00    -0.004 A 
HETATM    8  C16 UNL     1      26.316   0.995  53.304  1.00  0.00     0.105 A 
ENDROOT
BRANCH   1   9
HETATM    9  N1  UNL     1      25.976   2.029  50.993  1.00  0.00    -0.339 N 
HETATM   10  H7  UNL     1      25.466   1.153  50.672  1.00  0.00     0.167 HD
BRANCH   9  11
HETATM   11  C6  UNL     1      25.988   3.326  50.373  1.00  0.00     0.036 A 
HETATM   12  C5  UNL     1      26.822   3.810  49.387  1.00  0.00     0.029 A 
HETATM   13  C4  UNL     1      26.634   5.104  48.951  1.00  0.00     0.005 A 
HETATM   14  C3  UNL     1      25.651   5.919  49.466  1.00  0.00     0.037 A 
HETATM   15  C2  UNL     1      24.812   5.449  50.452  1.00  0.00     0.070 A 
HETATM   16  C17 UNL     1      24.994   4.164  50.888  1.00  0.00     0.066 A 
BRANCH  15  17
HETATM   17  O1  UNL     1      23.826   6.291  50.956  1.00  0.00    -0.356 OA
HETATM   18  C1  UNL     1      23.909   7.703  50.826  1.00  0.00     0.210 C 
ENDBRANCH  15  17
ENDBRANCH   9  11
ENDBRANCH   1   9
BRANCH   7  19
HETATM   19  C11 UNL     1      24.086  -0.358  53.294  1.00  0.00     0.209 C 
BRANCH  19  20
HETATM   20  O2  UNL     1      23.063   0.574  53.426  1.00  0.00    -0.355 OA
BRANCH  20  21
HETATM   21  C12 UNL     1      22.301   0.709  52.293  1.00  0.00     0.287 C 
HETATM   22  C13 UNL     1      21.085   1.606  52.523  1.00  0.00     0.330 C 
HETATM   23  N5  UNL     1      21.451   2.959  52.128  1.00  0.00     0.090 N 
HETATM   24  C14 UNL     1      21.555   2.982  50.687  1.00  0.00     0.295 C 
HETATM   25  H16 UNL     1      22.402   3.211  52.505  1.00  0.00     0.316 HD
HETATM   26  C15 UNL     1      22.225   1.706  50.240  1.00  0.00     0.201 C 
HETATM   27  O3  UNL     1      23.067   1.198  51.224  1.00  0.00    -0.358 OA
ENDBRANCH  20  21
ENDBRANCH  19  20
ENDBRANCH   7  19
TORSDOF 6
ENDMDL
MODEL 4
REMARK VINA RESULT:      -7.7      1.845      4.942
REMARK  6 active torsions:
REMARK  status: ('A' for Active; 'I' for Inactive)
REMARK    1  A    between atoms: O1_2  and  C2_3 
REMARK    2  A    between atoms: C6_7  and  N1_8 
REMARK    3  A    between atoms: N1_8  and  C7_9 
REMARK    4  A    between atoms: C10_15  and  C11_16 
REMARK    5  A    between atoms: C11_16  and  O2_17 
REMARK    6  A    between atoms: O2_17  and  C12_18 
ROOT
HETATM    1  C7  UNL     1      22.240   0.467  52.240  1.00  0.00     0.158 A 
HETATM    2  N2  UNL     1      20.938   0.408  52.099  1.00  0.00    -0.220 NA
HETATM    3  C8  UNL     1      20.138  -0.304  53.056  1.00  0.00     0.257 A 
HETATM    4  N3  UNL     1      20.580  -0.939  54.112  1.00  0.00    -0.165 NA
HETATM    5  N4  UNL     1      21.982  -0.917  54.326  1.00  0.00    -0.261 N 
HETATM    6  C9  UNL     1      23.145  -1.288  55.106  1.00  0.00     0.190 A 
HETATM    7  C10 UNL     1      23.903  -0.521  54.056  1.00  0.00    -0.004 A 
HETATM    8  C16 UNL     1      22.800  -0.218  53.394  1.00  0.00     0.105 A 
ENDROOT
BRANCH   1   9
HETATM    9  N1  UNL     1      23.016   1.186  51.269  1.00  0.00    -0.339 N 
HETATM   10  H7  UNL     1      23.385   0.572  50.483  1.00  0.00     0.167 HD
BRANCH   9  11
HETATM   11  C6  UNL     1      23.204   2.599  51.456  1.00  0.00     0.036 A 
HETATM   12  C5  UNL     1      22.515   3.465  52.278  1.00  0.00     0.029 A 
HETATM   13  C4  UNL     1      22.886   4.793  52.283  1.00  0.00     0.005 A 
HETATM   14  C3  UNL     1      23.911   5.274  51.500  1.00  0.00     0.037 A 
HETATM   15  C2  UNL     1      24.607   4.419  50.674  1.00  0.00     0.070 A 
HETATM   16  C17 UNL     1      24.243   3.100  50.666  1.00  0.00     0.066 A 
BRANCH  15  17
HETATM   17  O1  UNL     1      25.639   4.930  49.893  1.00  0.00    -0.356 OA
HETATM   18  C1  UNL     1      26.657   4.096  49.359  1.00  0.00     0.210 C 
ENDBRANCH  15  17
ENDBRANCH   9  11
ENDBRANCH   1   9
BRANCH   7  19
HETATM   19  C11 UNL     1      25.355  -0.262  53.915  1.00  0.00     0.209 C 
BRANCH  19  20
HETATM   20  O2  UNL     1      25.655   0.344  52.700  1.00  0.00    -0.355 OA
BRANCH  20  21
HETATM   21  C12 UNL     1      26.995   0.590  52.533  1.00  0.00     0.287 C 
HETATM   22  C13 UNL     1      27.298   2.086  52.455  1.00  0.00     0.330 C 
HETATM   23  N5  UNL     1      27.645   2.538  53.796  1.00  0.00     0.090 N 
HETATM   24  C14 UNL     1      28.946   1.999  54.118  1.00  0.00     0.295 C 
HETATM   25  H16 UNL     1      26.971   2.148  54.504  1.00  0.00     0.316 HD
HETATM   26  C15 UNL     1      29.010   0.581  53.606  1.00  0.00     0.201 C 
HETATM   27  O3  UNL     1      27.749  -0.004  53.556  1.00  0.00    -0.358 OA
ENDBRANCH  20  21
ENDBRANCH  19  20
ENDBRANCH   7  19
TORSDOF 6
ENDMDL
MODEL 5
REMARK VINA RESULT:      -7.6      2.693      6.410
REMARK  6 active torsions:
REMARK  status: ('A' for Active; 'I' for Inactive)
REMARK    1  A    between atoms: O1_2  and  C2_3 
REMARK    2  A    between atoms: C6_7  and  N1_8 
REMARK    3  A    between atoms: N1_8  and  C7_9 
REMARK    4  A    between atoms: C10_15  and  C11_16 
REMARK    5  A    between atoms: C11_16  and  O2_17 
REMARK    6  A    between atoms: O2_17  and  C12_18 
ROOT
HETATM    1  C7  UNL     1      26.898   2.042  53.700  1.00  0.00     0.158 A 
HETATM    2  N2  UNL     1      28.055   2.532  54.072  1.00  0.00    -0.220 NA
HETATM    3  C8  UNL     1      29.209   1.681  54.157  1.00  0.00     0.257 A 
HETATM    4  N3  UNL     1      29.244   0.399  53.891  1.00  0.00    -0.165 NA
HETATM    5  N4  UNL     1      28.024  -0.198  53.482  1.00  0.00    -0.261 N 
HETATM    6  C9  UNL     1      27.268  -1.359  53.059  1.00  0.00     0.190 A 
HETATM    7  C10 UNL     1      26.115  -0.395  52.999  1.00  0.00    -0.004 A 
HETATM    8  C16 UNL     1      26.865   0.622  53.389  1.00  0.00     0.105 A 
ENDROOT
BRANCH   1   9
HETATM    9  N1  UNL     1      25.761   2.915  53.623  1.00  0.00    -0.339 N 
HETATM   10  H7  UNL     1      25.565   3.436  54.529  1.00  0.00     0.167 HD
BRANCH   9  11
HETATM   11  C6  UNL     1      25.038   2.988  52.383  1.00  0.00     0.036 A 
HETATM   12  C5  UNL     1      25.528   3.032  51.094  1.00  0.00     0.029 A 
HETATM   13  C4  UNL     1      24.624   3.102  50.055  1.00  0.00     0.005 A 
HETATM   14  C3  UNL     1      23.264   3.128  50.264  1.00  0.00     0.037 A 
HETATM   15  C2  UNL     1      22.762   3.085  51.546  1.00  0.00     0.070 A 
HETATM   16  C17 UNL     1      23.655   3.016  52.580  1.00  0.00     0.066 A 
BRANCH  15  17
HETATM   17  O1  UNL     1      21.383   3.113  51.730  1.00  0.00    -0.356 OA
HETATM   18  C1  UNL     1      20.606   4.253  51.397  1.00  0.00     0.210 C 
ENDBRANCH  15  17
ENDBRANCH   9  11
ENDBRANCH   1   9
BRANCH   7  19
HETATM   19  C11 UNL     1      24.697  -0.612  52.625  1.00  0.00     0.209 C 
BRANCH  19  20
HETATM   20  O2  UNL     1      23.891  -0.793  53.743  1.00  0.00    -0.355 OA
BRANCH  20  21
HETATM   21  C12 UNL     1      22.590  -1.100  53.430  1.00  0.00     0.287 C 
HETATM   22  C13 UNL     1      21.717  -1.232  54.677  1.00  0.00     0.330 C 
HETATM   23  N5  UNL     1      21.084   0.059  54.914  1.00  0.00     0.090 N 
HETATM   24  C14 UNL     1      20.088   0.255  53.886  1.00  0.00     0.295 C 
HETATM   25  H16 UNL     1      21.785   0.839  54.811  1.00  0.00     0.316 HD
HETATM   26  C15 UNL     1      20.655  -0.239  52.578  1.00  0.00     0.201 C 
HETATM   27  O3  UNL     1      22.043  -0.150  52.555  1.00  0.00    -0.358 OA
ENDBRANCH  20  21
ENDBRANCH  19  20
ENDBRANCH   7  19
TORSDOF 6
ENDMDL
MODEL 6
REMARK VINA RESULT:      -7.6      2.300      5.079
REMARK  6 active torsions:
REMARK  status: ('A' for Active; 'I' for Inactive)
REMARK    1  A    between atoms: O1_2  and  C2_3 
REMARK    2  A    between atoms: C6_7  and  N1_8 
REMARK    3  A    between atoms: N1_8  and  C7_9 
REMARK    4  A    between atoms: C10_15  and  C11_16 
REMARK    5  A    between atoms: C11_16  and  O2_17 
REMARK    6  A    between atoms: O2_17  and  C12_18 
ROOT
HETATM    1  C7  UNL     1      24.543   2.615  51.481  1.00  0.00     0.158 A 
HETATM    2  N2  UNL     1      25.416   3.522  51.116  1.00  0.00    -0.220 NA
HETATM    3  C8  UNL     1      25.275   4.198  49.856  1.00  0.00     0.257 A 
HETATM    4  N3  UNL     1      24.324   4.002  48.978  1.00  0.00    -0.165 NA
HETATM    5  N4  UNL     1      23.345   3.030  49.308  1.00  0.00    -0.261 N 
HETATM    6  C9  UNL     1      22.141   2.293  48.983  1.00  0.00     0.190 A 
HETATM    7  C10 UNL     1      22.367   1.637  50.318  1.00  0.00    -0.004 A 
HETATM    8  C16 UNL     1      23.459   2.346  50.550  1.00  0.00     0.105 A 
ENDROOT
BRANCH   1   9
HETATM    9  N1  UNL     1      24.707   1.955  52.745  1.00  0.00    -0.339 N 
HETATM   10  H7  UNL     1      23.993   2.253  53.474  1.00  0.00     0.167 HD
BRANCH   9  11
HETATM   11  C6  UNL     1      25.775   1.002  52.885  1.00  0.00     0.036 A 
HETATM   12  C5  UNL     1      25.952  -0.204  52.240  1.00  0.00     0.029 A 
HETATM   13  C4  UNL     1      27.071  -0.949  52.548  1.00  0.00     0.005 A 
HETATM   14  C3  UNL     1      28.004  -0.530  53.469  1.00  0.00     0.037 A 
HETATM   15  C2  UNL     1      27.839   0.673  54.120  1.00  0.00     0.070 A 
HETATM   16  C17 UNL     1      26.730   1.416  53.818  1.00  0.00     0.066 A 
BRANCH  15  17
HETATM   17  O1  UNL     1      28.796   1.074  55.046  1.00  0.00    -0.356 OA
HETATM   18  C1  UNL     1      29.754   2.078  54.746  1.00  0.00     0.210 C 
ENDBRANCH  15  17
ENDBRANCH   9  11
ENDBRANCH   1   9
BRANCH   7  19
HETATM   19  C11 UNL     1      21.588   0.591  51.021  1.00  0.00     0.209 C 
BRANCH  19  20
HETATM   20  O2  UNL     1      20.944   1.094  52.145  1.00  0.00    -0.355 OA
BRANCH  20  21
HETATM   21  C12 UNL     1      21.547   0.733  53.324  1.00  0.00     0.287 C 
HETATM   22  C13 UNL     1      20.534   0.245  54.359  1.00  0.00     0.330 C 
HETATM   23  N5  UNL     1      20.455  -1.206  54.253  1.00  0.00     0.090 N 
HETATM   24  C14 UNL     1      21.686  -1.752  54.777  1.00  0.00     0.295 C 
HETATM   25  H16 UNL     1      20.398  -1.501  53.243  1.00  0.00     0.316 HD
HETATM   26  C15 UNL     1      22.826  -0.880  54.311  1.00  0.00     0.201 C 
HETATM   27  O3  UNL     1      22.529  -0.245  53.110  1.00  0.00    -0.358 OA
ENDBRANCH  20  21
ENDBRANCH  19  20
ENDBRANCH   7  19
TORSDOF 6
ENDMDL
MODEL 7
REMARK VINA RESULT:      -7.5      2.087      2.843
REMARK  6 active torsions:
REMARK  status: ('A' for Active; 'I' for Inactive)
REMARK    1  A    between atoms: O1_2  and  C2_3 
REMARK    2  A    between atoms: C6_7  and  N1_8 
REMARK    3  A    between atoms: N1_8  and  C7_9 
REMARK    4  A    between atoms: C10_15  and  C11_16 
REMARK    5  A    between atoms: C11_16  and  O2_17 
REMARK    6  A    between atoms: O2_17  and  C12_18 
ROOT
HETATM    1  C7  UNL     1      22.973   1.322  51.925  1.00  0.00     0.158 A 
HETATM    2  N2  UNL     1      21.970   0.479  51.963  1.00  0.00    -0.220 NA
HETATM    3  C8  UNL     1      21.141   0.286  50.805  1.00  0.00     0.257 A 
HETATM    4  N3  UNL     1      21.277   0.889  49.650  1.00  0.00    -0.165 NA
HETATM    5  N4  UNL     1      22.343   1.817  49.540  1.00  0.00    -0.261 N 
HETATM    6  C9  UNL     1      23.106   2.775  48.765  1.00  0.00     0.190 A 
HETATM    7  C10 UNL     1      23.919   2.912  50.023  1.00  0.00    -0.004 A 
HETATM    8  C16 UNL     1      23.181   2.027  50.671  1.00  0.00     0.105 A 
ENDROOT
BRANCH   1   9
HETATM    9  N1  UNL     1      23.785   1.495  53.096  1.00  0.00    -0.339 N 
HETATM   10  H7  UNL     1      23.286   1.999  53.887  1.00  0.00     0.167 HD
BRANCH   9  11
HETATM   11  C6  UNL     1      25.131   0.990  53.074  1.00  0.00     0.036 A 
HETATM   12  C5  UNL     1      25.590  -0.238  52.646  1.00  0.00     0.029 A 
HETATM   13  C4  UNL     1      26.944  -0.492  52.725  1.00  0.00     0.005 A 
HETATM   14  C3  UNL     1      27.838   0.434  53.213  1.00  0.00     0.037 A 
HETATM   15  C2  UNL     1      27.392   1.664  53.644  1.00  0.00     0.070 A 
HETATM   16  C17 UNL     1      26.050   1.920  53.567  1.00  0.00     0.066 A 
BRANCH  15  17
HETATM   17  O1  UNL     1      28.317   2.581  54.133  1.00  0.00    -0.356 OA
HETATM   18  C1  UNL     1      29.633   2.196  54.499  1.00  0.00     0.210 C 
ENDBRANCH  15  17
ENDBRANCH   9  11
ENDBRANCH   1   9
BRANCH   7  19
HETATM   19  C11 UNL     1      25.099   3.760  50.319  1.00  0.00     0.209 C 
BRANCH  19  20
HETATM   20  O2  UNL     1      24.728   5.015  50.787  1.00  0.00    -0.355 OA
BRANCH  20  21
HETATM   21  C12 UNL     1      24.887   6.011  49.856  1.00  0.00     0.287 C 
HETATM   22  C13 UNL     1      24.949   7.394  50.502  1.00  0.00     0.330 C 
HETATM   23  N5  UNL     1      26.352   7.722  50.715  1.00  0.00     0.090 N 
HETATM   24  C14 UNL     1      26.943   7.982  49.422  1.00  0.00     0.295 C 
HETATM   25  H16 UNL     1      26.867   6.899  51.123  1.00  0.00     0.316 HD
HETATM   26  C15 UNL     1      26.397   6.974  48.441  1.00  0.00     0.201 C 
HETATM   27  O3  UNL     1      26.030   5.791  49.072  1.00  0.00    -0.358 OA
ENDBRANCH  20  21
ENDBRANCH  19  20
ENDBRANCH   7  19
TORSDOF 6
ENDMDL
MODEL 8
REMARK VINA RESULT:      -7.5      2.701      6.461
REMARK  6 active torsions:
REMARK  status: ('A' for Active; 'I' for Inactive)
REMARK    1  A    between atoms: O1_2  and  C2_3 
REMARK    2  A    between atoms: C6_7  and  N1_8 
REMARK    3  A    between atoms: N1_8  and  C7_9 
REMARK    4  A    between atoms: C10_15  and  C11_16 
REMARK    5  A    between atoms: C11_16  and  O2_17 
REMARK    6  A    between atoms: O2_17  and  C12_18 
ROOT
HETATM    1  C7  UNL     1      27.271   1.579  52.400  1.00  0.00     0.158 A 
HETATM    2  N2  UNL     1      28.390   2.223  52.628  1.00  0.00    -0.220 NA
HETATM    3  C8  UNL     1      29.040   2.115  53.905  1.00  0.00     0.257 A 
HETATM    4  N3  UNL     1      28.622   1.409  54.926  1.00  0.00    -0.165 NA
HETATM    5  N4  UNL     1      27.415   0.687  54.748  1.00  0.00    -0.261 N 
HETATM    6  C9  UNL     1      26.392  -0.204  55.256  1.00  0.00     0.190 A 
HETATM    7  C10 UNL     1      25.782  -0.033  53.892  1.00  0.00    -0.004 A 
HETATM    8  C16 UNL     1      26.750   0.775  53.493  1.00  0.00     0.105 A 
ENDROOT
BRANCH   1   9
HETATM    9  N1  UNL     1      26.642   1.704  51.115  1.00  0.00    -0.339 N 
HETATM   10  H7  UNL     1      26.755   0.842  50.502  1.00  0.00     0.167 HD
BRANCH   9  11
HETATM   11  C6  UNL     1      25.956   2.929  50.807  1.00  0.00     0.036 A 
HETATM   12  C5  UNL     1      24.761   3.403  51.305  1.00  0.00     0.029 A 
HETATM   13  C4  UNL     1      24.302   4.621  50.850  1.00  0.00     0.005 A 
HETATM   14  C3  UNL     1      24.994   5.369  49.924  1.00  0.00     0.037 A 
HETATM   15  C2  UNL     1      26.189   4.906  49.418  1.00  0.00     0.070 A 
HETATM   16  C17 UNL     1      26.649   3.698  49.867  1.00  0.00     0.066 A 
BRANCH  15  17
HETATM   17  O1  UNL     1      26.869   5.680  48.483  1.00  0.00    -0.356 OA
HETATM   18  C1  UNL     1      28.275   5.586  48.314  1.00  0.00     0.210 C 
ENDBRANCH  15  17
ENDBRANCH   9  11
ENDBRANCH   1   9
BRANCH   7  19
HETATM   19  C11 UNL     1      24.544  -0.607  53.312  1.00  0.00     0.209 C 
BRANCH  19  20
HETATM   20  O2  UNL     1      23.492   0.301  53.341  1.00  0.00    -0.355 OA
BRANCH  20  21
HETATM   21  C12 UNL     1      22.348  -0.175  52.749  1.00  0.00     0.287 C 
HETATM   22  C13 UNL     1      21.774  -1.377  53.499  1.00  0.00     0.330 C 
HETATM   23  N5  UNL     1      20.775  -0.879  54.436  1.00  0.00     0.090 N 
HETATM   24  C14 UNL     1      19.630  -0.446  53.668  1.00  0.00     0.295 C 
HETATM   25  H16 UNL     1      21.137  -0.032  54.946  1.00  0.00     0.316 HD
HETATM   26  C15 UNL     1      20.130   0.261  52.432  1.00  0.00     0.201 C 
HETATM   27  O3  UNL     1      21.380   0.834  52.639  1.00  0.00    -0.358 OA
ENDBRANCH  20  21
ENDBRANCH  19  20
ENDBRANCH   7  19
TORSDOF 6
ENDMDL
MODEL 9
REMARK VINA RESULT:      -7.4      2.086      5.439
REMARK  6 active torsions:
REMARK  status: ('A' for Active; 'I' for Inactive)
REMARK    1  A    between atoms: O1_2  and  C2_3 
REMARK    2  A    between atoms: C6_7  and  N1_8 
REMARK    3  A    between atoms: N1_8  and  C7_9 
REMARK    4  A    between atoms: C10_15  and  C11_16 
REMARK    5  A    between atoms: C11_16  and  O2_17 
REMARK    6  A    between atoms: O2_17  and  C12_18 
ROOT
HETATM    1  C7  UNL     1      23.398   4.563  52.126  1.00  0.00     0.158 A 
HETATM    2  N2  UNL     1      24.101   5.505  51.545  1.00  0.00    -0.220 NA
HETATM    3  C8  UNL     1      23.530   6.281  50.480  1.00  0.00     0.257 A 
HETATM    4  N3  UNL     1      22.322   6.152  49.993  1.00  0.00    -0.165 NA
HETATM    5  N4  UNL     1      21.505   5.149  50.576  1.00  0.00    -0.261 N 
HETATM    6  C9  UNL     1      20.249   4.432  50.652  1.00  0.00     0.190 A 
HETATM    7  C10 UNL     1      20.927   3.670  51.757  1.00  0.00    -0.004 A 
HETATM    8  C16 UNL     1      22.045   4.365  51.634  1.00  0.00     0.105 A 
ENDROOT
BRANCH   1   9
HETATM    9  N1  UNL     1      23.993   3.802  53.189  1.00  0.00    -0.339 N 
HETATM   10  H7  UNL     1      23.710   4.135  54.158  1.00  0.00     0.167 HD
BRANCH   9  11
HETATM   11  C6  UNL     1      24.871   2.718  52.843  1.00  0.00     0.036 A 
HETATM   12  C5  UNL     1      24.994   2.049  51.643  1.00  0.00     0.029 A 
HETATM   13  C4  UNL     1      25.919   1.030  51.556  1.00  0.00     0.005 A 
HETATM   14  C3  UNL     1      26.714   0.666  52.620  1.00  0.00     0.037 A 
HETATM   15  C2  UNL     1      26.601   1.325  53.824  1.00  0.00     0.070 A 
HETATM   16  C17 UNL     1      25.684   2.337  53.915  1.00  0.00     0.066 A 
BRANCH  15  17
HETATM   17  O1  UNL     1      27.416   0.938  54.883  1.00  0.00    -0.356 OA
HETATM   18  C1  UNL     1      28.493   0.029  54.706  1.00  0.00     0.210 C 
ENDBRANCH  15  17
ENDBRANCH   9  11
ENDBRANCH   1   9
BRANCH   7  19
HETATM   19  C11 UNL     1      20.430   2.563  52.609  1.00  0.00     0.209 C 
BRANCH  19  20
HETATM   20  O2  UNL     1      21.074   1.365  52.324  1.00  0.00    -0.355 OA
BRANCH  20  21
HETATM   21  C12 UNL     1      21.777   0.860  53.390  1.00  0.00     0.287 C 
HETATM   22  C13 UNL     1      20.853   0.373  54.506  1.00  0.00     0.330 C 
HETATM   23  N5  UNL     1      20.631  -1.053  54.307  1.00  0.00     0.090 N 
HETATM   24  C14 UNL     1      21.860  -1.739  54.633  1.00  0.00     0.295 C 
HETATM   25  H16 UNL     1      20.428  -1.258  53.294  1.00  0.00     0.316 HD
HETATM   26  C15 UNL     1      23.012  -0.928  54.092  1.00  0.00     0.201 C 
HETATM   27  O3  UNL     1      22.634  -0.175  52.985  1.00  0.00    -0.358 OA
ENDBRANCH  20  21
ENDBRANCH  19  20
ENDBRANCH   7  19
TORSDOF 6
ENDMDL
