MODEL 1
REMARK VINA RESULT:      -7.8      0.000      0.000
REMARK  7 active torsions:
REMARK  status: ('A' for Active; 'I' for Inactive)
REMARK    1  A    between atoms: C2_2  and  C3_3 
REMARK    2  A    between atoms: C3_3  and  C4_4 
REMARK    3  A    between atoms: C7_7  and  O1_8 
REMARK    4  A    between atoms: C11_12  and  O2_13 
REMARK    5  A    between atoms: C13_15  and  O3_16 
REMARK    6  A    between atoms: O3_16  and  C14_17 
REMARK    7  A    between atoms: C14_17  and  C15_18 
ROOT
HETATM    1  C4  UNL     1      26.014  -0.037  53.537  1.00  0.00    -0.013 C 
HETATM    2  C5  UNL     1      26.523   1.051  52.617  1.00  0.00    -0.012 C 
HETATM    3  C6  UNL     1      26.876   2.035  51.812  1.00  0.00     0.080 C 
HETATM    4  C7  UNL     1      26.182   3.121  51.190  1.00  0.00     0.045 C 
HETATM    5  C8  UNL     1      25.282   3.967  50.795  1.00  0.00     0.021 C 
HETATM    6  C9  UNL     1      24.627   5.083  50.142  1.00  0.00     0.038 C 
HETATM    7  C10 UNL     1      25.293   5.440  48.822  1.00  0.00     0.026 C 
HETATM    8  C11 UNL     1      24.547   6.320  51.017  1.00  0.00     0.158 C 
HETATM    9  C12 UNL     1      23.367   6.999  50.427  1.00  0.00     0.040 C 
HETATM   10  C13 UNL     1      22.586   6.116  49.777  1.00  0.00     0.075 C 
HETATM   11  C16 UNL     1      23.194   4.785  49.892  1.00  0.00     0.192 C 
HETATM   12  O5  UNL     1      22.656   4.032  50.938  1.00  0.00    -0.378 OA
HETATM   13  C17 UNL     1      21.718   4.725  51.649  1.00  0.00     0.168 C 
HETATM   14  C18 UNL     1      21.053   3.857  52.688  1.00  0.00     0.026 C 
HETATM   15  C19 UNL     1      20.395   2.681  52.061  1.00  0.00     0.002 C 
HETATM   16  C20 UNL     1      21.240   1.515  51.703  1.00  0.00     0.000 C 
HETATM   17  C21 UNL     1      21.556   0.731  52.972  1.00  0.00     0.000 C 
HETATM   18  C22 UNL     1      22.347  -0.487  52.759  1.00  0.00     0.000 C 
HETATM   19  C23 UNL     1      23.811  -0.390  52.527  1.00  0.00     0.000 C 
HETATM   20  C24 UNL     1      24.555   0.020  53.793  1.00  0.00     0.005 C 
ENDROOT
BRANCH  10  21
HETATM   21  O3  UNL     1      21.418   6.494  49.132  1.00  0.00    -0.346 OA
BRANCH  21  22
HETATM   22  C14 UNL     1      20.820   5.649  48.163  1.00  0.00     0.244 C 
BRANCH  22  23
HETATM   23  C15 UNL     1      19.589   5.009  48.682  1.00  0.00     0.257 C 
HETATM   24  O4  UNL     1      20.096   3.929  48.353  1.00  0.00    -0.305 OA
ENDBRANCH  22  23
ENDBRANCH  21  22
ENDBRANCH  10  21
BRANCH   8  25
HETATM   25  O2  UNL     1      25.711   7.074  50.748  1.00  0.00    -0.390 OA
HETATM   26  H15 UNL     1      26.533   6.576  50.908  1.00  0.00     0.210 HD
ENDBRANCH   8  25
BRANCH   4  27
HETATM   27  O1  UNL     1      27.151   3.786  50.465  1.00  0.00    -0.365 OA
HETATM   28  H9  UNL     1      27.661   4.535  50.946  1.00  0.00     0.217 HD
ENDBRANCH   4  27
BRANCH   1  29
HETATM   29  C3  UNL     1      26.816   0.152  54.830  1.00  0.00     0.009 C 
BRANCH  29  30
HETATM   30  C2  UNL     1      28.248  -0.061  54.494  1.00  0.00    -0.010 C 
HETATM   31  C1  UNL     1      29.406  -0.511  54.053  1.00  0.00     0.005 C 
ENDBRANCH  29  30
ENDBRANCH   1  29
TORSDOF 7
ENDMDL
MODEL 2
REMARK VINA RESULT:      -7.5      2.839      5.437
REMARK  7 active torsions:
REMARK  status: ('A' for Active; 'I' for Inactive)
REMARK    1  A    between atoms: C2_2  and  C3_3 
REMARK    2  A    between atoms: C3_3  and  C4_4 
REMARK    3  A    between atoms: C7_7  and  O1_8 
REMARK    4  A    between atoms: C11_12  and  O2_13 
REMARK    5  A    between atoms: C13_15  and  O3_16 
REMARK    6  A    between atoms: O3_16  and  C14_17 
REMARK    7  A    between atoms: C14_17  and  C15_18 
ROOT
HETATM    1  C4  UNL     1      27.112  -0.331  53.079  1.00  0.00    -0.013 C 
HETATM    2  C5  UNL     1      25.844  -0.608  53.857  1.00  0.00    -0.012 C 
HETATM    3  C6  UNL     1      24.691  -0.799  54.469  1.00  0.00     0.080 C 
HETATM    4  C7  UNL     1      23.339  -0.407  54.207  1.00  0.00     0.045 C 
HETATM    5  C8  UNL     1      22.262   0.099  53.692  1.00  0.00     0.021 C 
HETATM    6  C9  UNL     1      20.877   0.469  53.474  1.00  0.00     0.038 C 
HETATM    7  C10 UNL     1      20.116   0.621  54.782  1.00  0.00     0.026 C 
HETATM    8  C11 UNL     1      20.138  -0.499  52.569  1.00  0.00     0.158 C 
HETATM    9  C12 UNL     1      19.077   0.386  52.029  1.00  0.00     0.040 C 
HETATM   10  C13 UNL     1      19.445   1.678  52.112  1.00  0.00     0.075 C 
HETATM   11  C16 UNL     1      20.782   1.741  52.714  1.00  0.00     0.192 C 
HETATM   12  O5  UNL     1      21.801   1.826  51.762  1.00  0.00    -0.378 OA
HETATM   13  C17 UNL     1      21.324   1.780  50.484  1.00  0.00     0.168 C 
HETATM   14  C18 UNL     1      22.419   2.005  49.471  1.00  0.00     0.026 C 
HETATM   15  C19 UNL     1      23.080   3.320  49.681  1.00  0.00     0.002 C 
HETATM   16  C20 UNL     1      24.111   3.423  50.743  1.00  0.00     0.000 C 
HETATM   17  C21 UNL     1      25.403   2.794  50.234  1.00  0.00     0.000 C 
HETATM   18  C22 UNL     1      26.533   2.873  51.168  1.00  0.00     0.000 C 
HETATM   19  C23 UNL     1      26.606   1.942  52.324  1.00  0.00     0.000 C 
HETATM   20  C24 UNL     1      26.913   0.517  51.880  1.00  0.00     0.005 C 
ENDROOT
BRANCH  10  21
HETATM   21  O3  UNL     1      18.628   2.711  51.677  1.00  0.00    -0.346 OA
BRANCH  21  22
HETATM   22  C14 UNL     1      17.226   2.530  51.571  1.00  0.00     0.244 C 
BRANCH  22  23
HETATM   23  C15 UNL     1      16.544   3.780  51.161  1.00  0.00     0.257 C 
HETATM   24  O4  UNL     1      16.671   4.151  52.336  1.00  0.00    -0.305 OA
ENDBRANCH  22  23
ENDBRANCH  21  22
ENDBRANCH  10  21
BRANCH   8  25
HETATM   25  O2  UNL     1      19.560  -1.471  53.414  1.00  0.00    -0.390 OA
HETATM   26  H15 UNL     1      20.195  -1.850  54.050  1.00  0.00     0.210 HD
ENDBRANCH   8  25
BRANCH   4  27
HETATM   27  O1  UNL     1      22.611  -0.941  55.252  1.00  0.00    -0.365 OA
HETATM   28  H9  UNL     1      22.889  -1.871  55.586  1.00  0.00     0.217 HD
ENDBRANCH   4  27
BRANCH   1  29
HETATM   29  C3  UNL     1      27.637  -1.721  52.700  1.00  0.00     0.009 C 
BRANCH  29  30
HETATM   30  C2  UNL     1      29.023  -1.827  53.227  1.00  0.00    -0.010 C 
HETATM   31  C1  UNL     1      30.178  -1.645  53.836  1.00  0.00     0.005 C 
ENDBRANCH  29  30
ENDBRANCH   1  29
TORSDOF 7
ENDMDL
MODEL 3
REMARK VINA RESULT:      -7.3      2.162      3.205
REMARK  7 active torsions:
REMARK  status: ('A' for Active; 'I' for Inactive)
REMARK    1  A    between atoms: C2_2  and  C3_3 
REMARK    2  A    between atoms: C3_3  and  C4_4 
REMARK    3  A    between atoms: C7_7  and  O1_8 
REMARK    4  A    between atoms: C11_12  and  O2_13 
REMARK    5  A    between atoms: C13_15  and  O3_16 
REMARK    6  A    between atoms: O3_16  and  C14_17 
REMARK    7  A    between atoms: C14_17  and  C15_18 
ROOT
HETATM    1  C4  UNL     1      24.463   1.306  51.756  1.00  0.00    -0.013 C 
HETATM    2  C5  UNL     1      25.513   2.147  51.063  1.00  0.00    -0.012 C 
HETATM    3  C6  UNL     1      26.362   2.950  50.451  1.00  0.00     0.080 C 
HETATM    4  C7  UNL     1      26.287   4.281  49.931  1.00  0.00     0.045 C 
HETATM    5  C8  UNL     1      25.892   5.464  49.576  1.00  0.00     0.021 C 
HETATM    6  C9  UNL     1      25.869   6.808  49.032  1.00  0.00     0.038 C 
HETATM    7  C10 UNL     1      26.818   6.960  47.852  1.00  0.00     0.026 C 
HETATM    8  C11 UNL     1      26.176   7.874  50.067  1.00  0.00     0.158 C 
HETATM    9  C12 UNL     1      25.491   9.045  49.467  1.00  0.00     0.040 C 
HETATM   10  C13 UNL     1      24.525   8.648  48.619  1.00  0.00     0.075 C 
HETATM   11  C16 UNL     1      24.500   7.181  48.598  1.00  0.00     0.192 C 
HETATM   12  O5  UNL     1      23.543   6.642  49.461  1.00  0.00    -0.378 OA
HETATM   13  C17 UNL     1      22.881   7.605  50.168  1.00  0.00     0.168 C 
HETATM   14  C18 UNL     1      21.763   7.019  50.995  1.00  0.00     0.026 C 
HETATM   15  C19 UNL     1      20.781   6.303  50.139  1.00  0.00     0.002 C 
HETATM   16  C20 UNL     1      21.110   4.924  49.700  1.00  0.00     0.000 C 
HETATM   17  C21 UNL     1      20.872   3.970  50.864  1.00  0.00     0.000 C 
HETATM   18  C22 UNL     1      21.109   2.554  50.555  1.00  0.00     0.000 C 
HETATM   19  C23 UNL     1      22.498   2.031  50.489  1.00  0.00     0.000 C 
HETATM   20  C24 UNL     1      23.139   1.964  51.869  1.00  0.00     0.005 C 
ENDROOT
BRANCH  10  21
HETATM   21  O3  UNL     1      23.734   9.550  47.922  1.00  0.00    -0.346 OA
BRANCH  21  22
HETATM   22  C14 UNL     1      22.957   9.126  46.814  1.00  0.00     0.244 C 
BRANCH  22  23
HETATM   23  C15 UNL     1      21.510   9.122  47.132  1.00  0.00     0.257 C 
HETATM   24  O4  UNL     1      21.515   7.926  46.810  1.00  0.00    -0.305 OA
ENDBRANCH  22  23
ENDBRANCH  21  22
ENDBRANCH  10  21
BRANCH   8  25
HETATM   25  O2  UNL     1      27.574   8.073  50.031  1.00  0.00    -0.390 OA
HETATM   26  H15 UNL     1      28.073   7.354  50.462  1.00  0.00     0.210 HD
ENDBRANCH   8  25
BRANCH   4  27
HETATM   27  O1  UNL     1      27.544   4.525  49.412  1.00  0.00    -0.365 OA
HETATM   28  H9  UNL     1      28.219   4.994  50.028  1.00  0.00     0.217 HD
ENDBRANCH   4  27
BRANCH   1  29
HETATM   29  C3  UNL     1      25.061   1.013  53.138  1.00  0.00     0.009 C 
BRANCH  29  30
HETATM   30  C2  UNL     1      25.884  -0.218  53.008  1.00  0.00    -0.010 C 
HETATM   31  C1  UNL     1      26.782  -1.130  52.691  1.00  0.00     0.005 C 
ENDBRANCH  29  30
ENDBRANCH   1  29
TORSDOF 7
ENDMDL
MODEL 4
REMARK VINA RESULT:      -7.3      2.770      4.222
REMARK  7 active torsions:
REMARK  status: ('A' for Active; 'I' for Inactive)
REMARK    1  A    between atoms: C2_2  and  C3_3 
REMARK    2  A    between atoms: C3_3  and  C4_4 
REMARK    3  A    between atoms: C7_7  and  O1_8 
REMARK    4  A    between atoms: C11_12  and  O2_13 
REMARK    5  A    between atoms: C13_15  and  O3_16 
REMARK    6  A    between atoms: O3_16  and  C14_17 
REMARK    7  A    between atoms: C14_17  and  C15_18 
ROOT
HETATM    1  C4  UNL     1      24.416   1.595  51.515  1.00  0.00    -0.013 C 
HETATM    2  C5  UNL     1      25.519   2.415  50.881  1.00  0.00    -0.012 C 
HETATM    3  C6  UNL     1      26.417   3.202  50.320  1.00  0.00     0.080 C 
HETATM    4  C7  UNL     1      26.402   4.541  49.816  1.00  0.00     0.045 C 
HETATM    5  C8  UNL     1      26.057   5.740  49.462  1.00  0.00     0.021 C 
HETATM    6  C9  UNL     1      26.096   7.091  48.938  1.00  0.00     0.038 C 
HETATM    7  C10 UNL     1      27.099   7.232  47.804  1.00  0.00     0.026 C 
HETATM    8  C11 UNL     1      26.387   8.133  50.002  1.00  0.00     0.158 C 
HETATM    9  C12 UNL     1      25.762   9.332  49.391  1.00  0.00     0.040 C 
HETATM   10  C13 UNL     1      24.824   8.975  48.495  1.00  0.00     0.075 C 
HETATM   11  C16 UNL     1      24.758   7.510  48.451  1.00  0.00     0.192 C 
HETATM   12  O5  UNL     1      23.749   6.987  49.263  1.00  0.00    -0.378 OA
HETATM   13  C17 UNL     1      23.084   7.958  49.955  1.00  0.00     0.168 C 
HETATM   14  C18 UNL     1      21.915   7.393  50.724  1.00  0.00     0.026 C 
HETATM   15  C19 UNL     1      20.952   6.718  49.815  1.00  0.00     0.002 C 
HETATM   16  C20 UNL     1      21.261   5.337  49.370  1.00  0.00     0.000 C 
HETATM   17  C21 UNL     1      20.945   4.373  50.508  1.00  0.00     0.000 C 
HETATM   18  C22 UNL     1      21.155   2.956  50.188  1.00  0.00     0.000 C 
HETATM   19  C23 UNL     1      22.530   2.394  50.174  1.00  0.00     0.000 C 
HETATM   20  C24 UNL     1      23.108   2.289  51.581  1.00  0.00     0.005 C 
ENDROOT
BRANCH  10  21
HETATM   21  O3  UNL     1      24.090   9.909  47.778  1.00  0.00    -0.346 OA
BRANCH  21  22
HETATM   22  C14 UNL     1      24.733  10.999  47.140  1.00  0.00     0.244 C 
BRANCH  22  23
HETATM   23  C15 UNL     1      24.030  12.277  47.403  1.00  0.00     0.257 C 
HETATM   24  O4  UNL     1      24.973  12.558  48.156  1.00  0.00    -0.305 OA
ENDBRANCH  22  23
ENDBRANCH  21  22
ENDBRANCH  10  21
BRANCH   8  25
HETATM   25  O2  UNL     1      27.790   8.292  50.030  1.00  0.00    -0.390 OA
HETATM   26  H15 UNL     1      28.083   9.156  49.685  1.00  0.00     0.210 HD
ENDBRANCH   8  25
BRANCH   4  27
HETATM   27  O1  UNL     1      27.687   4.756  49.357  1.00  0.00    -0.365 OA
HETATM   28  H9  UNL     1      28.070   5.702  49.472  1.00  0.00     0.217 HD
ENDBRANCH   4  27
BRANCH   1  29
HETATM   29  C3  UNL     1      24.945   1.266  52.917  1.00  0.00     0.009 C 
BRANCH  29  30
HETATM   30  C2  UNL     1      26.017   0.249  52.755  1.00  0.00    -0.010 C 
HETATM   31  C1  UNL     1      26.775  -0.764  52.382  1.00  0.00     0.005 C 
ENDBRANCH  29  30
ENDBRANCH   1  29
TORSDOF 7
ENDMDL
MODEL 5
REMARK VINA RESULT:      -7.2      2.288      3.904
REMARK  7 active torsions:
REMARK  status: ('A' for Active; 'I' for Inactive)
REMARK    1  A    between atoms: C2_2  and  C3_3 
REMARK    2  A    between atoms: C3_3  and  C4_4 
REMARK    3  A    between atoms: C7_7  and  O1_8 
REMARK    4  A    between atoms: C11_12  and  O2_13 
REMARK    5  A    between atoms: C13_15  and  O3_16 
REMARK    6  A    between atoms: O3_16  and  C14_17 
REMARK    7  A    between atoms: C14_17  and  C15_18 
ROOT
HETATM    1  C4  UNL     1      22.983   0.562  52.053  1.00  0.00    -0.013 C 
HETATM    2  C5  UNL     1      24.186   1.427  51.745  1.00  0.00    -0.012 C 
HETATM    3  C6  UNL     1      25.174   2.244  51.433  1.00  0.00     0.080 C 
HETATM    4  C7  UNL     1      25.260   3.502  50.755  1.00  0.00     0.045 C 
HETATM    5  C8  UNL     1      24.994   4.598  50.115  1.00  0.00     0.021 C 
HETATM    6  C9  UNL     1      25.137   5.871  49.436  1.00  0.00     0.038 C 
HETATM    7  C10 UNL     1      26.483   5.995  48.739  1.00  0.00     0.026 C 
HETATM    8  C11 UNL     1      24.931   7.061  50.355  1.00  0.00     0.158 C 
HETATM    9  C12 UNL     1      24.505   8.092  49.377  1.00  0.00     0.040 C 
HETATM   10  C13 UNL     1      24.002   7.518  48.268  1.00  0.00     0.075 C 
HETATM   11  C16 UNL     1      24.058   6.061  48.434  1.00  0.00     0.192 C 
HETATM   12  O5  UNL     1      22.855   5.521  48.894  1.00  0.00    -0.378 OA
HETATM   13  C17 UNL     1      21.912   6.480  49.133  1.00  0.00     0.168 C 
HETATM   14  C18 UNL     1      20.581   5.873  49.501  1.00  0.00     0.026 C 
HETATM   15  C19 UNL     1      20.082   4.981  48.421  1.00  0.00     0.002 C 
HETATM   16  C20 UNL     1      20.630   3.604  48.343  1.00  0.00     0.000 C 
HETATM   17  C21 UNL     1      19.972   2.754  49.424  1.00  0.00     0.000 C 
HETATM   18  C22 UNL     1      20.384   1.344  49.430  1.00  0.00     0.000 C 
HETATM   19  C23 UNL     1      21.696   0.957  50.008  1.00  0.00     0.000 C 
HETATM   20  C24 UNL     1      21.704   1.094  51.526  1.00  0.00     0.005 C 
ENDROOT
BRANCH  10  21
HETATM   21  O3  UNL     1      23.533   8.262  47.196  1.00  0.00    -0.346 OA
BRANCH  21  22
HETATM   22  C14 UNL     1      24.401   9.124  46.478  1.00  0.00     0.244 C 
BRANCH  22  23
HETATM   23  C15 UNL     1      25.505   8.374  45.835  1.00  0.00     0.257 C 
HETATM   24  O4  UNL     1      24.751   8.238  44.861  1.00  0.00    -0.305 OA
ENDBRANCH  22  23
ENDBRANCH  21  22
ENDBRANCH  10  21
BRANCH   8  25
HETATM   25  O2  UNL     1      26.205   7.392  50.867  1.00  0.00    -0.390 OA
HETATM   26  H15 UNL     1      26.184   8.150  51.481  1.00  0.00     0.210 HD
ENDBRANCH   8  25
BRANCH   4  27
HETATM   27  O1  UNL     1      26.605   3.815  50.769  1.00  0.00    -0.365 OA
HETATM   28  H9  UNL     1      27.204   3.272  51.401  1.00  0.00     0.217 HD
ENDBRANCH   4  27
BRANCH   1  29
HETATM   29  C3  UNL     1      22.963   0.471  53.584  1.00  0.00     0.009 C 
BRANCH  29  30
HETATM   30  C2  UNL     1      21.944  -0.548  53.950  1.00  0.00    -0.010 C 
HETATM   31  C1  UNL     1      21.296  -1.633  54.327  1.00  0.00     0.005 C 
ENDBRANCH  29  30
ENDBRANCH   1  29
TORSDOF 7
ENDMDL
MODEL 6
REMARK VINA RESULT:      -7.1      3.499      5.795
REMARK  7 active torsions:
REMARK  status: ('A' for Active; 'I' for Inactive)
REMARK    1  A    between atoms: C2_2  and  C3_3 
REMARK    2  A    between atoms: C3_3  and  C4_4 
REMARK    3  A    between atoms: C7_7  and  O1_8 
REMARK    4  A    between atoms: C11_12  and  O2_13 
REMARK    5  A    between atoms: C13_15  and  O3_16 
REMARK    6  A    between atoms: O3_16  and  C14_17 
REMARK    7  A    between atoms: C14_17  and  C15_18 
ROOT
HETATM    1  C4  UNL     1      24.302   2.666  50.307  1.00  0.00    -0.013 C 
HETATM    2  C5  UNL     1      25.657   3.218  49.922  1.00  0.00    -0.012 C 
HETATM    3  C6  UNL     1      26.795   3.782  49.563  1.00  0.00     0.080 C 
HETATM    4  C7  UNL     1      27.159   5.068  49.049  1.00  0.00     0.045 C 
HETATM    5  C8  UNL     1      27.145   6.288  48.610  1.00  0.00     0.021 C 
HETATM    6  C9  UNL     1      27.568   7.573  48.089  1.00  0.00     0.038 C 
HETATM    7  C10 UNL     1      28.799   7.451  47.203  1.00  0.00     0.026 C 
HETATM    8  C11 UNL     1      27.827   8.600  49.176  1.00  0.00     0.158 C 
HETATM    9  C12 UNL     1      27.602   9.859  48.423  1.00  0.00     0.040 C 
HETATM   10  C13 UNL     1      26.826   9.638  47.347  1.00  0.00     0.075 C 
HETATM   11  C16 UNL     1      26.478   8.213  47.310  1.00  0.00     0.192 C 
HETATM   12  O5  UNL     1      25.234   7.944  47.885  1.00  0.00    -0.378 OA
HETATM   13  C17 UNL     1      24.645   9.064  48.398  1.00  0.00     0.168 C 
HETATM   14  C18 UNL     1      23.249   8.781  48.896  1.00  0.00     0.026 C 
HETATM   15  C19 UNL     1      22.388   8.253  47.805  1.00  0.00     0.002 C 
HETATM   16  C20 UNL     1      22.501   6.814  47.460  1.00  0.00     0.000 C 
HETATM   17  C21 UNL     1      21.760   5.998  48.514  1.00  0.00     0.000 C 
HETATM   18  C22 UNL     1      21.744   4.551  48.268  1.00  0.00     0.000 C 
HETATM   19  C23 UNL     1      22.949   3.734  48.569  1.00  0.00     0.000 C 
HETATM   20  C24 UNL     1      23.178   3.602  50.070  1.00  0.00     0.005 C 
ENDROOT
BRANCH  10  21
HETATM   21  O3  UNL     1      26.467  10.653  46.471  1.00  0.00    -0.346 OA
BRANCH  21  22
HETATM   22  C14 UNL     1      26.431  12.003  46.903  1.00  0.00     0.244 C 
BRANCH  22  23
HETATM   23  C15 UNL     1      25.041  12.498  47.031  1.00  0.00     0.257 C 
HETATM   24  O4  UNL     1      25.304  12.719  48.221  1.00  0.00    -0.305 OA
ENDBRANCH  22  23
ENDBRANCH  21  22
ENDBRANCH  10  21
BRANCH   8  25
HETATM   25  O2  UNL     1      29.194   8.486  49.512  1.00  0.00    -0.390 OA
HETATM   26  H15 UNL     1      29.496   9.185  50.121  1.00  0.00     0.210 HD
ENDBRANCH   8  25
BRANCH   4  27
HETATM   27  O1  UNL     1      28.528   5.004  48.884  1.00  0.00    -0.365 OA
HETATM   28  H9  UNL     1      28.872   4.671  47.976  1.00  0.00     0.217 HD
ENDBRANCH   4  27
BRANCH   1  29
HETATM   29  C3  UNL     1      24.440   2.323  51.796  1.00  0.00     0.009 C 
BRANCH  29  30
HETATM   30  C2  UNL     1      25.382   1.177  51.898  1.00  0.00    -0.010 C 
HETATM   31  C1  UNL     1      26.393   0.369  52.153  1.00  0.00     0.005 C 
ENDBRANCH  29  30
ENDBRANCH   1  29
TORSDOF 7
ENDMDL
MODEL 7
REMARK VINA RESULT:      -6.9      2.968      6.069
REMARK  7 active torsions:
REMARK  status: ('A' for Active; 'I' for Inactive)
REMARK    1  A    between atoms: C2_2  and  C3_3 
REMARK    2  A    between atoms: C3_3  and  C4_4 
REMARK    3  A    between atoms: C7_7  and  O1_8 
REMARK    4  A    between atoms: C11_12  and  O2_13 
REMARK    5  A    between atoms: C13_15  and  O3_16 
REMARK    6  A    between atoms: O3_16  and  C14_17 
REMARK    7  A    between atoms: C14_17  and  C15_18 
ROOT
HETATM    1  C4  UNL     1      26.407   5.150  49.859  1.00  0.00    -0.013 C 
HETATM    2  C5  UNL     1      25.736   3.964  50.516  1.00  0.00    -0.012 C 
HETATM    3  C6  UNL     1      25.066   2.973  51.074  1.00  0.00     0.080 C 
HETATM    4  C7  UNL     1      23.681   2.711  51.317  1.00  0.00     0.045 C 
HETATM    5  C8  UNL     1      22.387   2.783  51.383  1.00  0.00     0.021 C 
HETATM    6  C9  UNL     1      20.998   2.469  51.653  1.00  0.00     0.038 C 
HETATM    7  C10 UNL     1      20.841   1.612  52.900  1.00  0.00     0.026 C 
HETATM    8  C11 UNL     1      20.304   1.793  50.485  1.00  0.00     0.158 C 
HETATM    9  C12 UNL     1      18.892   2.165  50.752  1.00  0.00     0.040 C 
HETATM   10  C13 UNL     1      18.828   3.268  51.521  1.00  0.00     0.075 C 
HETATM   11  C16 UNL     1      20.197   3.707  51.817  1.00  0.00     0.192 C 
HETATM   12  O5  UNL     1      20.645   4.706  50.950  1.00  0.00    -0.378 OA
HETATM   13  C17 UNL     1      19.725   5.012  49.989  1.00  0.00     0.168 C 
HETATM   14  C18 UNL     1      20.168   6.181  49.144  1.00  0.00     0.026 C 
HETATM   15  C19 UNL     1      20.398   7.389  49.980  1.00  0.00     0.002 C 
HETATM   16  C20 UNL     1      21.683   7.498  50.714  1.00  0.00     0.000 C 
HETATM   17  C21 UNL     1      22.776   7.903  49.730  1.00  0.00     0.000 C 
HETATM   18  C22 UNL     1      24.100   8.100  50.333  1.00  0.00     0.000 C 
HETATM   19  C23 UNL     1      24.937   6.925  50.686  1.00  0.00     0.000 C 
HETATM   20  C24 UNL     1      25.471   6.221  49.444  1.00  0.00     0.005 C 
ENDROOT
BRANCH  10  21
HETATM   21  O3  UNL     1      17.622   3.825  51.919  1.00  0.00    -0.346 OA
BRANCH  21  22
HETATM   22  C14 UNL     1      16.413   3.092  51.804  1.00  0.00     0.244 C 
BRANCH  22  23
HETATM   23  C15 UNL     1      15.233   3.938  52.099  1.00  0.00     0.257 C 
HETATM   24  O4  UNL     1      15.889   4.404  53.040  1.00  0.00    -0.305 OA
ENDBRANCH  22  23
ENDBRANCH  21  22
ENDBRANCH  10  21
BRANCH   8  25
HETATM   25  O2  UNL     1      20.471   0.403  50.673  1.00  0.00    -0.390 OA
HETATM   26  H15 UNL     1      21.397   0.150  50.840  1.00  0.00     0.210 HD
ENDBRANCH   8  25
BRANCH   4  27
HETATM   27  O1  UNL     1      23.662   1.481  51.945  1.00  0.00    -0.365 OA
HETATM   28  H9  UNL     1      22.760   1.162  52.317  1.00  0.00     0.217 HD
ENDBRANCH   4  27
BRANCH   1  29
HETATM   29  C3  UNL     1      27.143   4.552  48.654  1.00  0.00     0.009 C 
BRANCH  29  30
HETATM   30  C2  UNL     1      28.304   5.434  48.365  1.00  0.00    -0.010 C 
HETATM   31  C1  UNL     1      29.111   6.401  47.976  1.00  0.00     0.005 C 
ENDBRANCH  29  30
ENDBRANCH   1  29
TORSDOF 7
ENDMDL
MODEL 8
REMARK VINA RESULT:      -6.8      2.494      6.976
REMARK  7 active torsions:
REMARK  status: ('A' for Active; 'I' for Inactive)
REMARK    1  A    between atoms: C2_2  and  C3_3 
REMARK    2  A    between atoms: C3_3  and  C4_4 
REMARK    3  A    between atoms: C7_7  and  O1_8 
REMARK    4  A    between atoms: C11_12  and  O2_13 
REMARK    5  A    between atoms: C13_15  and  O3_16 
REMARK    6  A    between atoms: O3_16  and  C14_17 
REMARK    7  A    between atoms: C14_17  and  C15_18 
ROOT
HETATM    1  C4  UNL     1      24.885   7.052  48.877  1.00  0.00    -0.013 C 
HETATM    2  C5  UNL     1      23.445   6.588  48.862  1.00  0.00    -0.012 C 
HETATM    3  C6  UNL     1      22.215   6.111  48.906  1.00  0.00     0.080 C 
HETATM    4  C7  UNL     1      21.597   4.988  49.542  1.00  0.00     0.045 C 
HETATM    5  C8  UNL     1      21.362   3.916  50.233  1.00  0.00     0.021 C 
HETATM    6  C9  UNL     1      20.687   2.794  50.855  1.00  0.00     0.038 C 
HETATM    7  C10 UNL     1      19.502   2.314  50.030  1.00  0.00     0.026 C 
HETATM    8  C11 UNL     1      20.231   3.086  52.273  1.00  0.00     0.158 C 
HETATM    9  C12 UNL     1      20.193   1.715  52.838  1.00  0.00     0.040 C 
HETATM   10  C13 UNL     1      20.993   0.889  52.138  1.00  0.00     0.075 C 
HETATM   11  C16 UNL     1      21.622   1.658  51.057  1.00  0.00     0.192 C 
HETATM   12  O5  UNL     1      22.897   2.121  51.391  1.00  0.00    -0.378 OA
HETATM   13  C17 UNL     1      23.250   1.794  52.669  1.00  0.00     0.168 C 
HETATM   14  C18 UNL     1      24.677   2.183  52.970  1.00  0.00     0.026 C 
HETATM   15  C19 UNL     1      25.621   1.518  52.034  1.00  0.00     0.002 C 
HETATM   16  C20 UNL     1      25.800   2.106  50.684  1.00  0.00     0.000 C 
HETATM   17  C21 UNL     1      26.694   3.336  50.800  1.00  0.00     0.000 C 
HETATM   18  C22 UNL     1      27.001   3.993  49.523  1.00  0.00     0.000 C 
HETATM   19  C23 UNL     1      25.988   4.866  48.876  1.00  0.00     0.000 C 
HETATM   20  C24 UNL     1      25.797   6.169  49.643  1.00  0.00     0.005 C 
ENDROOT
BRANCH  10  21
HETATM   21  O3  UNL     1      21.137  -0.452  52.458  1.00  0.00    -0.346 OA
BRANCH  21  22
HETATM   22  C14 UNL     1      20.988  -0.897  53.797  1.00  0.00     0.244 C 
BRANCH  22  23
HETATM   23  C15 UNL     1      22.298  -1.180  54.427  1.00  0.00     0.257 C 
HETATM   24  O4  UNL     1      21.683  -1.913  55.212  1.00  0.00    -0.305 OA
ENDBRANCH  22  23
ENDBRANCH  21  22
ENDBRANCH  10  21
BRANCH   8  25
HETATM   25  O2  UNL     1      18.916   3.593  52.170  1.00  0.00    -0.390 OA
HETATM   26  H15 UNL     1      18.888   4.532  51.912  1.00  0.00     0.210 HD
ENDBRANCH   8  25
BRANCH   4  27
HETATM   27  O1  UNL     1      20.268   5.066  49.176  1.00  0.00    -0.365 OA
HETATM   28  H9  UNL     1      19.758   4.180  49.083  1.00  0.00     0.217 HD
ENDBRANCH   4  27
BRANCH   1  29
HETATM   29  C3  UNL     1      24.826   8.458  49.486  1.00  0.00     0.009 C 
BRANCH  29  30
HETATM   30  C2  UNL     1      26.227   8.891  49.730  1.00  0.00    -0.010 C 
HETATM   31  C1  UNL     1      27.536   9.048  49.731  1.00  0.00     0.005 C 
ENDBRANCH  29  30
ENDBRANCH   1  29
TORSDOF 7
ENDMDL
MODEL 9
REMARK VINA RESULT:      -6.6      5.991     10.303
REMARK  7 active torsions:
REMARK  status: ('A' for Active; 'I' for Inactive)
REMARK    1  A    between atoms: C2_2  and  C3_3 
REMARK    2  A    between atoms: C3_3  and  C4_4 
REMARK    3  A    between atoms: C7_7  and  O1_8 
REMARK    4  A    between atoms: C11_12  and  O2_13 
REMARK    5  A    between atoms: C13_15  and  O3_16 
REMARK    6  A    between atoms: O3_16  and  C14_17 
REMARK    7  A    between atoms: C14_17  and  C15_18 
ROOT
HETATM    1  C4  UNL     1      24.725   7.870  49.139  1.00  0.00    -0.013 C 
HETATM    2  C5  UNL     1      25.726   6.753  48.940  1.00  0.00    -0.012 C 
HETATM    3  C6  UNL     1      26.667   5.846  48.756  1.00  0.00     0.080 C 
HETATM    4  C7  UNL     1      28.076   5.898  48.514  1.00  0.00     0.045 C 
HETATM    5  C8  UNL     1      29.297   6.288  48.312  1.00  0.00     0.021 C 
HETATM    6  C9  UNL     1      30.725   6.284  48.066  1.00  0.00     0.038 C 
HETATM    7  C10 UNL     1      31.157   5.080  47.242  1.00  0.00     0.026 C 
HETATM    8  C11 UNL     1      31.549   6.346  49.339  1.00  0.00     0.158 C 
HETATM    9  C12 UNL     1      32.803   6.951  48.826  1.00  0.00     0.040 C 
HETATM   10  C13 UNL     1      32.573   7.628  47.686  1.00  0.00     0.075 C 
HETATM   11  C16 UNL     1      31.145   7.522  47.363  1.00  0.00     0.192 C 
HETATM   12  O5  UNL     1      30.405   8.619  47.808  1.00  0.00    -0.378 OA
HETATM   13  C17 UNL     1      31.172   9.521  48.490  1.00  0.00     0.168 C 
HETATM   14  C18 UNL     1      30.388  10.760  48.849  1.00  0.00     0.026 C 
HETATM   15  C19 UNL     1      29.849  11.423  47.632  1.00  0.00     0.002 C 
HETATM   16  C20 UNL     1      28.608  10.876  47.029  1.00  0.00     0.000 C 
HETATM   17  C21 UNL     1      27.417  11.324  47.869  1.00  0.00     0.000 C 
HETATM   18  C22 UNL     1      26.110  10.896  47.355  1.00  0.00     0.000 C 
HETATM   19  C23 UNL     1      25.653   9.497  47.562  1.00  0.00     0.000 C 
HETATM   20  C24 UNL     1      25.305   9.229  49.021  1.00  0.00     0.005 C 
ENDROOT
BRANCH  10  21
HETATM   21  O3  UNL     1      33.582   8.287  46.999  1.00  0.00    -0.346 OA
BRANCH  21  22
HETATM   22  C14 UNL     1      33.483   8.504  45.601  1.00  0.00     0.244 C 
BRANCH  22  23
HETATM   23  C15 UNL     1      33.761   7.266  44.835  1.00  0.00     0.257 C 
HETATM   24  O4  UNL     1      34.552   7.943  44.164  1.00  0.00    -0.305 OA
ENDBRANCH  22  23
ENDBRANCH  21  22
ENDBRANCH  10  21
BRANCH   8  25
HETATM   25  O2  UNL     1      31.790   5.008  49.722  1.00  0.00    -0.390 OA
HETATM   26  H15 UNL     1      31.534   4.823  50.644  1.00  0.00     0.210 HD
ENDBRANCH   8  25
BRANCH   4  27
HETATM   27  O1  UNL     1      28.463   4.576  48.414  1.00  0.00    -0.365 OA
HETATM   28  H9  UNL     1      27.719   3.869  48.445  1.00  0.00     0.217 HD
ENDBRANCH   4  27
BRANCH   1  29
HETATM   29  C3  UNL     1      24.156   7.625  50.542  1.00  0.00     0.009 C 
BRANCH  29  30
HETATM   30  C2  UNL     1      22.675   7.612  50.419  1.00  0.00    -0.010 C 
HETATM   31  C1  UNL     1      21.414   7.837  50.103  1.00  0.00     0.005 C 
ENDBRANCH  29  30
ENDBRANCH   1  29
TORSDOF 7
ENDMDL
