MODEL 1
REMARK VINA RESULT:      -7.0      0.000      0.000
REMARK  4 active torsions:
REMARK  status: ('A' for Active; 'I' for Inactive)
REMARK    1  A    between atoms: O1_2  and  C2_3 
REMARK    2  A    between atoms: C6_9  and  N3_10 
REMARK    3  A    between atoms: N3_10  and  C8_12 
REMARK    4  A    between atoms: C15_20  and  O2_21 
ROOT
HETATM    1  C2  UNL     1      26.866  -0.252  53.536  1.00  0.00     0.103 A 
HETATM    2  C3  UNL     1      25.671  -0.849  53.839  1.00  0.00     0.072 A 
HETATM    3  C4  UNL     1      24.504  -0.195  53.523  1.00  0.00     0.075 A 
HETATM    4  N1  UNL     1      23.319  -0.760  53.809  1.00  0.00    -0.241 NA
HETATM    5  C5  UNL     1      22.199  -0.124  53.502  1.00  0.00     0.236 A 
HETATM    6  N2  UNL     1      22.249   1.065  52.915  1.00  0.00    -0.223 NA
HETATM    7  C6  UNL     1      23.397   1.718  52.584  1.00  0.00     0.144 A 
HETATM    8  C13 UNL     1      24.560   1.047  52.909  1.00  0.00     0.042 A 
HETATM    9  C14 UNL     1      25.743   1.643  52.606  1.00  0.00     0.057 A 
HETATM   10  C15 UNL     1      26.923   0.985  52.923  1.00  0.00     0.102 A 
ENDROOT
BRANCH   7  11
HETATM   11  N3  UNL     1      23.325   2.988  51.958  1.00  0.00    -0.335 N 
HETATM   12  C7  UNL     1      23.578   4.184  52.761  1.00  0.00     0.158 C 
BRANCH  11  13
HETATM   13  C8  UNL     1      23.017   3.140  50.577  1.00  0.00     0.036 A 
HETATM   14  C9  UNL     1      22.635   2.070  49.828  1.00  0.00     0.030 A 
HETATM   15  C10 UNL     1      22.306   2.022  48.511  1.00  0.00     0.004 A 
HETATM   16  C11 UNL     1      22.288   3.092  47.618  1.00  0.00     0.016 A 
HETATM   17  P1  UNL     1      22.747   4.628  48.335  1.00  0.00    -0.032 P 
HETATM   18  C12 UNL     1      23.126   4.429  50.038  1.00  0.00     0.045 A 
ENDBRANCH  11  13
ENDBRANCH   7  11
BRANCH  10  19
HETATM   19  O2  UNL     1      28.164   1.534  52.643  1.00  0.00    -0.353 OA
HETATM   20  C16 UNL     1      28.690   2.467  53.568  1.00  0.00     0.210 C 
ENDBRANCH  10  19
BRANCH   1  21
HETATM   21  O1  UNL     1      28.039  -0.890  53.843  1.00  0.00    -0.353 OA
HETATM   22  C1  UNL     1      28.574  -1.950  53.086  1.00  0.00     0.210 C 
ENDBRANCH   1  21
TORSDOF 4
ENDMDL
MODEL 2
REMARK VINA RESULT:      -6.9      2.255      3.482
REMARK  4 active torsions:
REMARK  status: ('A' for Active; 'I' for Inactive)
REMARK    1  A    between atoms: O1_2  and  C2_3 
REMARK    2  A    between atoms: C6_9  and  N3_10 
REMARK    3  A    between atoms: N3_10  and  C8_12 
REMARK    4  A    between atoms: C15_20  and  O2_21 
ROOT
HETATM    1  C2  UNL     1      26.132  -0.190  52.967  1.00  0.00     0.103 A 
HETATM    2  C3  UNL     1      26.824   0.613  52.100  1.00  0.00     0.072 A 
HETATM    3  C4  UNL     1      26.200   1.722  51.581  1.00  0.00     0.075 A 
HETATM    4  N1  UNL     1      26.859   2.526  50.728  1.00  0.00    -0.241 NA
HETATM    5  C5  UNL     1      26.251   3.593  50.232  1.00  0.00     0.236 A 
HETATM    6  N2  UNL     1      24.999   3.864  50.576  1.00  0.00    -0.223 NA
HETATM    7  C6  UNL     1      24.249   3.114  51.430  1.00  0.00     0.144 A 
HETATM    8  C13 UNL     1      24.892   2.003  51.942  1.00  0.00     0.042 A 
HETATM    9  C14 UNL     1      24.201   1.210  52.802  1.00  0.00     0.057 A 
HETATM   10  C15 UNL     1      24.828   0.090  53.328  1.00  0.00     0.102 A 
ENDROOT
BRANCH   7  11
HETATM   11  N3  UNL     1      22.918   3.505  51.723  1.00  0.00    -0.335 N 
HETATM   12  C7  UNL     1      22.699   4.697  52.540  1.00  0.00     0.158 C 
BRANCH  11  13
HETATM   13  C8  UNL     1      21.790   2.779  51.248  1.00  0.00     0.036 A 
HETATM   14  C9  UNL     1      21.844   2.103  50.068  1.00  0.00     0.030 A 
HETATM   15  C10 UNL     1      20.879   1.365  49.461  1.00  0.00     0.004 A 
HETATM   16  C11 UNL     1      19.587   1.135  49.932  1.00  0.00     0.016 A 
HETATM   17  P1  UNL     1      19.240   1.907  51.470  1.00  0.00    -0.032 P 
HETATM   18  C12 UNL     1      20.638   2.799  52.046  1.00  0.00     0.045 A 
ENDBRANCH  11  13
ENDBRANCH   7  11
BRANCH  10  19
HETATM   19  O2  UNL     1      24.183  -0.763  54.210  1.00  0.00    -0.353 OA
HETATM   20  C16 UNL     1      22.773  -0.845  54.127  1.00  0.00     0.210 C 
ENDBRANCH  10  19
BRANCH   1  21
HETATM   21  O1  UNL     1      26.739  -1.300  53.494  1.00  0.00    -0.353 OA
HETATM   22  C1  UNL     1      27.261  -2.349  52.715  1.00  0.00     0.210 C 
ENDBRANCH   1  21
TORSDOF 4
ENDMDL
MODEL 3
REMARK VINA RESULT:      -6.8      1.617      2.422
REMARK  4 active torsions:
REMARK  status: ('A' for Active; 'I' for Inactive)
REMARK    1  A    between atoms: O1_2  and  C2_3 
REMARK    2  A    between atoms: C6_9  and  N3_10 
REMARK    3  A    between atoms: N3_10  and  C8_12 
REMARK    4  A    between atoms: C15_20  and  O2_21 
ROOT
HETATM    1  C2  UNL     1      25.976  -0.402  53.798  1.00  0.00     0.103 A 
HETATM    2  C3  UNL     1      24.946  -0.855  54.579  1.00  0.00     0.072 A 
HETATM    3  C4  UNL     1      23.655  -0.563  54.209  1.00  0.00     0.075 A 
HETATM    4  N1  UNL     1      22.627  -0.997  54.959  1.00  0.00    -0.241 NA
HETATM    5  C5  UNL     1      21.385  -0.711  54.597  1.00  0.00     0.236 A 
HETATM    6  N2  UNL     1      21.161  -0.000  53.499  1.00  0.00    -0.223 NA
HETATM    7  C6  UNL     1      22.131   0.483  52.676  1.00  0.00     0.144 A 
HETATM    8  C13 UNL     1      23.423   0.180  53.062  1.00  0.00     0.042 A 
HETATM    9  C14 UNL     1      24.441   0.631  52.284  1.00  0.00     0.057 A 
HETATM   10  C15 UNL     1      25.746   0.338  52.654  1.00  0.00     0.102 A 
ENDROOT
BRANCH   7  11
HETATM   11  N3  UNL     1      21.768   1.232  51.529  1.00  0.00    -0.335 N 
HETATM   12  C7  UNL     1      20.981   0.580  50.482  1.00  0.00     0.158 C 
BRANCH  11  13
HETATM   13  C8  UNL     1      22.140   2.596  51.360  1.00  0.00     0.036 A 
HETATM   14  C9  UNL     1      21.939   3.500  52.357  1.00  0.00     0.030 A 
HETATM   15  C10 UNL     1      22.226   4.827  52.378  1.00  0.00     0.004 A 
HETATM   16  C11 UNL     1      22.806   5.570  51.351  1.00  0.00     0.016 A 
HETATM   17  P1  UNL     1      23.177   4.632  49.914  1.00  0.00    -0.032 P 
HETATM   18  C12 UNL     1      22.714   2.952  50.132  1.00  0.00     0.045 A 
ENDBRANCH  11  13
ENDBRANCH   7  11
BRANCH  10  19
HETATM   19  O2  UNL     1      26.831   0.767  51.908  1.00  0.00    -0.353 OA
HETATM   20  C16 UNL     1      26.829   2.109  51.461  1.00  0.00     0.210 C 
ENDBRANCH  10  19
BRANCH   1  21
HETATM   21  O1  UNL     1      27.269  -0.685  54.152  1.00  0.00    -0.353 OA
HETATM   22  C1  UNL     1      28.091   0.197  54.879  1.00  0.00     0.210 C 
ENDBRANCH   1  21
TORSDOF 4
ENDMDL
MODEL 4
REMARK VINA RESULT:      -6.6      1.782      2.932
REMARK  4 active torsions:
REMARK  status: ('A' for Active; 'I' for Inactive)
REMARK    1  A    between atoms: O1_2  and  C2_3 
REMARK    2  A    between atoms: C6_9  and  N3_10 
REMARK    3  A    between atoms: N3_10  and  C8_12 
REMARK    4  A    between atoms: C15_20  and  O2_21 
ROOT
HETATM    1  C2  UNL     1      26.862   2.068  52.137  1.00  0.00     0.103 A 
HETATM    2  C3  UNL     1      26.107   1.247  52.931  1.00  0.00     0.072 A 
HETATM    3  C4  UNL     1      24.779   1.067  52.626  1.00  0.00     0.075 A 
HETATM    4  N1  UNL     1      24.017   0.265  53.390  1.00  0.00    -0.241 NA
HETATM    5  C5  UNL     1      22.739   0.096  53.090  1.00  0.00     0.236 A 
HETATM    6  N2  UNL     1      22.215   0.715  52.040  1.00  0.00    -0.223 NA
HETATM    7  C6  UNL     1      22.902   1.544  51.207  1.00  0.00     0.144 A 
HETATM    8  C13 UNL     1      24.235   1.715  51.528  1.00  0.00     0.042 A 
HETATM    9  C14 UNL     1      24.980   2.530  50.737  1.00  0.00     0.057 A 
HETATM   10  C15 UNL     1      26.321   2.715  51.043  1.00  0.00     0.102 A 
ENDROOT
BRANCH   7  11
HETATM   11  N3  UNL     1      22.233   2.152  50.114  1.00  0.00    -0.335 N 
HETATM   12  C7  UNL     1      21.751   1.303  49.025  1.00  0.00     0.158 C 
BRANCH  11  13
HETATM   13  C8  UNL     1      22.013   3.556  50.041  1.00  0.00     0.036 A 
HETATM   14  C9  UNL     1      21.694   4.269  51.155  1.00  0.00     0.030 A 
HETATM   15  C10 UNL     1      21.450   5.599  51.278  1.00  0.00     0.004 A 
HETATM   16  C11 UNL     1      21.476   6.548  50.257  1.00  0.00     0.016 A 
HETATM   17  P1  UNL     1      21.870   5.887  48.679  1.00  0.00    -0.032 P 
HETATM   18  C12 UNL     1      22.140   4.155  48.781  1.00  0.00     0.045 A 
ENDBRANCH  11  13
ENDBRANCH   7  11
BRANCH  10  19
HETATM   19  O2  UNL     1      27.139   3.533  50.279  1.00  0.00    -0.353 OA
HETATM   20  C16 UNL     1      26.520   4.348  49.302  1.00  0.00     0.210 C 
ENDBRANCH  10  19
BRANCH   1  21
HETATM   21  O1  UNL     1      28.188   2.260  52.427  1.00  0.00    -0.353 OA
HETATM   22  C1  UNL     1      28.684   2.439  53.731  1.00  0.00     0.210 C 
ENDBRANCH   1  21
TORSDOF 4
ENDMDL
MODEL 5
REMARK VINA RESULT:      -6.5      2.718      3.911
REMARK  4 active torsions:
REMARK  status: ('A' for Active; 'I' for Inactive)
REMARK    1  A    between atoms: O1_2  and  C2_3 
REMARK    2  A    between atoms: C6_9  and  N3_10 
REMARK    3  A    between atoms: N3_10  and  C8_12 
REMARK    4  A    between atoms: C15_20  and  O2_21 
ROOT
HETATM    1  C2  UNL     1      23.089  -0.026  53.467  1.00  0.00     0.103 A 
HETATM    2  C3  UNL     1      24.423  -0.043  53.159  1.00  0.00     0.072 A 
HETATM    3  C4  UNL     1      24.936   0.962  52.374  1.00  0.00     0.075 A 
HETATM    4  N1  UNL     1      26.242   0.967  52.058  1.00  0.00    -0.241 NA
HETATM    5  C5  UNL     1      26.729   1.938  51.301  1.00  0.00     0.236 A 
HETATM    6  N2  UNL     1      25.929   2.899  50.857  1.00  0.00    -0.223 NA
HETATM    7  C6  UNL     1      24.596   2.982  51.121  1.00  0.00     0.144 A 
HETATM    8  C13 UNL     1      24.098   1.965  51.912  1.00  0.00     0.042 A 
HETATM    9  C14 UNL     1      22.773   1.986  52.215  1.00  0.00     0.057 A 
HETATM   10  C15 UNL     1      22.253   0.973  53.008  1.00  0.00     0.102 A 
ENDROOT
BRANCH   7  11
HETATM   11  N3  UNL     1      23.842   4.058  50.590  1.00  0.00    -0.335 N 
HETATM   12  C7  UNL     1      23.701   5.279  51.384  1.00  0.00     0.158 C 
BRANCH  11  13
HETATM   13  C8  UNL     1      23.219   3.994  49.312  1.00  0.00     0.036 A 
HETATM   14  C9  UNL     1      22.960   2.795  48.724  1.00  0.00     0.030 A 
HETATM   15  C10 UNL     1      22.380   2.540  47.523  1.00  0.00     0.004 A 
HETATM   16  C11 UNL     1      21.911   3.481  46.608  1.00  0.00     0.016 A 
HETATM   17  P1  UNL     1      22.123   5.145  47.124  1.00  0.00    -0.032 P 
HETATM   18  C12 UNL     1      22.892   5.213  48.701  1.00  0.00     0.045 A 
ENDBRANCH  11  13
ENDBRANCH   7  11
BRANCH  10  19
HETATM   19  O2  UNL     1      20.912   0.933  53.355  1.00  0.00    -0.353 OA
HETATM   20  C16 UNL     1      20.045   1.857  52.726  1.00  0.00     0.210 C 
ENDBRANCH  10  19
BRANCH   1  21
HETATM   21  O1  UNL     1      22.561  -1.020  54.250  1.00  0.00    -0.353 OA
HETATM   22  C1  UNL     1      23.110  -1.417  55.484  1.00  0.00     0.210 C 
ENDBRANCH   1  21
TORSDOF 4
ENDMDL
MODEL 6
REMARK VINA RESULT:      -6.3      3.056      4.729
REMARK  4 active torsions:
REMARK  status: ('A' for Active; 'I' for Inactive)
REMARK    1  A    between atoms: O1_2  and  C2_3 
REMARK    2  A    between atoms: C6_9  and  N3_10 
REMARK    3  A    between atoms: N3_10  and  C8_12 
REMARK    4  A    between atoms: C15_20  and  O2_21 
ROOT
HETATM    1  C2  UNL     1      22.574   0.418  53.631  1.00  0.00     0.103 A 
HETATM    2  C3  UNL     1      23.925   0.197  53.580  1.00  0.00     0.072 A 
HETATM    3  C4  UNL     1      24.678   0.895  52.667  1.00  0.00     0.075 A 
HETATM    4  N1  UNL     1      26.005   0.696  52.598  1.00  0.00    -0.241 NA
HETATM    5  C5  UNL     1      26.725   1.372  51.715  1.00  0.00     0.236 A 
HETATM    6  N2  UNL     1      26.135   2.241  50.905  1.00  0.00    -0.223 NA
HETATM    7  C6  UNL     1      24.802   2.514  50.897  1.00  0.00     0.144 A 
HETATM    8  C13 UNL     1      24.060   1.803  51.821  1.00  0.00     0.042 A 
HETATM    9  C14 UNL     1      22.720   2.027  51.868  1.00  0.00     0.057 A 
HETATM   10  C15 UNL     1      21.957   1.323  52.789  1.00  0.00     0.102 A 
ENDROOT
BRANCH   7  11
HETATM   11  N3  UNL     1      24.286   3.465  49.981  1.00  0.00    -0.335 N 
HETATM   12  C7  UNL     1      23.407   3.003  48.907  1.00  0.00     0.158 C 
BRANCH  11  13
HETATM   13  C8  UNL     1      24.591   4.852  50.071  1.00  0.00     0.036 A 
HETATM   14  C9  UNL     1      23.908   5.661  50.926  1.00  0.00     0.030 A 
HETATM   15  C10 UNL     1      24.057   6.992  51.146  1.00  0.00     0.004 A 
HETATM   16  C11 UNL     1      24.970   7.842  50.523  1.00  0.00     0.016 A 
HETATM   17  P1  UNL     1      26.000   7.043  49.347  1.00  0.00    -0.032 P 
HETATM   18  C12 UNL     1      25.615   5.333  49.244  1.00  0.00     0.045 A 
ENDBRANCH  11  13
ENDBRANCH   7  11
BRANCH  10  19
HETATM   19  O2  UNL     1      20.587   1.501  52.890  1.00  0.00    -0.353 OA
HETATM   20  C16 UNL     1      20.016   2.594  52.196  1.00  0.00     0.210 C 
ENDBRANCH  10  19
BRANCH   1  21
HETATM   21  O1  UNL     1      21.808  -0.269  54.536  1.00  0.00    -0.353 OA
HETATM   22  C1  UNL     1      21.437  -1.617  54.380  1.00  0.00     0.210 C 
ENDBRANCH   1  21
TORSDOF 4
ENDMDL
MODEL 7
REMARK VINA RESULT:      -5.9      7.970      9.984
REMARK  4 active torsions:
REMARK  status: ('A' for Active; 'I' for Inactive)
REMARK    1  A    between atoms: O1_2  and  C2_3 
REMARK    2  A    between atoms: C6_9  and  N3_10 
REMARK    3  A    between atoms: N3_10  and  C8_12 
REMARK    4  A    between atoms: C15_20  and  O2_21 
ROOT
HETATM    1  C2  UNL     1      26.737   5.635  48.637  1.00  0.00     0.103 A 
HETATM    2  C3  UNL     1      27.970   5.040  48.643  1.00  0.00     0.072 A 
HETATM    3  C4  UNL     1      29.034   5.711  48.088  1.00  0.00     0.075 A 
HETATM    4  N1  UNL     1      30.254   5.147  48.083  1.00  0.00    -0.241 NA
HETATM    5  C5  UNL     1      31.274   5.799  47.546  1.00  0.00     0.236 A 
HETATM    6  N2  UNL     1      31.089   7.002  47.017  1.00  0.00    -0.223 NA
HETATM    7  C6  UNL     1      29.896   7.655  46.974  1.00  0.00     0.144 A 
HETATM    8  C13 UNL     1      28.838   6.967  47.536  1.00  0.00     0.042 A 
HETATM    9  C14 UNL     1      27.617   7.563  47.528  1.00  0.00     0.057 A 
HETATM   10  C15 UNL     1      26.541   6.888  48.088  1.00  0.00     0.102 A 
ENDROOT
BRANCH   7  11
HETATM   11  N3  UNL     1      29.822   8.941  46.381  1.00  0.00    -0.335 N 
HETATM   12  C7  UNL     1      29.668   9.038  44.930  1.00  0.00     0.158 C 
BRANCH  11  13
HETATM   13  C8  UNL     1      29.890  10.138  47.147  1.00  0.00     0.036 A 
HETATM   14  C9  UNL     1      30.618  10.189  48.295  1.00  0.00     0.030 A 
HETATM   15  C10 UNL     1      30.798  11.231  49.148  1.00  0.00     0.004 A 
HETATM   16  C11 UNL     1      30.259  12.510  49.025  1.00  0.00     0.016 A 
HETATM   17  P1  UNL     1      29.256  12.727  47.601  1.00  0.00    -0.032 P 
HETATM   18  C12 UNL     1      29.178  11.245  46.663  1.00  0.00     0.045 A 
ENDBRANCH  11  13
ENDBRANCH   7  11
BRANCH  10  19
HETATM   19  O2  UNL     1      25.268   7.436  48.113  1.00  0.00    -0.353 OA
HETATM   20  C16 UNL     1      24.732   7.902  46.889  1.00  0.00     0.210 C 
ENDBRANCH  10  19
BRANCH   1  21
HETATM   21  O1  UNL     1      25.665   4.981  49.186  1.00  0.00    -0.353 OA
HETATM   22  C1  UNL     1      25.733   3.679  49.716  1.00  0.00     0.210 C 
ENDBRANCH   1  21
TORSDOF 4
ENDMDL
MODEL 8
REMARK VINA RESULT:      -5.7      3.889      6.818
REMARK  4 active torsions:
REMARK  status: ('A' for Active; 'I' for Inactive)
REMARK    1  A    between atoms: O1_2  and  C2_3 
REMARK    2  A    between atoms: C6_9  and  N3_10 
REMARK    3  A    between atoms: N3_10  and  C8_12 
REMARK    4  A    between atoms: C15_20  and  O2_21 
ROOT
HETATM    1  C2  UNL     1      25.690   7.955  49.648  1.00  0.00     0.103 A 
HETATM    2  C3  UNL     1      24.458   8.149  50.214  1.00  0.00     0.072 A 
HETATM    3  C4  UNL     1      23.652   7.058  50.437  1.00  0.00     0.075 A 
HETATM    4  N1  UNL     1      22.438   7.222  50.992  1.00  0.00    -0.241 NA
HETATM    5  C5  UNL     1      21.667   6.167  51.203  1.00  0.00     0.236 A 
HETATM    6  N2  UNL     1      22.092   4.956  50.869  1.00  0.00    -0.223 NA
HETATM    7  C6  UNL     1      23.300   4.687  50.304  1.00  0.00     0.144 A 
HETATM    8  C13 UNL     1      24.098   5.793  50.087  1.00  0.00     0.042 A 
HETATM    9  C14 UNL     1      25.320   5.596  49.525  1.00  0.00     0.057 A 
HETATM   10  C15 UNL     1      26.136   6.695  49.299  1.00  0.00     0.102 A 
ENDROOT
BRANCH   7  11
HETATM   11  N3  UNL     1      23.644   3.348  49.989  1.00  0.00    -0.335 N 
HETATM   12  C7  UNL     1      23.236   2.802  48.695  1.00  0.00     0.158 C 
BRANCH  11  13
HETATM   13  C8  UNL     1      24.373   2.517  50.886  1.00  0.00     0.036 A 
HETATM   14  C9  UNL     1      25.733   2.483  50.853  1.00  0.00     0.030 A 
HETATM   15  C10 UNL     1      26.588   1.760  51.622  1.00  0.00     0.004 A 
HETATM   16  C11 UNL     1      26.245   0.872  52.640  1.00  0.00     0.016 A 
HETATM   17  P1  UNL     1      24.516   0.720  52.902  1.00  0.00    -0.032 P 
HETATM   18  C12 UNL     1      23.627   1.748  51.790  1.00  0.00     0.045 A 
ENDBRANCH  11  13
ENDBRANCH   7  11
BRANCH  10  19
HETATM   19  O2  UNL     1      27.393   6.566  48.729  1.00  0.00    -0.353 OA
HETATM   20  C16 UNL     1      27.879   5.257  48.504  1.00  0.00     0.210 C 
ENDBRANCH  10  19
BRANCH   1  21
HETATM   21  O1  UNL     1      26.507   9.031  49.419  1.00  0.00    -0.353 OA
HETATM   22  C1  UNL     1      26.132  10.146  48.646  1.00  0.00     0.210 C 
ENDBRANCH   1  21
TORSDOF 4
ENDMDL
MODEL 9
REMARK VINA RESULT:      -5.7      5.329      6.667
REMARK  4 active torsions:
REMARK  status: ('A' for Active; 'I' for Inactive)
REMARK    1  A    between atoms: O1_2  and  C2_3 
REMARK    2  A    between atoms: C6_9  and  N3_10 
REMARK    3  A    between atoms: N3_10  and  C8_12 
REMARK    4  A    between atoms: C15_20  and  O2_21 
ROOT
HETATM    1  C2  UNL     1      21.612   0.308  53.224  1.00  0.00     0.103 A 
HETATM    2  C3  UNL     1      21.014  -0.792  53.779  1.00  0.00     0.072 A 
HETATM    3  C4  UNL     1      19.714  -1.081  53.442  1.00  0.00     0.075 A 
HETATM    4  N1  UNL     1      19.105  -2.155  53.973  1.00  0.00    -0.241 NA
HETATM    5  C5  UNL     1      17.852  -2.427  53.644  1.00  0.00     0.236 A 
HETATM    6  N2  UNL     1      17.203  -1.642  52.794  1.00  0.00    -0.223 NA
HETATM    7  C6  UNL     1      17.730  -0.535  52.204  1.00  0.00     0.144 A 
HETATM    8  C13 UNL     1      19.038  -0.259  52.553  1.00  0.00     0.042 A 
HETATM    9  C14 UNL     1      19.627   0.833  52.000  1.00  0.00     0.057 A 
HETATM   10  C15 UNL     1      20.940   1.128  52.338  1.00  0.00     0.102 A 
ENDROOT
BRANCH   7  11
HETATM   11  N3  UNL     1      16.937   0.228  51.310  1.00  0.00    -0.335 N 
HETATM   12  C7  UNL     1      16.922  -0.138  49.894  1.00  0.00     0.158 C 
BRANCH  11  13
HETATM   13  C8  UNL     1      16.155   1.336  51.742  1.00  0.00     0.036 A 
HETATM   14  C9  UNL     1      15.017   1.146  52.463  1.00  0.00     0.030 A 
HETATM   15  C10 UNL     1      14.153   2.070  52.955  1.00  0.00     0.004 A 
HETATM   16  C11 UNL     1      14.250   3.454  52.823  1.00  0.00     0.016 A 
HETATM   17  P1  UNL     1      15.656   3.988  51.917  1.00  0.00    -0.032 P 
HETATM   18  C12 UNL     1      16.613   2.614  51.390  1.00  0.00     0.045 A 
ENDBRANCH  11  13
ENDBRANCH   7  11
BRANCH  10  19
HETATM   19  O2  UNL     1      21.602   2.226  51.812  1.00  0.00    -0.353 OA
HETATM   20  C16 UNL     1      21.142   3.510  52.189  1.00  0.00     0.210 C 
ENDBRANCH  10  19
BRANCH   1  21
HETATM   21  O1  UNL     1      22.909   0.611  53.549  1.00  0.00    -0.353 OA
HETATM   22  C1  UNL     1      23.984  -0.281  53.385  1.00  0.00     0.210 C 
ENDBRANCH   1  21
TORSDOF 4
ENDMDL
