MODEL 1
REMARK VINA RESULT:      -7.8      0.000      0.000
REMARK  4 active torsions:
REMARK  status: ('A' for Active; 'I' for Inactive)
REMARK    1  A    between atoms: C6_8  and  O1_9 
REMARK    2  A    between atoms: O1_9  and  C7_10 
REMARK    3  A    between atoms: C15_19  and  C16_20 
REMARK    4  A    between atoms: C16_20  and  O2_21 
ROOT
HETATM    1  C1  UNL     1      24.091  -1.366  55.632  1.00  0.00     0.049 C 
HETATM    2  C2  UNL     1      24.821  -0.498  54.704  1.00  0.00    -0.051 A 
HETATM    3  C3  UNL     1      26.068   0.022  55.048  1.00  0.00     0.040 A 
HETATM    4  C4  UNL     1      26.715   0.841  54.128  1.00  0.00     0.073 A 
HETATM    5  N1  UNL     1      27.902   1.333  54.456  1.00  0.00    -0.241 NA
HETATM    6  C5  UNL     1      28.560   2.137  53.579  1.00  0.00     0.236 A 
HETATM    7  N2  UNL     1      28.002   2.426  52.382  1.00  0.00    -0.217 NA
HETATM    8  C6  UNL     1      26.799   1.921  52.060  1.00  0.00     0.183 A 
HETATM    9  C13 UNL     1      26.098   1.100  52.925  1.00  0.00     0.047 A 
HETATM   10  C14 UNL     1      24.867   0.599  52.565  1.00  0.00     0.028 A 
HETATM   11  C15 UNL     1      24.232  -0.209  53.476  1.00  0.00    -0.028 A 
ENDROOT
BRANCH   8  12
HETATM   12  O1  UNL     1      26.192   2.199  50.834  1.00  0.00    -0.291 OA
BRANCH  12  13
HETATM   13  C7  UNL     1      26.129   3.459  50.283  1.00  0.00     0.079 A 
HETATM   14  C8  UNL     1      27.004   3.921  49.295  1.00  0.00     0.037 A 
HETATM   15  C9  UNL     1      26.886   5.197  48.784  1.00  0.00     0.004 A 
HETATM   16  C10 UNL     1      25.888   6.064  49.240  1.00  0.00     0.019 A 
HETATM   17  C11 UNL     1      25.024   5.606  50.215  1.00  0.00     0.013 A 
HETATM   18 BR1  UNL     1      23.656   6.781  50.846  1.00  0.00    -0.051 Br
HETATM   19  C12 UNL     1      25.129   4.318  50.743  1.00  0.00     0.056 A 
ENDBRANCH  12  13
ENDBRANCH   8  12
BRANCH  11  20
HETATM   20  C16 UNL     1      22.895  -0.773  53.124  1.00  0.00     0.203 C 
BRANCH  20  21
HETATM   21  O2  UNL     1      22.214   0.081  52.233  1.00  0.00    -0.396 OA
HETATM   22  H13 UNL     1      22.910   0.600  51.780  1.00  0.00     0.209 HD
ENDBRANCH  20  21
ENDBRANCH  11  20
TORSDOF 4
ENDMDL
MODEL 2
REMARK VINA RESULT:      -7.8      3.934      5.644
REMARK  4 active torsions:
REMARK  status: ('A' for Active; 'I' for Inactive)
REMARK    1  A    between atoms: C6_8  and  O1_9 
REMARK    2  A    between atoms: O1_9  and  C7_10 
REMARK    3  A    between atoms: C15_19  and  C16_20 
REMARK    4  A    between atoms: C16_20  and  O2_21 
ROOT
HETATM    1  C1  UNL     1      18.442   0.101  51.856  1.00  0.00     0.049 C 
HETATM    2  C2  UNL     1      19.841  -0.009  52.280  1.00  0.00    -0.051 A 
HETATM    3  C3  UNL     1      20.169  -0.588  53.506  1.00  0.00     0.040 A 
HETATM    4  C4  UNL     1      21.513  -0.666  53.857  1.00  0.00     0.073 A 
HETATM    5  N1  UNL     1      21.823  -1.217  55.022  1.00  0.00    -0.241 NA
HETATM    6  C5  UNL     1      23.128  -1.308  55.395  1.00  0.00     0.236 A 
HETATM    7  N2  UNL     1      24.095  -0.837  54.576  1.00  0.00    -0.217 NA
HETATM    8  C6  UNL     1      23.769  -0.280  53.398  1.00  0.00     0.183 A 
HETATM    9  C13 UNL     1      22.454  -0.169  52.983  1.00  0.00     0.047 A 
HETATM   10  C14 UNL     1      22.153   0.407  51.769  1.00  0.00     0.028 A 
HETATM   11  C15 UNL     1      20.825   0.481  51.426  1.00  0.00    -0.028 A 
ENDROOT
BRANCH   8  12
HETATM   12  O1  UNL     1      24.741   0.217  52.528  1.00  0.00    -0.291 OA
BRANCH  12  13
HETATM   13  C7  UNL     1      25.996   0.615  52.934  1.00  0.00     0.079 A 
HETATM   14  C8  UNL     1      26.317   1.927  53.296  1.00  0.00     0.037 A 
HETATM   15  C9  UNL     1      27.595   2.260  53.694  1.00  0.00     0.004 A 
HETATM   16  C10 UNL     1      28.606   1.294  53.746  1.00  0.00     0.019 A 
HETATM   17  C11 UNL     1      28.287  -0.001  53.388  1.00  0.00     0.013 A 
HETATM   18 BR1  UNL     1      29.659  -1.329  53.455  1.00  0.00    -0.051 Br
HETATM   19  C12 UNL     1      26.999  -0.356  52.984  1.00  0.00     0.056 A 
ENDBRANCH  12  13
ENDBRANCH   8  12
BRANCH  11  20
HETATM   20  C16 UNL     1      20.456   1.099  50.118  1.00  0.00     0.203 C 
BRANCH  20  21
HETATM   21  O2  UNL     1      21.391   0.750  49.122  1.00  0.00    -0.396 OA
HETATM   22  H13 UNL     1      20.879   0.276  48.433  1.00  0.00     0.209 HD
ENDBRANCH  20  21
ENDBRANCH  11  20
TORSDOF 4
ENDMDL
MODEL 3
REMARK VINA RESULT:      -7.5      2.393      3.829
REMARK  4 active torsions:
REMARK  status: ('A' for Active; 'I' for Inactive)
REMARK    1  A    between atoms: C6_8  and  O1_9 
REMARK    2  A    between atoms: O1_9  and  C7_10 
REMARK    3  A    between atoms: C15_19  and  C16_20 
REMARK    4  A    between atoms: C16_20  and  O2_21 
ROOT
HETATM    1  C1  UNL     1      28.965  -0.600  54.125  1.00  0.00     0.049 C 
HETATM    2  C2  UNL     1      27.684   0.055  53.847  1.00  0.00    -0.051 A 
HETATM    3  C3  UNL     1      26.518  -0.695  53.704  1.00  0.00     0.040 A 
HETATM    4  C4  UNL     1      25.330  -0.020  53.441  1.00  0.00     0.073 A 
HETATM    5  N1  UNL     1      24.221  -0.734  53.306  1.00  0.00    -0.241 NA
HETATM    6  C5  UNL     1      23.045  -0.104  53.048  1.00  0.00     0.236 A 
HETATM    7  N2  UNL     1      23.014   1.243  52.932  1.00  0.00    -0.217 NA
HETATM    8  C6  UNL     1      24.143   1.957  53.071  1.00  0.00     0.183 A 
HETATM    9  C13 UNL     1      25.361   1.353  53.334  1.00  0.00     0.047 A 
HETATM   10  C14 UNL     1      26.500   2.114  53.470  1.00  0.00     0.028 A 
HETATM   11  C15 UNL     1      27.670   1.443  53.730  1.00  0.00    -0.028 A 
ENDROOT
BRANCH   8  12
HETATM   12  O1  UNL     1      24.150   3.348  52.957  1.00  0.00    -0.291 OA
BRANCH  12  13
HETATM   13  C7  UNL     1      23.963   4.016  51.767  1.00  0.00     0.079 A 
HETATM   14  C8  UNL     1      24.546   3.628  50.556  1.00  0.00     0.037 A 
HETATM   15  C9  UNL     1      24.318   4.343  49.399  1.00  0.00     0.004 A 
HETATM   16  C10 UNL     1      23.497   5.476  49.404  1.00  0.00     0.019 A 
HETATM   17  C11 UNL     1      22.922   5.857  50.600  1.00  0.00     0.013 A 
HETATM   18 BR1  UNL     1      21.798   7.402  50.620  1.00  0.00    -0.051 Br
HETATM   19  C12 UNL     1      23.141   5.145  51.781  1.00  0.00     0.056 A 
ENDBRANCH  12  13
ENDBRANCH   8  12
BRANCH  11  20
HETATM   20  C16 UNL     1      28.929   2.231  53.885  1.00  0.00     0.203 C 
BRANCH  20  21
HETATM   21  O2  UNL     1      29.054   3.177  52.848  1.00  0.00    -0.396 OA
HETATM   22  H13 UNL     1      28.983   2.666  52.014  1.00  0.00     0.209 HD
ENDBRANCH  20  21
ENDBRANCH  11  20
TORSDOF 4
ENDMDL
MODEL 4
REMARK VINA RESULT:      -7.2      2.411      3.537
REMARK  4 active torsions:
REMARK  status: ('A' for Active; 'I' for Inactive)
REMARK    1  A    between atoms: C6_8  and  O1_9 
REMARK    2  A    between atoms: O1_9  and  C7_10 
REMARK    3  A    between atoms: C15_19  and  C16_20 
REMARK    4  A    between atoms: C16_20  and  O2_21 
ROOT
HETATM    1  C1  UNL     1      26.522   0.222  55.056  1.00  0.00     0.049 C 
HETATM    2  C2  UNL     1      26.233   0.896  53.788  1.00  0.00    -0.051 A 
HETATM    3  C3  UNL     1      24.928   0.968  53.300  1.00  0.00     0.040 A 
HETATM    4  C4  UNL     1      24.713   1.620  52.090  1.00  0.00     0.073 A 
HETATM    5  N1  UNL     1      23.472   1.687  51.629  1.00  0.00    -0.241 NA
HETATM    6  C5  UNL     1      23.229   2.318  50.449  1.00  0.00     0.236 A 
HETATM    7  N2  UNL     1      24.251   2.870  49.758  1.00  0.00    -0.217 NA
HETATM    8  C6  UNL     1      25.505   2.796  50.235  1.00  0.00     0.183 A 
HETATM    9  C13 UNL     1      25.793   2.163  51.432  1.00  0.00     0.047 A 
HETATM   10  C14 UNL     1      27.090   2.104  51.893  1.00  0.00     0.028 A 
HETATM   11  C15 UNL     1      27.297   1.460  53.088  1.00  0.00    -0.028 A 
ENDROOT
BRANCH   8  12
HETATM   12  O1  UNL     1      26.584   3.354  49.549  1.00  0.00    -0.291 OA
BRANCH  12  13
HETATM   13  C7  UNL     1      26.695   4.697  49.262  1.00  0.00     0.079 A 
HETATM   14  C8  UNL     1      27.715   5.244  48.477  1.00  0.00     0.037 A 
HETATM   15  C9  UNL     1      27.767   6.600  48.228  1.00  0.00     0.004 A 
HETATM   16  C10 UNL     1      26.802   7.465  48.754  1.00  0.00     0.019 A 
HETATM   17  C11 UNL     1      25.795   6.923  49.529  1.00  0.00     0.013 A 
HETATM   18 BR1  UNL     1      24.470   8.094  50.252  1.00  0.00    -0.051 Br
HETATM   19  C12 UNL     1      25.726   5.553  49.791  1.00  0.00     0.056 A 
ENDBRANCH  12  13
ENDBRANCH   8  12
BRANCH  11  20
HETATM   20  C16 UNL     1      28.688   1.374  53.624  1.00  0.00     0.203 C 
BRANCH  20  21
HETATM   21  O2  UNL     1      29.038   2.565  54.291  1.00  0.00    -0.396 OA
HETATM   22  H13 UNL     1      28.567   3.282  53.817  1.00  0.00     0.209 HD
ENDBRANCH  20  21
ENDBRANCH  11  20
TORSDOF 4
ENDMDL
MODEL 5
REMARK VINA RESULT:      -7.1      5.859      8.443
REMARK  4 active torsions:
REMARK  status: ('A' for Active; 'I' for Inactive)
REMARK    1  A    between atoms: C6_8  and  O1_9 
REMARK    2  A    between atoms: O1_9  and  C7_10 
REMARK    3  A    between atoms: C15_19  and  C16_20 
REMARK    4  A    between atoms: C16_20  and  O2_21 
ROOT
HETATM    1  C1  UNL     1      34.920   3.839  47.978  1.00  0.00     0.049 C 
HETATM    2  C2  UNL     1      33.689   4.632  48.029  1.00  0.00    -0.051 A 
HETATM    3  C3  UNL     1      33.658   5.856  48.697  1.00  0.00     0.040 A 
HETATM    4  C4  UNL     1      32.462   6.566  48.713  1.00  0.00     0.073 A 
HETATM    5  N1  UNL     1      32.434   7.730  49.348  1.00  0.00    -0.241 NA
HETATM    6  C5  UNL     1      31.280   8.448  49.382  1.00  0.00     0.236 A 
HETATM    7  N2  UNL     1      30.173   7.972  48.769  1.00  0.00    -0.217 NA
HETATM    8  C6  UNL     1      30.212   6.792  48.129  1.00  0.00     0.183 A 
HETATM    9  C13 UNL     1      31.367   6.031  48.072  1.00  0.00     0.047 A 
HETATM   10  C14 UNL     1      31.374   4.825  47.407  1.00  0.00     0.028 A 
HETATM   11  C15 UNL     1      32.557   4.127  47.393  1.00  0.00    -0.028 A 
ENDROOT
BRANCH   8  12
HETATM   12  O1  UNL     1      29.089   6.269  47.486  1.00  0.00    -0.291 OA
BRANCH  12  13
HETATM   13  C7  UNL     1      27.889   6.032  48.120  1.00  0.00     0.079 A 
HETATM   14  C8  UNL     1      26.840   6.956  48.170  1.00  0.00     0.037 A 
HETATM   15  C9  UNL     1      25.662   6.656  48.822  1.00  0.00     0.004 A 
HETATM   16  C10 UNL     1      25.484   5.419  49.452  1.00  0.00     0.019 A 
HETATM   17  C11 UNL     1      26.521   4.508  49.401  1.00  0.00     0.013 A 
HETATM   18 BR1  UNL     1      26.290   2.816  50.257  1.00  0.00    -0.051 Br
HETATM   19  C12 UNL     1      27.720   4.795  48.745  1.00  0.00     0.056 A 
ENDBRANCH  12  13
ENDBRANCH   8  12
BRANCH  11  20
HETATM   20  C16 UNL     1      32.607   2.815  46.683  1.00  0.00     0.203 C 
BRANCH  20  21
HETATM   21  O2  UNL     1      31.342   2.487  46.155  1.00  0.00    -0.396 OA
HETATM   22  H13 UNL     1      30.690   2.799  46.817  1.00  0.00     0.209 HD
ENDBRANCH  20  21
ENDBRANCH  11  20
TORSDOF 4
ENDMDL
MODEL 6
REMARK VINA RESULT:      -7.1      3.090      4.514
REMARK  4 active torsions:
REMARK  status: ('A' for Active; 'I' for Inactive)
REMARK    1  A    between atoms: C6_8  and  O1_9 
REMARK    2  A    between atoms: O1_9  and  C7_10 
REMARK    3  A    between atoms: C15_19  and  C16_20 
REMARK    4  A    between atoms: C16_20  and  O2_21 
ROOT
HETATM    1  C1  UNL     1      27.979  -0.228  53.909  1.00  0.00     0.049 C 
HETATM    2  C2  UNL     1      26.589   0.141  53.627  1.00  0.00    -0.051 A 
HETATM    3  C3  UNL     1      25.535  -0.621  54.130  1.00  0.00     0.040 A 
HETATM    4  C4  UNL     1      24.235  -0.224  53.830  1.00  0.00     0.073 A 
HETATM    5  N1  UNL     1      23.234  -0.950  54.309  1.00  0.00    -0.241 NA
HETATM    6  C5  UNL     1      21.953  -0.588  54.034  1.00  0.00     0.236 A 
HETATM    7  N2  UNL     1      21.710   0.505  53.277  1.00  0.00    -0.217 NA
HETATM    8  C6  UNL     1      22.732   1.233  52.797  1.00  0.00     0.183 A 
HETATM    9  C13 UNL     1      24.050   0.898  53.054  1.00  0.00     0.047 A 
HETATM   10  C14 UNL     1      25.075   1.665  52.547  1.00  0.00     0.028 A 
HETATM   11  C15 UNL     1      26.356   1.269  52.845  1.00  0.00    -0.028 A 
ENDROOT
BRANCH   8  12
HETATM   12  O1  UNL     1      22.519   2.367  52.011  1.00  0.00    -0.291 OA
BRANCH  12  13
HETATM   13  C7  UNL     1      22.281   2.321  50.655  1.00  0.00     0.079 A 
HETATM   14  C8  UNL     1      21.844   1.178  49.979  1.00  0.00     0.037 A 
HETATM   15  C9  UNL     1      21.624   1.199  48.618  1.00  0.00     0.004 A 
HETATM   16  C10 UNL     1      21.832   2.366  47.875  1.00  0.00     0.019 A 
HETATM   17  C11 UNL     1      22.264   3.495  48.544  1.00  0.00     0.013 A 
HETATM   18 BR1  UNL     1      22.551   5.095  47.541  1.00  0.00    -0.051 Br
HETATM   19  C12 UNL     1      22.491   3.491  49.922  1.00  0.00     0.056 A 
ENDBRANCH  12  13
ENDBRANCH   8  12
BRANCH  11  20
HETATM   20  C16 UNL     1      27.497   2.074  52.315  1.00  0.00     0.203 C 
BRANCH  20  21
HETATM   21  O2  UNL     1      27.034   3.064  51.425  1.00  0.00    -0.396 OA
HETATM   22  H13 UNL     1      27.503   2.900  50.580  1.00  0.00     0.209 HD
ENDBRANCH  20  21
ENDBRANCH  11  20
TORSDOF 4
ENDMDL
MODEL 7
REMARK VINA RESULT:      -7.1      1.762      2.398
REMARK  4 active torsions:
REMARK  status: ('A' for Active; 'I' for Inactive)
REMARK    1  A    between atoms: C6_8  and  O1_9 
REMARK    2  A    between atoms: O1_9  and  C7_10 
REMARK    3  A    between atoms: C15_19  and  C16_20 
REMARK    4  A    between atoms: C16_20  and  O2_21 
ROOT
HETATM    1  C1  UNL     1      21.702  -1.318  54.577  1.00  0.00     0.049 C 
HETATM    2  C2  UNL     1      22.641  -0.509  53.795  1.00  0.00    -0.051 A 
HETATM    3  C3  UNL     1      24.009  -0.546  54.064  1.00  0.00     0.040 A 
HETATM    4  C4  UNL     1      24.853   0.244  53.290  1.00  0.00     0.073 A 
HETATM    5  N1  UNL     1      26.153   0.207  53.547  1.00  0.00    -0.241 NA
HETATM    6  C5  UNL     1      27.004   0.967  52.808  1.00  0.00     0.236 A 
HETATM    7  N2  UNL     1      26.520   1.751  51.819  1.00  0.00    -0.217 NA
HETATM    8  C6  UNL     1      25.201   1.781  51.567  1.00  0.00     0.183 A 
HETATM    9  C13 UNL     1      24.302   1.022  52.297  1.00  0.00     0.047 A 
HETATM   10  C14 UNL     1      22.956   1.075  52.013  1.00  0.00     0.028 A 
HETATM   11  C15 UNL     1      22.126   0.294  52.780  1.00  0.00    -0.028 A 
ENDROOT
BRANCH   8  12
HETATM   12  O1  UNL     1      24.666   2.579  50.555  1.00  0.00    -0.291 OA
BRANCH  12  13
HETATM   13  C7  UNL     1      24.769   3.952  50.531  1.00  0.00     0.079 A 
HETATM   14  C8  UNL     1      23.997   4.805  51.326  1.00  0.00     0.037 A 
HETATM   15  C9  UNL     1      24.151   6.174  51.254  1.00  0.00     0.004 A 
HETATM   16  C10 UNL     1      25.083   6.747  50.382  1.00  0.00     0.019 A 
HETATM   17  C11 UNL     1      25.845   5.903  49.598  1.00  0.00     0.013 A 
HETATM   18 BR1  UNL     1      27.121   6.674  48.404  1.00  0.00    -0.051 Br
HETATM   19  C12 UNL     1      25.703   4.516  49.659  1.00  0.00     0.056 A 
ENDBRANCH  12  13
ENDBRANCH   8  12
BRANCH  11  20
HETATM   20  C16 UNL     1      20.659   0.322  52.505  1.00  0.00     0.203 C 
BRANCH  20  21
HETATM   21  O2  UNL     1      20.094   1.537  52.943  1.00  0.00    -0.396 OA
HETATM   22  H13 UNL     1      19.307   1.681  52.378  1.00  0.00     0.209 HD
ENDBRANCH  20  21
ENDBRANCH  11  20
TORSDOF 4
ENDMDL
MODEL 8
REMARK VINA RESULT:      -7.0      6.049      9.253
REMARK  4 active torsions:
REMARK  status: ('A' for Active; 'I' for Inactive)
REMARK    1  A    between atoms: C6_8  and  O1_9 
REMARK    2  A    between atoms: O1_9  and  C7_10 
REMARK    3  A    between atoms: C15_19  and  C16_20 
REMARK    4  A    between atoms: C16_20  and  O2_21 
ROOT
HETATM    1  C1  UNL     1      24.129   0.196  53.228  1.00  0.00     0.049 C 
HETATM    2  C2  UNL     1      22.693   0.137  52.943  1.00  0.00    -0.051 A 
HETATM    3  C3  UNL     1      22.189   0.591  51.724  1.00  0.00     0.040 A 
HETATM    4  C4  UNL     1      20.817   0.511  51.509  1.00  0.00     0.073 A 
HETATM    5  N1  UNL     1      20.340   0.942  50.349  1.00  0.00    -0.241 NA
HETATM    6  C5  UNL     1      19.004   0.877  50.108  1.00  0.00     0.236 A 
HETATM    7  N2  UNL     1      18.174   0.374  51.049  1.00  0.00    -0.217 NA
HETATM    8  C6  UNL     1      18.668  -0.060  52.221  1.00  0.00     0.183 A 
HETATM    9  C13 UNL     1      20.022  -0.011  52.504  1.00  0.00     0.047 A 
HETATM   10  C14 UNL     1      20.496  -0.464  53.715  1.00  0.00     0.028 A 
HETATM   11  C15 UNL     1      21.851  -0.383  53.923  1.00  0.00    -0.028 A 
ENDROOT
BRANCH   8  12
HETATM   12  O1  UNL     1      17.841  -0.584  53.216  1.00  0.00    -0.291 OA
BRANCH  12  13
HETATM   13  C7  UNL     1      17.212  -1.805  53.119  1.00  0.00     0.079 A 
HETATM   14  C8  UNL     1      17.710  -2.984  53.682  1.00  0.00     0.037 A 
HETATM   15  C9  UNL     1      17.029  -4.177  53.548  1.00  0.00     0.004 A 
HETATM   16  C10 UNL     1      15.821  -4.239  52.846  1.00  0.00     0.019 A 
HETATM   17  C11 UNL     1      15.330  -3.073  52.291  1.00  0.00     0.013 A 
HETATM   18 BR1  UNL     1      13.681  -3.146  51.329  1.00  0.00    -0.051 Br
HETATM   19  C12 UNL     1      16.006  -1.858  52.417  1.00  0.00     0.056 A 
ENDBRANCH  12  13
ENDBRANCH   8  12
BRANCH  11  20
HETATM   20  C16 UNL     1      22.407  -0.864  55.223  1.00  0.00     0.203 C 
BRANCH  20  21
HETATM   21  O2  UNL     1      22.263  -2.262  55.338  1.00  0.00    -0.396 OA
HETATM   22  H13 UNL     1      23.149  -2.599  55.586  1.00  0.00     0.209 HD
ENDBRANCH  20  21
ENDBRANCH  11  20
TORSDOF 4
ENDMDL
MODEL 9
REMARK VINA RESULT:      -7.0      3.527      6.269
REMARK  4 active torsions:
REMARK  status: ('A' for Active; 'I' for Inactive)
REMARK    1  A    between atoms: C6_8  and  O1_9 
REMARK    2  A    between atoms: O1_9  and  C7_10 
REMARK    3  A    between atoms: C15_19  and  C16_20 
REMARK    4  A    between atoms: C16_20  and  O2_21 
ROOT
HETATM    1  C1  UNL     1      22.796   3.379  47.931  1.00  0.00     0.049 C 
HETATM    2  C2  UNL     1      22.913   2.696  49.222  1.00  0.00    -0.051 A 
HETATM    3  C3  UNL     1      21.948   1.777  49.631  1.00  0.00     0.040 A 
HETATM    4  C4  UNL     1      22.111   1.159  50.867  1.00  0.00     0.073 A 
HETATM    5  N1  UNL     1      21.193   0.284  51.254  1.00  0.00    -0.241 NA
HETATM    6  C5  UNL     1      21.324  -0.337  52.457  1.00  0.00     0.236 A 
HETATM    7  N2  UNL     1      22.386  -0.059  53.245  1.00  0.00    -0.217 NA
HETATM    8  C6  UNL     1      23.310   0.828  52.843  1.00  0.00     0.183 A 
HETATM    9  C13 UNL     1      23.213   1.481  51.626  1.00  0.00     0.047 A 
HETATM   10  C14 UNL     1      24.178   2.386  51.243  1.00  0.00     0.028 A 
HETATM   11  C15 UNL     1      24.013   2.994  50.022  1.00  0.00    -0.028 A 
ENDROOT
BRANCH   8  12
HETATM   12  O1  UNL     1      24.419   1.140  53.631  1.00  0.00    -0.291 OA
BRANCH  12  13
HETATM   13  C7  UNL     1      25.646   0.528  53.497  1.00  0.00     0.079 A 
HETATM   14  C8  UNL     1      25.823  -0.754  52.967  1.00  0.00     0.037 A 
HETATM   15  C9  UNL     1      27.081  -1.310  52.861  1.00  0.00     0.004 A 
HETATM   16  C10 UNL     1      28.215  -0.606  53.281  1.00  0.00     0.019 A 
HETATM   17  C11 UNL     1      28.039   0.660  53.804  1.00  0.00     0.013 A 
HETATM   18 BR1  UNL     1      29.580   1.631  54.380  1.00  0.00    -0.051 Br
HETATM   19  C12 UNL     1      26.773   1.238  53.918  1.00  0.00     0.056 A 
ENDBRANCH  12  13
ENDBRANCH   8  12
BRANCH  11  20
HETATM   20  C16 UNL     1      25.037   3.981  49.569  1.00  0.00     0.203 C 
BRANCH  20  21
HETATM   21  O2  UNL     1      25.870   4.361  50.641  1.00  0.00    -0.396 OA
HETATM   22  H13 UNL     1      25.360   5.027  51.149  1.00  0.00     0.209 HD
ENDBRANCH  20  21
ENDBRANCH  11  20
TORSDOF 4
ENDMDL
