MODEL 1
REMARK VINA RESULT:      -7.5      0.000      0.000
REMARK  6 active torsions:
REMARK  status: ('A' for Active; 'I' for Inactive)
REMARK    1  A    between atoms: C2_2  and  C3_3 
REMARK    2  A    between atoms: C3_3  and  N1_4 
REMARK    3  A    between atoms: C8_10  and  C9_11 
REMARK    4  A    between atoms: C9_11  and  O2_12 
REMARK    5  A    between atoms: O2_12  and  C10_13 
REMARK    6  A    between atoms: C13_16  and  C14_17 
ROOT
HETATM    1  N1  UNL     1      21.129   2.181  52.304  1.00  0.00    -0.340 N 
HETATM    2  C4  UNL     1      20.256   3.300  52.014  1.00  0.00     0.243 C 
HETATM    3  O1  UNL     1      19.036   3.288  52.295  1.00  0.00    -0.268 OA
HETATM    4  C5  UNL     1      20.766   4.534  51.365  1.00  0.00     0.074 C 
HETATM    5  C6  UNL     1      22.015   5.035  51.446  1.00  0.00     0.006 C 
HETATM    6  C7  UNL     1      23.128   4.434  52.214  1.00  0.00     0.007 C 
HETATM    7  C8  UNL     1      23.396   3.143  52.492  1.00  0.00    -0.034 C 
HETATM    8  C17 UNL     1      22.543   2.016  52.041  1.00  0.00     0.114 C 
HETATM    9  C18 UNL     1      22.792   1.700  50.576  1.00  0.00     0.037 C 
ENDROOT
BRANCH   7  10
HETATM   10  C9  UNL     1      24.613   2.895  53.302  1.00  0.00     0.212 C 
BRANCH  10  11
HETATM   11  O2  UNL     1      25.759   2.539  52.642  1.00  0.00    -0.347 OA
BRANCH  11  12
HETATM   12  C10 UNL     1      26.692   1.581  52.872  1.00  0.00     0.069 A 
HETATM   13  C11 UNL     1      27.990   1.689  53.338  1.00  0.00     0.037 A 
HETATM   14  C12 UNL     1      28.787   0.576  53.505  1.00  0.00     0.012 A 
HETATM   15  C13 UNL     1      28.296  -0.678  53.207  1.00  0.00    -0.024 A 
HETATM   16  C15 UNL     1      27.009  -0.830  52.740  1.00  0.00     0.012 A 
HETATM   17  C16 UNL     1      26.223   0.312  52.580  1.00  0.00     0.037 A 
BRANCH  15  18
HETATM   18  C14 UNL     1      29.256  -1.744  53.437  1.00  0.00     0.429 C 
HETATM   19  O3  UNL     1      29.071  -2.986  53.586  1.00  0.00    -0.426 OA
ENDBRANCH  15  18
ENDBRANCH  11  12
ENDBRANCH  10  11
ENDBRANCH   7  10
BRANCH   1  20
HETATM   20  C3  UNL     1      20.439   1.077  52.944  1.00  0.00     0.126 C 
BRANCH  20  21
HETATM   21  C2  UNL     1      21.274  -0.125  53.203  1.00  0.00     0.015 C 
HETATM   22  C1  UNL     1      21.661  -0.328  54.647  1.00  0.00     0.006 C 
ENDBRANCH  20  21
ENDBRANCH   1  20
TORSDOF 6
ENDMDL
MODEL 2
REMARK VINA RESULT:      -7.4      3.797      6.552
REMARK  6 active torsions:
REMARK  status: ('A' for Active; 'I' for Inactive)
REMARK    1  A    between atoms: C2_2  and  C3_3 
REMARK    2  A    between atoms: C3_3  and  N1_4 
REMARK    3  A    between atoms: C8_10  and  C9_11 
REMARK    4  A    between atoms: C9_11  and  O2_12 
REMARK    5  A    between atoms: O2_12  and  C10_13 
REMARK    6  A    between atoms: C13_16  and  C14_17 
ROOT
HETATM    1  N1  UNL     1      26.136   0.387  54.061  1.00  0.00    -0.340 N 
HETATM    2  C4  UNL     1      25.221  -0.543  54.687  1.00  0.00     0.243 C 
HETATM    3  O1  UNL     1      25.448  -1.055  55.807  1.00  0.00    -0.268 OA
HETATM    4  C5  UNL     1      23.950  -0.942  54.032  1.00  0.00     0.074 C 
HETATM    5  C6  UNL     1      23.217  -0.208  53.172  1.00  0.00     0.006 C 
HETATM    6  C7  UNL     1      23.553   1.159  52.714  1.00  0.00     0.007 C 
HETATM    7  C8  UNL     1      24.752   1.745  52.529  1.00  0.00    -0.034 C 
HETATM    8  C17 UNL     1      26.044   1.059  52.781  1.00  0.00     0.114 C 
HETATM    9  C18 UNL     1      26.386   0.113  51.643  1.00  0.00     0.037 C 
ENDROOT
BRANCH   7  10
HETATM   10  C9  UNL     1      24.720   3.151  52.058  1.00  0.00     0.212 C 
BRANCH  10  11
HETATM   11  O2  UNL     1      24.862   3.378  50.716  1.00  0.00    -0.347 OA
BRANCH  11  12
HETATM   12  C10 UNL     1      25.705   4.167  50.002  1.00  0.00     0.069 A 
HETATM   13  C11 UNL     1      26.875   3.852  49.334  1.00  0.00     0.037 A 
HETATM   14  C12 UNL     1      27.596   4.814  48.657  1.00  0.00     0.012 A 
HETATM   15  C13 UNL     1      27.155   6.120  48.635  1.00  0.00    -0.024 A 
HETATM   16  C15 UNL     1      25.996   6.476  49.288  1.00  0.00     0.012 A 
HETATM   17  C16 UNL     1      25.285   5.485  49.965  1.00  0.00     0.037 A 
BRANCH  15  18
HETATM   18  C14 UNL     1      28.023   7.009  47.881  1.00  0.00     0.429 C 
HETATM   19  O3  UNL     1      29.093   6.761  47.254  1.00  0.00    -0.426 OA
ENDBRANCH  15  18
ENDBRANCH  11  12
ENDBRANCH  10  11
ENDBRANCH   7  10
BRANCH   1  20
HETATM   20  C3  UNL     1      27.315   0.651  54.865  1.00  0.00     0.126 C 
BRANCH  20  21
HETATM   21  C2  UNL     1      28.501  -0.183  54.540  1.00  0.00     0.015 C 
HETATM   22  C1  UNL     1      29.549   0.506  53.702  1.00  0.00     0.006 C 
ENDBRANCH  20  21
ENDBRANCH   1  20
TORSDOF 6
ENDMDL
MODEL 3
REMARK VINA RESULT:      -7.3      2.816      7.291
REMARK  6 active torsions:
REMARK  status: ('A' for Active; 'I' for Inactive)
REMARK    1  A    between atoms: C2_2  and  C3_3 
REMARK    2  A    between atoms: C3_3  and  N1_4 
REMARK    3  A    between atoms: C8_10  and  C9_11 
REMARK    4  A    between atoms: C9_11  and  O2_12 
REMARK    5  A    between atoms: O2_12  and  C10_13 
REMARK    6  A    between atoms: C13_16  and  C14_17 
ROOT
HETATM    1  N1  UNL     1      26.902   1.342  52.370  1.00  0.00    -0.340 N 
HETATM    2  C4  UNL     1      28.071   1.778  53.105  1.00  0.00     0.243 C 
HETATM    3  O1  UNL     1      28.662   2.852  52.848  1.00  0.00    -0.268 OA
HETATM    4  C5  UNL     1      28.634   0.971  54.216  1.00  0.00     0.074 C 
HETATM    5  C6  UNL     1      27.962   0.133  55.030  1.00  0.00     0.006 C 
HETATM    6  C7  UNL     1      26.509  -0.141  54.963  1.00  0.00     0.007 C 
HETATM    7  C8  UNL     1      25.673  -0.152  53.906  1.00  0.00    -0.034 C 
HETATM    8  C17 UNL     1      26.108   0.140  52.518  1.00  0.00     0.114 C 
HETATM    9  C18 UNL     1      26.815  -1.058  51.908  1.00  0.00     0.037 C 
ENDROOT
BRANCH   7  10
HETATM   10  C9  UNL     1      24.256  -0.468  54.205  1.00  0.00     0.212 C 
BRANCH  10  11
HETATM   11  O2  UNL     1      23.314  -0.128  53.272  1.00  0.00    -0.347 OA
BRANCH  11  12
HETATM   12  C10 UNL     1      21.974  -0.333  53.202  1.00  0.00     0.069 A 
HETATM   13  C11 UNL     1      21.133  -1.047  54.036  1.00  0.00     0.037 A 
HETATM   14  C12 UNL     1      19.779  -1.135  53.786  1.00  0.00     0.012 A 
HETATM   15  C13 UNL     1      19.236  -0.503  52.687  1.00  0.00    -0.024 A 
HETATM   16  C15 UNL     1      20.039   0.218  51.831  1.00  0.00     0.012 A 
HETATM   17  C16 UNL     1      21.404   0.291  52.106  1.00  0.00     0.037 A 
BRANCH  15  18
HETATM   18  C14 UNL     1      17.801  -0.690  52.565  1.00  0.00     0.429 C 
HETATM   19  O3  UNL     1      16.929  -0.895  53.458  1.00  0.00    -0.426 OA
ENDBRANCH  15  18
ENDBRANCH  11  12
ENDBRANCH  10  11
ENDBRANCH   7  10
BRANCH   1  20
HETATM   20  C3  UNL     1      26.508   2.274  51.330  1.00  0.00     0.126 C 
BRANCH  20  21
HETATM   21  C2  UNL     1      25.066   2.635  51.317  1.00  0.00     0.015 C 
HETATM   22  C1  UNL     1      24.528   3.137  52.634  1.00  0.00     0.006 C 
ENDBRANCH  20  21
ENDBRANCH   1  20
TORSDOF 6
ENDMDL
MODEL 4
REMARK VINA RESULT:      -7.3      1.817      3.383
REMARK  6 active torsions:
REMARK  status: ('A' for Active; 'I' for Inactive)
REMARK    1  A    between atoms: C2_2  and  C3_3 
REMARK    2  A    between atoms: C3_3  and  N1_4 
REMARK    3  A    between atoms: C8_10  and  C9_11 
REMARK    4  A    between atoms: C9_11  and  O2_12 
REMARK    5  A    between atoms: O2_12  and  C10_13 
REMARK    6  A    between atoms: C13_16  and  C14_17 
ROOT
HETATM    1  N1  UNL     1      22.348   2.421  50.025  1.00  0.00    -0.340 N 
HETATM    2  C4  UNL     1      21.677   1.164  49.767  1.00  0.00     0.243 C 
HETATM    3  O1  UNL     1      21.536   0.705  48.611  1.00  0.00    -0.268 OA
HETATM    4  C5  UNL     1      21.119   0.342  50.870  1.00  0.00     0.074 C 
HETATM    5  C6  UNL     1      21.563   0.284  52.142  1.00  0.00     0.006 C 
HETATM    6  C7  UNL     1      22.712   1.046  52.681  1.00  0.00     0.007 C 
HETATM    7  C8  UNL     1      23.187   2.260  52.342  1.00  0.00    -0.034 C 
HETATM    8  C17 UNL     1      22.588   3.104  51.279  1.00  0.00     0.114 C 
HETATM    9  C18 UNL     1      21.327   3.790  51.777  1.00  0.00     0.037 C 
ENDROOT
BRANCH   7  10
HETATM   10  C9  UNL     1      24.376   2.724  53.098  1.00  0.00     0.212 C 
BRANCH  10  11
HETATM   11  O2  UNL     1      25.609   2.518  52.539  1.00  0.00    -0.347 OA
BRANCH  11  12
HETATM   12  C10 UNL     1      26.612   1.648  52.821  1.00  0.00     0.069 A 
HETATM   13  C11 UNL     1      27.876   1.875  53.335  1.00  0.00     0.037 A 
HETATM   14  C12 UNL     1      28.760   0.839  53.551  1.00  0.00     0.012 A 
HETATM   15  C13 UNL     1      28.392  -0.457  53.253  1.00  0.00    -0.024 A 
HETATM   16  C15 UNL     1      27.143  -0.727  52.739  1.00  0.00     0.012 A 
HETATM   17  C16 UNL     1      26.268   0.339  52.530  1.00  0.00     0.037 A 
BRANCH  15  18
HETATM   18  C14 UNL     1      29.431  -1.431  53.538  1.00  0.00     0.429 C 
HETATM   19  O3  UNL     1      29.382  -2.695  53.538  1.00  0.00    -0.426 OA
ENDBRANCH  15  18
ENDBRANCH  11  12
ENDBRANCH  10  11
ENDBRANCH   7  10
BRANCH   1  20
HETATM   20  C3  UNL     1      22.825   3.066  48.816  1.00  0.00     0.126 C 
BRANCH  20  21
HETATM   21  C2  UNL     1      24.012   3.942  48.993  1.00  0.00     0.015 C 
HETATM   22  C1  UNL     1      23.812   5.375  48.564  1.00  0.00     0.006 C 
ENDBRANCH  20  21
ENDBRANCH   1  20
TORSDOF 6
ENDMDL
MODEL 5
REMARK VINA RESULT:      -7.3      2.183      3.714
REMARK  6 active torsions:
REMARK  status: ('A' for Active; 'I' for Inactive)
REMARK    1  A    between atoms: C2_2  and  C3_3 
REMARK    2  A    between atoms: C3_3  and  N1_4 
REMARK    3  A    between atoms: C8_10  and  C9_11 
REMARK    4  A    between atoms: C9_11  and  O2_12 
REMARK    5  A    between atoms: O2_12  and  C10_13 
REMARK    6  A    between atoms: C13_16  and  C14_17 
ROOT
HETATM    1  N1  UNL     1      23.056   2.826  50.791  1.00  0.00    -0.340 N 
HETATM    2  C4  UNL     1      22.655   2.461  49.449  1.00  0.00     0.243 C 
HETATM    3  O1  UNL     1      23.253   2.882  48.433  1.00  0.00    -0.268 OA
HETATM    4  C5  UNL     1      21.504   1.557  49.201  1.00  0.00     0.074 C 
HETATM    5  C6  UNL     1      21.052   0.580  50.013  1.00  0.00     0.006 C 
HETATM    6  C7  UNL     1      21.634   0.224  51.327  1.00  0.00     0.007 C 
HETATM    7  C8  UNL     1      22.255   0.994  52.242  1.00  0.00    -0.034 C 
HETATM    8  C17 UNL     1      22.481   2.450  52.066  1.00  0.00     0.114 C 
HETATM    9  C18 UNL     1      21.209   3.233  52.342  1.00  0.00     0.037 C 
ENDROOT
BRANCH   7  10
HETATM   10  C9  UNL     1      22.724   0.296  53.464  1.00  0.00     0.212 C 
BRANCH  10  11
HETATM   11  O2  UNL     1      23.772  -0.575  53.340  1.00  0.00    -0.347 OA
BRANCH  11  12
HETATM   12  C10 UNL     1      25.118  -0.401  53.367  1.00  0.00     0.069 A 
HETATM   13  C11 UNL     1      26.057  -0.528  52.358  1.00  0.00     0.037 A 
HETATM   14  C12 UNL     1      27.398  -0.305  52.594  1.00  0.00     0.012 A 
HETATM   15  C13 UNL     1      27.828   0.053  53.854  1.00  0.00    -0.024 A 
HETATM   16  C15 UNL     1      26.927   0.190  54.886  1.00  0.00     0.012 A 
HETATM   17  C16 UNL     1      25.577  -0.042  54.622  1.00  0.00     0.037 A 
BRANCH  15  18
HETATM   18  C14 UNL     1      29.265   0.253  53.938  1.00  0.00     0.429 C 
HETATM   19  O3  UNL     1      30.213  -0.519  53.612  1.00  0.00    -0.426 OA
ENDBRANCH  15  18
ENDBRANCH  11  12
ENDBRANCH  10  11
ENDBRANCH   7  10
BRANCH   1  20
HETATM   20  C3  UNL     1      24.206   3.712  50.818  1.00  0.00     0.126 C 
BRANCH  20  21
HETATM   21  C2  UNL     1      25.479   3.082  51.253  1.00  0.00     0.015 C 
HETATM   22  C1  UNL     1      26.523   2.952  50.172  1.00  0.00     0.006 C 
ENDBRANCH  20  21
ENDBRANCH   1  20
TORSDOF 6
ENDMDL
MODEL 6
REMARK VINA RESULT:      -7.2      2.946      4.756
REMARK  6 active torsions:
REMARK  status: ('A' for Active; 'I' for Inactive)
REMARK    1  A    between atoms: C2_2  and  C3_3 
REMARK    2  A    between atoms: C3_3  and  N1_4 
REMARK    3  A    between atoms: C8_10  and  C9_11 
REMARK    4  A    between atoms: C9_11  and  O2_12 
REMARK    5  A    between atoms: O2_12  and  C10_13 
REMARK    6  A    between atoms: C13_16  and  C14_17 
ROOT
HETATM    1  N1  UNL     1      24.733   5.999  50.311  1.00  0.00    -0.340 N 
HETATM    2  C4  UNL     1      25.975   6.402  49.686  1.00  0.00     0.243 C 
HETATM    3  O1  UNL     1      26.401   7.578  49.739  1.00  0.00    -0.268 OA
HETATM    4  C5  UNL     1      26.821   5.433  48.945  1.00  0.00     0.074 C 
HETATM    5  C6  UNL     1      26.918   4.106  49.168  1.00  0.00     0.006 C 
HETATM    6  C7  UNL     1      26.183   3.360  50.213  1.00  0.00     0.007 C 
HETATM    7  C8  UNL     1      24.965   3.579  50.746  1.00  0.00    -0.034 C 
HETATM    8  C17 UNL     1      24.087   4.703  50.341  1.00  0.00     0.114 C 
HETATM    9  C18 UNL     1      23.401   4.406  49.018  1.00  0.00     0.037 C 
ENDROOT
BRANCH   7  10
HETATM   10  C9  UNL     1      24.535   2.620  51.793  1.00  0.00     0.212 C 
BRANCH  10  11
HETATM   11  O2  UNL     1      25.431   2.307  52.779  1.00  0.00    -0.347 OA
BRANCH  11  12
HETATM   12  C10 UNL     1      26.335   1.304  52.914  1.00  0.00     0.069 A 
HETATM   13  C11 UNL     1      26.203  -0.056  52.694  1.00  0.00     0.037 A 
HETATM   14  C12 UNL     1      27.259  -0.921  52.893  1.00  0.00     0.012 A 
HETATM   15  C13 UNL     1      28.478  -0.438  53.319  1.00  0.00    -0.024 A 
HETATM   16  C15 UNL     1      28.652   0.909  53.552  1.00  0.00     0.012 A 
HETATM   17  C16 UNL     1      27.568   1.763  53.343  1.00  0.00     0.037 A 
BRANCH  15  18
HETATM   18  C14 UNL     1      29.485  -1.472  53.479  1.00  0.00     0.429 C 
HETATM   19  O3  UNL     1      29.360  -2.731  53.502  1.00  0.00    -0.426 OA
ENDBRANCH  15  18
ENDBRANCH  11  12
ENDBRANCH  10  11
ENDBRANCH   7  10
BRANCH   1  20
HETATM   20  C3  UNL     1      24.060   7.092  50.989  1.00  0.00     0.126 C 
BRANCH  20  21
HETATM   21  C2  UNL     1      22.907   7.676  50.257  1.00  0.00     0.015 C 
HETATM   22  C1  UNL     1      21.553   7.203  50.728  1.00  0.00     0.006 C 
ENDBRANCH  20  21
ENDBRANCH   1  20
TORSDOF 6
ENDMDL
MODEL 7
REMARK VINA RESULT:      -7.2      2.359      3.030
REMARK  6 active torsions:
REMARK  status: ('A' for Active; 'I' for Inactive)
REMARK    1  A    between atoms: C2_2  and  C3_3 
REMARK    2  A    between atoms: C3_3  and  N1_4 
REMARK    3  A    between atoms: C8_10  and  C9_11 
REMARK    4  A    between atoms: C9_11  and  O2_12 
REMARK    5  A    between atoms: O2_12  and  C10_13 
REMARK    6  A    between atoms: C13_16  and  C14_17 
ROOT
HETATM    1  N1  UNL     1      23.102   3.633  51.031  1.00  0.00    -0.340 N 
HETATM    2  C4  UNL     1      22.706   4.977  51.394  1.00  0.00     0.243 C 
HETATM    3  O1  UNL     1      21.920   5.212  52.339  1.00  0.00    -0.268 OA
HETATM    4  C5  UNL     1      23.219   6.162  50.661  1.00  0.00     0.074 C 
HETATM    5  C6  UNL     1      24.403   6.271  50.025  1.00  0.00     0.006 C 
HETATM    6  C7  UNL     1      25.428   5.206  49.942  1.00  0.00     0.007 C 
HETATM    7  C8  UNL     1      25.292   3.866  49.914  1.00  0.00    -0.034 C 
HETATM    8  C17 UNL     1      23.979   3.177  49.973  1.00  0.00     0.114 C 
HETATM    9  C18 UNL     1      23.280   3.228  48.625  1.00  0.00     0.037 C 
ENDROOT
BRANCH   7  10
HETATM   10  C9  UNL     1      26.552   3.089  49.828  1.00  0.00     0.212 C 
BRANCH  10  11
HETATM   11  O2  UNL     1      27.087   2.608  50.993  1.00  0.00    -0.347 OA
BRANCH  11  12
HETATM   12  C10 UNL     1      26.669   1.663  51.874  1.00  0.00     0.069 A 
HETATM   13  C11 UNL     1      26.597   0.288  51.744  1.00  0.00     0.037 A 
HETATM   14  C12 UNL     1      26.136  -0.507  52.773  1.00  0.00     0.012 A 
HETATM   15  C13 UNL     1      25.737   0.065  53.963  1.00  0.00    -0.024 A 
HETATM   16  C15 UNL     1      25.793   1.431  54.134  1.00  0.00     0.012 A 
HETATM   17  C16 UNL     1      26.262   2.212  53.077  1.00  0.00     0.037 A 
BRANCH  15  18
HETATM   18  C14 UNL     1      25.281  -0.904  54.945  1.00  0.00     0.429 C 
HETATM   19  O3  UNL     1      25.531  -0.987  56.181  1.00  0.00    -0.426 OA
ENDBRANCH  15  18
ENDBRANCH  11  12
ENDBRANCH  10  11
ENDBRANCH   7  10
BRANCH   1  20
HETATM   20  C3  UNL     1      22.495   2.618  51.873  1.00  0.00     0.126 C 
BRANCH  20  21
HETATM   21  C2  UNL     1      22.969   1.230  51.631  1.00  0.00     0.015 C 
HETATM   22  C1  UNL     1      22.364   0.187  52.538  1.00  0.00     0.006 C 
ENDBRANCH  20  21
ENDBRANCH   1  20
TORSDOF 6
ENDMDL
MODEL 8
REMARK VINA RESULT:      -7.1      4.013      6.563
REMARK  6 active torsions:
REMARK  status: ('A' for Active; 'I' for Inactive)
REMARK    1  A    between atoms: C2_2  and  C3_3 
REMARK    2  A    between atoms: C3_3  and  N1_4 
REMARK    3  A    between atoms: C8_10  and  C9_11 
REMARK    4  A    between atoms: C9_11  and  O2_12 
REMARK    5  A    between atoms: O2_12  and  C10_13 
REMARK    6  A    between atoms: C13_16  and  C14_17 
ROOT
HETATM    1  N1  UNL     1      24.750   0.473  53.302  1.00  0.00    -0.340 N 
HETATM    2  C4  UNL     1      25.610  -0.137  54.294  1.00  0.00     0.243 C 
HETATM    3  O1  UNL     1      25.321  -1.216  54.859  1.00  0.00    -0.268 OA
HETATM    4  C5  UNL     1      26.895   0.488  54.697  1.00  0.00     0.074 C 
HETATM    5  C6  UNL     1      27.684   1.277  53.940  1.00  0.00     0.006 C 
HETATM    6  C7  UNL     1      27.408   1.671  52.541  1.00  0.00     0.007 C 
HETATM    7  C8  UNL     1      26.235   1.870  51.907  1.00  0.00    -0.034 C 
HETATM    8  C17 UNL     1      24.914   1.708  52.565  1.00  0.00     0.114 C 
HETATM    9  C18 UNL     1      24.592   2.910  53.436  1.00  0.00     0.037 C 
ENDROOT
BRANCH   7  10
HETATM   10  C9  UNL     1      26.328   2.260  50.480  1.00  0.00     0.212 C 
BRANCH  10  11
HETATM   11  O2  UNL     1      25.674   3.396  50.084  1.00  0.00    -0.347 OA
BRANCH  11  12
HETATM   12  C10 UNL     1      26.101   4.548  49.508  1.00  0.00     0.069 A 
HETATM   13  C11 UNL     1      25.467   5.771  49.377  1.00  0.00     0.037 A 
HETATM   14  C12 UNL     1      26.082   6.834  48.748  1.00  0.00     0.012 A 
HETATM   15  C13 UNL     1      27.354   6.693  48.236  1.00  0.00    -0.024 A 
HETATM   16  C15 UNL     1      28.021   5.492  48.345  1.00  0.00     0.012 A 
HETATM   17  C16 UNL     1      27.377   4.433  48.985  1.00  0.00     0.037 A 
BRANCH  15  18
HETATM   18  C14 UNL     1      27.861   7.901  47.608  1.00  0.00     0.429 C 
HETATM   19  O3  UNL     1      27.288   9.007  47.395  1.00  0.00    -0.426 OA
ENDBRANCH  15  18
ENDBRANCH  11  12
ENDBRANCH  10  11
ENDBRANCH   7  10
BRANCH   1  20
HETATM   20  C3  UNL     1      23.547  -0.298  53.045  1.00  0.00     0.126 C 
BRANCH  20  21
HETATM   21  C2  UNL     1      22.342   0.143  53.797  1.00  0.00     0.015 C 
HETATM   22  C1  UNL     1      21.851  -0.835  54.835  1.00  0.00     0.006 C 
ENDBRANCH  20  21
ENDBRANCH   1  20
TORSDOF 6
ENDMDL
MODEL 9
REMARK VINA RESULT:      -6.9      3.521      5.279
REMARK  6 active torsions:
REMARK  status: ('A' for Active; 'I' for Inactive)
REMARK    1  A    between atoms: C2_2  and  C3_3 
REMARK    2  A    between atoms: C3_3  and  N1_4 
REMARK    3  A    between atoms: C8_10  and  C9_11 
REMARK    4  A    between atoms: C9_11  and  O2_12 
REMARK    5  A    between atoms: O2_12  and  C10_13 
REMARK    6  A    between atoms: C13_16  and  C14_17 
ROOT
HETATM    1  N1  UNL     1      22.985   1.453  52.479  1.00  0.00    -0.340 N 
HETATM    2  C4  UNL     1      21.813   1.006  53.203  1.00  0.00     0.243 C 
HETATM    3  O1  UNL     1      21.879   0.174  54.136  1.00  0.00    -0.268 OA
HETATM    4  C5  UNL     1      20.458   1.518  52.877  1.00  0.00     0.074 C 
HETATM    5  C6  UNL     1      20.151   2.724  52.360  1.00  0.00     0.006 C 
HETATM    6  C7  UNL     1      21.129   3.780  52.016  1.00  0.00     0.007 C 
HETATM    7  C8  UNL     1      22.403   3.682  51.588  1.00  0.00    -0.034 C 
HETATM    8  C17 UNL     1      23.096   2.387  51.378  1.00  0.00     0.114 C 
HETATM    9  C18 UNL     1      22.659   1.744  50.073  1.00  0.00     0.037 C 
ENDROOT
BRANCH   7  10
HETATM   10  C9  UNL     1      23.103   4.965  51.339  1.00  0.00     0.212 C 
BRANCH  10  11
HETATM   11  O2  UNL     1      23.632   5.173  50.094  1.00  0.00    -0.347 OA
BRANCH  11  12
HETATM   12  C10 UNL     1      24.907   5.198  49.629  1.00  0.00     0.069 A 
HETATM   13  C11 UNL     1      25.868   4.202  49.598  1.00  0.00     0.037 A 
HETATM   14  C12 UNL     1      27.123   4.433  49.076  1.00  0.00     0.012 A 
HETATM   15  C13 UNL     1      27.445   5.675  48.570  1.00  0.00    -0.024 A 
HETATM   16  C15 UNL     1      26.518   6.694  48.583  1.00  0.00     0.012 A 
HETATM   17  C16 UNL     1      25.255   6.435  49.117  1.00  0.00     0.037 A 
BRANCH  15  18
HETATM   18  C14 UNL     1      28.801   5.756  48.057  1.00  0.00     0.429 C 
HETATM   19  O3  UNL     1      29.743   4.914  48.114  1.00  0.00    -0.426 OA
ENDBRANCH  15  18
ENDBRANCH  11  12
ENDBRANCH  10  11
ENDBRANCH   7  10
BRANCH   1  20
HETATM   20  C3  UNL     1      24.212   0.839  52.955  1.00  0.00     0.126 C 
BRANCH  20  21
HETATM   21  C2  UNL     1      25.459   1.573  52.614  1.00  0.00     0.015 C 
HETATM   22  C1  UNL     1      26.472   0.771  51.836  1.00  0.00     0.006 C 
ENDBRANCH  20  21
ENDBRANCH   1  20
TORSDOF 6
ENDMDL
