MODEL 1
REMARK VINA RESULT:      -8.0      0.000      0.000
REMARK  5 active torsions:
REMARK  status: ('A' for Active; 'I' for Inactive)
REMARK    1  A    between atoms: C2_2  and  N1_3 
REMARK    2  A    between atoms: N1_3  and  O1_4 
REMARK    3  A    between atoms: N1_3  and  C3_5 
REMARK    4  A    between atoms: C4_6  and  C5_7 
REMARK    5  A    between atoms: C5_7  and  C7_9 
ROOT
HETATM    1  C3  UNL     1      24.823   2.309  51.770  1.00  0.00     0.081 C 
HETATM    2  C4  UNL     1      23.807   1.612  52.279  1.00  0.00     0.119 C 
HETATM    3  N2  UNL     1      23.743   0.360  52.704  1.00  0.00    -0.401 NA
HETATM    4  C14 UNL     1      23.988  -0.657  53.297  1.00  0.00     0.300 C 
HETATM    5  N3  UNL     1      25.044  -0.783  54.223  1.00  0.00    -0.227 NA
HETATM    6  C15 UNL     1      26.227  -0.563  53.763  1.00  0.00     0.081 C 
HETATM    7  C16 UNL     1      26.476  -0.201  52.307  1.00  0.00     0.102 C 
HETATM    8  C17 UNL     1      26.897   1.208  52.339  1.00  0.00    -0.055 C 
HETATM    9  C18 UNL     1      27.936   1.361  53.208  1.00  0.00    -0.016 C 
HETATM   10  C19 UNL     1      28.735   2.584  53.527  1.00  0.00     0.056 C 
HETATM   11  S1  UNL     1      28.032  -0.347  53.886  1.00  0.00    -0.079 SA
HETATM   12  C20 UNL     1      26.274   2.333  51.544  1.00  0.00     0.098 C 
ENDROOT
BRANCH   2  13
HETATM   13  C5  UNL     1      22.416   1.985  52.478  1.00  0.00     0.081 C 
HETATM   14  C6  UNL     1      21.559   1.008  53.251  1.00  0.00     0.023 C 
BRANCH  13  15
HETATM   15  C7  UNL     1      21.755   2.263  51.141  1.00  0.00    -0.042 A 
HETATM   16  C8  UNL     1      21.942   1.082  50.372  1.00  0.00     0.008 A 
HETATM   17  C9  UNL     1      21.427   0.981  49.084  1.00  0.00     0.001 A 
HETATM   18  C10 UNL     1      20.726   2.012  48.512  1.00  0.00     0.001 A 
HETATM   19  C11 UNL     1      20.596   3.069  49.275  1.00  0.00     0.007 A 
HETATM   20  C12 UNL     1      21.041   3.359  50.596  1.00  0.00    -0.055 A 
HETATM   21  C13 UNL     1      21.076   4.350  51.660  1.00  0.00     0.049 C 
ENDBRANCH  13  15
ENDBRANCH   2  13
BRANCH   1  22
HETATM   22  N1  UNL     1      24.648   3.679  51.286  1.00  0.00    -0.238 N 
BRANCH  22  23
HETATM   23  C2  UNL     1      24.681   3.906  49.851  1.00  0.00     0.113 C 
HETATM   24  C1  UNL     1      24.041   4.593  48.893  1.00  0.00     0.032 C 
ENDBRANCH  22  23
BRANCH  22  25
HETATM   25  O1  UNL     1      24.463   5.003  51.611  1.00  0.00    -0.283 OA
HETATM   26  H4  UNL     1      24.443   5.097  52.601  1.00  0.00     0.245 HD
ENDBRANCH  22  25
ENDBRANCH   1  22
TORSDOF 5
ENDMDL
MODEL 2
REMARK VINA RESULT:      -7.0      2.022      4.361
REMARK  5 active torsions:
REMARK  status: ('A' for Active; 'I' for Inactive)
REMARK    1  A    between atoms: C2_2  and  N1_3 
REMARK    2  A    between atoms: N1_3  and  O1_4 
REMARK    3  A    between atoms: N1_3  and  C3_5 
REMARK    4  A    between atoms: C4_6  and  C5_7 
REMARK    5  A    between atoms: C5_7  and  C7_9 
ROOT
HETATM    1  C3  UNL     1      23.356   2.845  51.415  1.00  0.00     0.081 C 
HETATM    2  C4  UNL     1      24.491   3.173  50.797  1.00  0.00     0.119 C 
HETATM    3  N2  UNL     1      25.753   2.994  51.155  1.00  0.00    -0.401 NA
HETATM    4  C14 UNL     1      26.772   2.469  51.519  1.00  0.00     0.300 C 
HETATM    5  N3  UNL     1      26.877   1.095  51.815  1.00  0.00    -0.227 NA
HETATM    6  C15 UNL     1      26.115   0.662  52.759  1.00  0.00     0.081 C 
HETATM    7  C16 UNL     1      25.167   1.576  53.519  1.00  0.00     0.102 C 
HETATM    8  C17 UNL     1      23.823   1.164  53.086  1.00  0.00    -0.055 C 
HETATM    9  C18 UNL     1      23.671  -0.179  53.261  1.00  0.00    -0.016 C 
HETATM   10  C19 UNL     1      22.470  -1.037  53.029  1.00  0.00     0.056 C 
HETATM   11  S1  UNL     1      25.369  -0.616  53.823  1.00  0.00    -0.079 SA
HETATM   12  C20 UNL     1      22.761   2.077  52.517  1.00  0.00     0.098 C 
ENDROOT
BRANCH   2  13
HETATM   13  C5  UNL     1      24.713   3.889  49.552  1.00  0.00     0.081 C 
HETATM   14  C6  UNL     1      26.152   4.091  49.137  1.00  0.00     0.023 C 
BRANCH  13  15
HETATM   15  C7  UNL     1      24.023   5.240  49.600  1.00  0.00    -0.042 A 
HETATM   16  C8  UNL     1      24.555   5.897  50.743  1.00  0.00     0.008 A 
HETATM   17  C9  UNL     1      24.156   7.189  51.072  1.00  0.00     0.001 A 
HETATM   18  C10 UNL     1      23.240   7.870  50.310  1.00  0.00     0.001 A 
HETATM   19  C11 UNL     1      22.791   7.203  49.276  1.00  0.00     0.007 A 
HETATM   20  C12 UNL     1      23.073   5.897  48.780  1.00  0.00    -0.055 A 
HETATM   21  C13 UNL     1      22.776   4.916  47.749  1.00  0.00     0.049 C 
ENDBRANCH  13  15
ENDBRANCH   2  13
BRANCH   1  22
HETATM   22  N1  UNL     1      22.050   3.213  50.865  1.00  0.00    -0.238 N 
BRANCH  22  23
HETATM   23  C2  UNL     1      21.430   2.306  49.914  1.00  0.00     0.113 C 
HETATM   24  C1  UNL     1      21.754   1.404  48.976  1.00  0.00     0.032 C 
ENDBRANCH  22  23
BRANCH  22  25
HETATM   25  O1  UNL     1      21.036   4.142  50.822  1.00  0.00    -0.283 OA
HETATM   26  H4  UNL     1      20.310   3.806  50.231  1.00  0.00     0.245 HD
ENDBRANCH  22  25
ENDBRANCH   1  22
TORSDOF 5
ENDMDL
MODEL 3
REMARK VINA RESULT:      -7.0      3.255      6.380
REMARK  5 active torsions:
REMARK  status: ('A' for Active; 'I' for Inactive)
REMARK    1  A    between atoms: C2_2  and  N1_3 
REMARK    2  A    between atoms: N1_3  and  O1_4 
REMARK    3  A    between atoms: N1_3  and  C3_5 
REMARK    4  A    between atoms: C4_6  and  C5_7 
REMARK    5  A    between atoms: C5_7  and  C7_9 
ROOT
HETATM    1  C3  UNL     1      22.064   0.955  52.151  1.00  0.00     0.081 C 
HETATM    2  C4  UNL     1      22.240   2.276  52.165  1.00  0.00     0.119 C 
HETATM    3  N2  UNL     1      21.529   3.250  51.618  1.00  0.00    -0.401 NA
HETATM    4  C14 UNL     1      20.602   3.952  51.312  1.00  0.00     0.300 C 
HETATM    5  N3  UNL     1      19.282   3.735  51.757  1.00  0.00    -0.227 NA
HETATM    6  C15 UNL     1      18.756   2.606  51.431  1.00  0.00     0.081 C 
HETATM    7  C16 UNL     1      19.504   1.571  50.605  1.00  0.00     0.102 C 
HETATM    8  C17 UNL     1      19.776   0.471  51.543  1.00  0.00    -0.055 C 
HETATM    9  C18 UNL     1      18.617   0.074  52.141  1.00  0.00    -0.016 C 
HETATM   10  C19 UNL     1      18.380  -1.040  53.108  1.00  0.00     0.056 C 
HETATM   11  S1  UNL     1      17.460   1.324  51.441  1.00  0.00    -0.079 SA
HETATM   12  C20 UNL     1      21.133  -0.133  51.825  1.00  0.00     0.098 C 
ENDROOT
BRANCH   2  13
HETATM   13  C5  UNL     1      23.309   3.077  52.738  1.00  0.00     0.081 C 
HETATM   14  C6  UNL     1      23.010   4.543  52.958  1.00  0.00     0.023 C 
BRANCH  13  15
HETATM   15  C7  UNL     1      24.562   2.956  51.890  1.00  0.00    -0.042 A 
HETATM   16  C8  UNL     1      24.178   3.367  50.585  1.00  0.00     0.008 A 
HETATM   17  C9  UNL     1      25.105   3.406  49.548  1.00  0.00     0.001 A 
HETATM   18  C10 UNL     1      26.415   3.050  49.748  1.00  0.00     0.001 A 
HETATM   19  C11 UNL     1      26.696   2.679  50.973  1.00  0.00     0.007 A 
HETATM   20  C12 UNL     1      25.901   2.575  52.150  1.00  0.00    -0.055 A 
HETATM   21  C13 UNL     1      25.888   2.222  53.561  1.00  0.00     0.049 C 
ENDBRANCH  13  15
ENDBRANCH   2  13
BRANCH   1  22
HETATM   22  N1  UNL     1      23.031   0.045  52.768  1.00  0.00    -0.238 N 
BRANCH  22  23
HETATM   23  C2  UNL     1      22.544  -0.897  53.762  1.00  0.00     0.113 C 
HETATM   24  C1  UNL     1      22.615  -1.146  55.078  1.00  0.00     0.032 C 
ENDBRANCH  22  23
BRANCH  22  25
HETATM   25  O1  UNL     1      24.344  -0.356  52.856  1.00  0.00    -0.283 OA
HETATM   26  H4  UNL     1      24.377  -1.344  52.971  1.00  0.00     0.245 HD
ENDBRANCH  22  25
ENDBRANCH   1  22
TORSDOF 5
ENDMDL
MODEL 4
REMARK VINA RESULT:      -7.0      2.567      5.076
REMARK  5 active torsions:
REMARK  status: ('A' for Active; 'I' for Inactive)
REMARK    1  A    between atoms: C2_2  and  N1_3 
REMARK    2  A    between atoms: N1_3  and  O1_4 
REMARK    3  A    between atoms: N1_3  and  C3_5 
REMARK    4  A    between atoms: C4_6  and  C5_7 
REMARK    5  A    between atoms: C5_7  and  C7_9 
ROOT
HETATM    1  C3  UNL     1      24.195   1.339  52.848  1.00  0.00     0.081 C 
HETATM    2  C4  UNL     1      23.682   2.519  52.498  1.00  0.00     0.119 C 
HETATM    3  N2  UNL     1      22.513   2.827  51.958  1.00  0.00    -0.401 NA
HETATM    4  C14 UNL     1      21.328   2.900  51.768  1.00  0.00     0.300 C 
HETATM    5  N3  UNL     1      20.367   2.294  52.603  1.00  0.00    -0.227 NA
HETATM    6  C15 UNL     1      20.445   1.013  52.715  1.00  0.00     0.081 C 
HETATM    7  C16 UNL     1      21.499   0.198  51.982  1.00  0.00     0.102 C 
HETATM    8  C17 UNL     1      22.407  -0.275  53.039  1.00  0.00    -0.055 C 
HETATM    9  C18 UNL     1      21.695  -0.906  54.014  1.00  0.00    -0.016 C 
HETATM   10  C19 UNL     1      22.179  -1.603  55.244  1.00  0.00     0.056 C 
HETATM   11  S1  UNL     1      19.986  -0.616  53.392  1.00  0.00    -0.079 SA
HETATM   12  C20 UNL     1      23.907  -0.085  53.063  1.00  0.00     0.098 C 
ENDROOT
BRANCH   2  13
HETATM   13  C5  UNL     1      24.265   3.850  52.541  1.00  0.00     0.081 C 
HETATM   14  C6  UNL     1      23.502   4.895  53.322  1.00  0.00     0.023 C 
BRANCH  13  15
HETATM   15  C7  UNL     1      24.494   4.363  51.131  1.00  0.00    -0.042 A 
HETATM   16  C8  UNL     1      23.475   5.330  50.909  1.00  0.00     0.008 A 
HETATM   17  C9  UNL     1      23.407   6.030  49.709  1.00  0.00     0.001 A 
HETATM   18  C10 UNL     1      24.314   5.812  48.702  1.00  0.00     0.001 A 
HETATM   19  C11 UNL     1      25.220   4.907  48.974  1.00  0.00     0.007 A 
HETATM   20  C12 UNL     1      25.453   4.097  50.123  1.00  0.00    -0.055 A 
HETATM   21  C13 UNL     1      26.293   3.069  50.716  1.00  0.00     0.049 C 
ENDBRANCH  13  15
ENDBRANCH   2  13
BRANCH   1  22
HETATM   22  N1  UNL     1      25.559   1.220  53.365  1.00  0.00    -0.238 N 
BRANCH  22  23
HETATM   23  C2  UNL     1      26.371   0.108  52.898  1.00  0.00     0.113 C 
HETATM   24  C1  UNL     1      27.604  -0.404  53.029  1.00  0.00     0.032 C 
ENDBRANCH  22  23
BRANCH  22  25
HETATM   25  O1  UNL     1      26.526   1.730  54.201  1.00  0.00    -0.283 OA
HETATM   26  H4  UNL     1      26.094   2.314  54.880  1.00  0.00     0.245 HD
ENDBRANCH  22  25
ENDBRANCH   1  22
TORSDOF 5
ENDMDL
MODEL 5
REMARK VINA RESULT:      -6.9      3.117      6.669
REMARK  5 active torsions:
REMARK  status: ('A' for Active; 'I' for Inactive)
REMARK    1  A    between atoms: C2_2  and  N1_3 
REMARK    2  A    between atoms: N1_3  and  O1_4 
REMARK    3  A    between atoms: N1_3  and  C3_5 
REMARK    4  A    between atoms: C4_6  and  C5_7 
REMARK    5  A    between atoms: C5_7  and  C7_9 
ROOT
HETATM    1  C3  UNL     1      21.196   1.100  51.603  1.00  0.00     0.081 C 
HETATM    2  C4  UNL     1      22.419   1.630  51.636  1.00  0.00     0.119 C 
HETATM    3  N2  UNL     1      23.210   2.040  50.657  1.00  0.00    -0.401 NA
HETATM    4  C14 UNL     1      23.611   2.611  49.677  1.00  0.00     0.300 C 
HETATM    5  N3  UNL     1      22.823   3.503  48.920  1.00  0.00    -0.227 NA
HETATM    6  C15 UNL     1      21.751   3.010  48.405  1.00  0.00     0.081 C 
HETATM    7  C16 UNL     1      21.359   1.552  48.588  1.00  0.00     0.102 C 
HETATM    8  C17 UNL     1      20.179   1.591  49.467  1.00  0.00    -0.055 C 
HETATM    9  C18 UNL     1      19.240   2.430  48.946  1.00  0.00    -0.016 C 
HETATM   10  C19 UNL     1      17.865   2.740  49.441  1.00  0.00     0.056 C 
HETATM   11  S1  UNL     1      20.171   3.081  47.498  1.00  0.00    -0.079 SA
HETATM   12  C20 UNL     1      20.021   0.831  50.764  1.00  0.00     0.098 C 
ENDROOT
BRANCH   2  13
HETATM   13  C5  UNL     1      23.309   1.877  52.758  1.00  0.00     0.081 C 
HETATM   14  C6  UNL     1      23.900   3.265  52.858  1.00  0.00     0.023 C 
BRANCH  13  15
HETATM   15  C7  UNL     1      24.439   0.864  52.758  1.00  0.00    -0.042 A 
HETATM   16  C8  UNL     1      25.499   1.477  52.036  1.00  0.00     0.008 A 
HETATM   17  C9  UNL     1      26.717   0.826  51.868  1.00  0.00     0.001 A 
HETATM   18  C10 UNL     1      26.936  -0.425  52.388  1.00  0.00     0.001 A 
HETATM   19  C11 UNL     1      25.916  -0.930  53.036  1.00  0.00     0.007 A 
HETATM   20  C12 UNL     1      24.612  -0.428  53.313  1.00  0.00    -0.055 A 
HETATM   21  C13 UNL     1      23.331  -0.701  53.946  1.00  0.00     0.049 C 
ENDBRANCH  13  15
ENDBRANCH   2  13
BRANCH   1  22
HETATM   22  N1  UNL     1      20.527   0.640  52.821  1.00  0.00    -0.238 N 
BRANCH  22  23
HETATM   23  C2  UNL     1      19.408  -0.277  52.681  1.00  0.00     0.113 C 
HETATM   24  C1  UNL     1      18.686  -1.151  53.397  1.00  0.00     0.032 C 
ENDBRANCH  22  23
BRANCH  22  25
HETATM   25  O1  UNL     1      20.457   0.704  54.194  1.00  0.00    -0.283 OA
HETATM   26  H4  UNL     1      20.928   1.522  54.508  1.00  0.00     0.245 HD
ENDBRANCH  22  25
ENDBRANCH   1  22
TORSDOF 5
ENDMDL
MODEL 6
REMARK VINA RESULT:      -6.7      3.504      5.804
REMARK  5 active torsions:
REMARK  status: ('A' for Active; 'I' for Inactive)
REMARK    1  A    between atoms: C2_2  and  N1_3 
REMARK    2  A    between atoms: N1_3  and  O1_4 
REMARK    3  A    between atoms: N1_3  and  C3_5 
REMARK    4  A    between atoms: C4_6  and  C5_7 
REMARK    5  A    between atoms: C5_7  and  C7_9 
ROOT
HETATM    1  C3  UNL     1      24.267   4.853  50.492  1.00  0.00     0.081 C 
HETATM    2  C4  UNL     1      23.295   3.944  50.406  1.00  0.00     0.119 C 
HETATM    3  N2  UNL     1      21.994   4.045  50.628  1.00  0.00    -0.401 NA
HETATM    4  C14 UNL     1      20.855   4.429  50.581  1.00  0.00     0.300 C 
HETATM    5  N3  UNL     1      20.434   5.519  49.792  1.00  0.00    -0.227 NA
HETATM    6  C15 UNL     1      20.986   6.653  50.055  1.00  0.00     0.081 C 
HETATM    7  C16 UNL     1      22.022   6.813  51.158  1.00  0.00     0.102 C 
HETATM    8  C17 UNL     1      23.287   7.062  50.448  1.00  0.00    -0.055 C 
HETATM    9  C18 UNL     1      23.133   8.099  49.578  1.00  0.00    -0.016 C 
HETATM   10  C19 UNL     1      24.145   8.754  48.693  1.00  0.00     0.056 C 
HETATM   11  S1  UNL     1      21.333   8.422  49.788  1.00  0.00    -0.079 SA
HETATM   12  C20 UNL     1      24.569   6.283  50.633  1.00  0.00     0.098 C 
ENDROOT
BRANCH   2  13
HETATM   13  C5  UNL     1      23.358   2.525  50.098  1.00  0.00     0.081 C 
HETATM   14  C6  UNL     1      22.666   2.079  48.830  1.00  0.00     0.023 C 
BRANCH  13  15
HETATM   15  C7  UNL     1      22.817   1.716  51.262  1.00  0.00    -0.042 A 
HETATM   16  C8  UNL     1      21.640   1.088  50.772  1.00  0.00     0.008 A 
HETATM   17  C9  UNL     1      20.898   0.234  51.583  1.00  0.00     0.001 A 
HETATM   18  C10 UNL     1      21.273  -0.029  52.876  1.00  0.00     0.001 A 
HETATM   19  C11 UNL     1      22.364   0.586  53.260  1.00  0.00     0.007 A 
HETATM   20  C12 UNL     1      23.248   1.481  52.591  1.00  0.00    -0.055 A 
HETATM   21  C13 UNL     1      24.451   2.289  52.707  1.00  0.00     0.049 C 
ENDBRANCH  13  15
ENDBRANCH   2  13
BRANCH   1  22
HETATM   22  N1  UNL     1      25.670   4.500  50.273  1.00  0.00    -0.238 N 
BRANCH  22  23
HETATM   23  C2  UNL     1      26.350   5.080  49.127  1.00  0.00     0.113 C 
HETATM   24  C1  UNL     1      27.572   5.171  48.581  1.00  0.00     0.032 C 
ENDBRANCH  22  23
BRANCH  22  25
HETATM   25  O1  UNL     1      26.756   3.770  50.699  1.00  0.00    -0.283 OA
HETATM   26  H4  UNL     1      26.649   2.825  50.408  1.00  0.00     0.245 HD
ENDBRANCH  22  25
ENDBRANCH   1  22
TORSDOF 5
ENDMDL
MODEL 7
REMARK VINA RESULT:      -6.7      7.391     10.409
REMARK  5 active torsions:
REMARK  status: ('A' for Active; 'I' for Inactive)
REMARK    1  A    between atoms: C2_2  and  N1_3 
REMARK    2  A    between atoms: N1_3  and  O1_4 
REMARK    3  A    between atoms: N1_3  and  C3_5 
REMARK    4  A    between atoms: C4_6  and  C5_7 
REMARK    5  A    between atoms: C5_7  and  C7_9 
ROOT
HETATM    1  C3  UNL     1      29.811   6.389  48.394  1.00  0.00     0.081 C 
HETATM    2  C4  UNL     1      29.910   7.681  48.708  1.00  0.00     0.119 C 
HETATM    3  N2  UNL     1      29.003   8.645  48.704  1.00  0.00    -0.401 NA
HETATM    4  C14 UNL     1      27.991   9.260  48.916  1.00  0.00     0.300 C 
HETATM    5  N3  UNL     1      26.922   8.758  49.686  1.00  0.00    -0.227 NA
HETATM    6  C15 UNL     1      26.376   7.675  49.254  1.00  0.00     0.081 C 
HETATM    7  C16 UNL     1      26.844   6.982  47.984  1.00  0.00     0.102 C 
HETATM    8  C17 UNL     1      27.484   5.741  48.449  1.00  0.00    -0.055 C 
HETATM    9  C18 UNL     1      26.628   5.054  49.257  1.00  0.00    -0.016 C 
HETATM   10  C19 UNL     1      26.803   3.720  49.909  1.00  0.00     0.056 C 
HETATM   11  S1  UNL     1      25.235   6.255  49.334  1.00  0.00    -0.079 SA
HETATM   12  C20 UNL     1      28.884   5.288  48.103  1.00  0.00     0.098 C 
ENDROOT
BRANCH   2  13
HETATM   13  C5  UNL     1      31.068   8.468  49.100  1.00  0.00     0.081 C 
HETATM   14  C6  UNL     1      30.787   9.801  49.755  1.00  0.00     0.023 C 
BRANCH  13  15
HETATM   15  C7  UNL     1      31.973   8.693  47.903  1.00  0.00    -0.042 A 
HETATM   16  C8  UNL     1      31.175   9.376  46.946  1.00  0.00     0.008 A 
HETATM   17  C9  UNL     1      31.709   9.770  45.723  1.00  0.00     0.001 A 
HETATM   18  C10 UNL     1      33.017   9.512  45.399  1.00  0.00     0.001 A 
HETATM   19  C11 UNL     1      33.691   8.877  46.325  1.00  0.00     0.007 A 
HETATM   20  C12 UNL     1      33.330   8.399  47.617  1.00  0.00    -0.055 A 
HETATM   21  C13 UNL     1      33.786   7.705  48.810  1.00  0.00     0.049 C 
ENDBRANCH  13  15
ENDBRANCH   2  13
BRANCH   1  22
HETATM   22  N1  UNL     1      30.979   5.507  48.396  1.00  0.00    -0.238 N 
BRANCH  22  23
HETATM   23  C2  UNL     1      31.479   5.035  47.115  1.00  0.00     0.113 C 
HETATM   24  C1  UNL     1      32.586   5.065  46.358  1.00  0.00     0.032 C 
ENDBRANCH  22  23
BRANCH  22  25
HETATM   25  O1  UNL     1      31.914   4.830  49.145  1.00  0.00    -0.283 OA
HETATM   26  H4  UNL     1      32.608   4.454  48.540  1.00  0.00     0.245 HD
ENDBRANCH  22  25
ENDBRANCH   1  22
TORSDOF 5
ENDMDL
MODEL 8
REMARK VINA RESULT:      -6.5      2.174      3.819
REMARK  5 active torsions:
REMARK  status: ('A' for Active; 'I' for Inactive)
REMARK    1  A    between atoms: C2_2  and  N1_3 
REMARK    2  A    between atoms: N1_3  and  O1_4 
REMARK    3  A    between atoms: N1_3  and  C3_5 
REMARK    4  A    between atoms: C4_6  and  C5_7 
REMARK    5  A    between atoms: C5_7  and  C7_9 
ROOT
HETATM    1  C3  UNL     1      24.272   1.883  52.307  1.00  0.00     0.081 C 
HETATM    2  C4  UNL     1      23.182   2.645  52.212  1.00  0.00     0.119 C 
HETATM    3  N2  UNL     1      21.897   2.325  52.242  1.00  0.00    -0.401 NA
HETATM    4  C14 UNL     1      20.845   1.862  52.595  1.00  0.00     0.300 C 
HETATM    5  N3  UNL     1      20.685   1.106  53.774  1.00  0.00    -0.227 NA
HETATM    6  C15 UNL     1      21.381   0.025  53.850  1.00  0.00     0.081 C 
HETATM    7  C16 UNL     1      22.313  -0.419  52.733  1.00  0.00     0.102 C 
HETATM    8  C17 UNL     1      23.666  -0.243  53.283  1.00  0.00    -0.055 C 
HETATM    9  C18 UNL     1      23.769  -0.890  54.478  1.00  0.00    -0.016 C 
HETATM   10  C19 UNL     1      24.956  -1.050  55.372  1.00  0.00     0.056 C 
HETATM   11  S1  UNL     1      22.031  -1.466  54.673  1.00  0.00    -0.079 SA
HETATM   12  C20 UNL     1      24.783   0.547  52.639  1.00  0.00     0.098 C 
ENDROOT
BRANCH   2  13
HETATM   13  C5  UNL     1      23.048   4.074  51.982  1.00  0.00     0.081 C 
HETATM   14  C6  UNL     1      21.811   4.735  52.544  1.00  0.00     0.023 C 
BRANCH  13  15
HETATM   15  C7  UNL     1      23.129   4.371  50.496  1.00  0.00    -0.042 A 
HETATM   16  C8  UNL     1      22.248   3.445  49.875  1.00  0.00     0.008 A 
HETATM   17  C9  UNL     1      22.054   3.458  48.497  1.00  0.00     0.001 A 
HETATM   18  C10 UNL     1      22.705   4.360  47.693  1.00  0.00     0.001 A 
HETATM   19  C11 UNL     1      23.502   5.180  48.332  1.00  0.00     0.007 A 
HETATM   20  C12 UNL     1      23.828   5.322  49.712  1.00  0.00    -0.055 A 
HETATM   21  C13 UNL     1      24.612   6.059  50.689  1.00  0.00     0.049 C 
ENDBRANCH  13  15
ENDBRANCH   2  13
BRANCH   1  22
HETATM   22  N1  UNL     1      25.616   2.447  52.169  1.00  0.00    -0.238 N 
BRANCH  22  23
HETATM   23  C2  UNL     1      26.605   2.107  53.177  1.00  0.00     0.113 C 
HETATM   24  C1  UNL     1      27.920   2.215  53.419  1.00  0.00     0.032 C 
ENDBRANCH  22  23
BRANCH  22  25
HETATM   25  O1  UNL     1      26.458   3.259  51.444  1.00  0.00    -0.283 OA
HETATM   26  H4  UNL     1      26.363   4.196  51.765  1.00  0.00     0.245 HD
ENDBRANCH  22  25
ENDBRANCH   1  22
TORSDOF 5
ENDMDL
MODEL 9
REMARK VINA RESULT:      -6.3      2.080      4.130
REMARK  5 active torsions:
REMARK  status: ('A' for Active; 'I' for Inactive)
REMARK    1  A    between atoms: C2_2  and  N1_3 
REMARK    2  A    between atoms: N1_3  and  O1_4 
REMARK    3  A    between atoms: N1_3  and  C3_5 
REMARK    4  A    between atoms: C4_6  and  C5_7 
REMARK    5  A    between atoms: C5_7  and  C7_9 
ROOT
HETATM    1  C3  UNL     1      23.366   1.419  51.951  1.00  0.00     0.081 C 
HETATM    2  C4  UNL     1      23.555   2.417  51.087  1.00  0.00     0.119 C 
HETATM    3  N2  UNL     1      24.542   3.293  50.981  1.00  0.00    -0.401 NA
HETATM    4  C14 UNL     1      25.645   3.763  50.885  1.00  0.00     0.300 C 
HETATM    5  N3  UNL     1      26.820   2.986  50.840  1.00  0.00    -0.227 NA
HETATM    6  C15 UNL     1      27.042   2.238  51.864  1.00  0.00     0.081 C 
HETATM    7  C16 UNL     1      26.101   2.200  53.059  1.00  0.00     0.102 C 
HETATM    8  C17 UNL     1      25.473   0.872  52.998  1.00  0.00    -0.055 C 
HETATM    9  C18 UNL     1      26.434  -0.092  52.929  1.00  0.00    -0.016 C 
HETATM   10  C19 UNL     1      26.288  -1.580  52.916  1.00  0.00     0.056 C 
HETATM   11  S1  UNL     1      27.935   0.968  52.819  1.00  0.00    -0.079 SA
HETATM   12  C20 UNL     1      23.986   0.598  52.998  1.00  0.00     0.098 C 
ENDROOT
BRANCH   2  13
HETATM   13  C5  UNL     1      22.706   2.908  50.014  1.00  0.00     0.081 C 
HETATM   14  C6  UNL     1      23.242   2.758  48.609  1.00  0.00     0.023 C 
BRANCH  13  15
HETATM   15  C7  UNL     1      22.358   4.366  50.252  1.00  0.00    -0.042 A 
HETATM   16  C8  UNL     1      23.018   5.087  49.221  1.00  0.00     0.008 A 
HETATM   17  C9  UNL     1      22.887   6.469  49.121  1.00  0.00     0.001 A 
HETATM   18  C10 UNL     1      22.121   7.179  50.010  1.00  0.00     0.001 A 
HETATM   19  C11 UNL     1      21.545   6.451  50.934  1.00  0.00     0.007 A 
HETATM   20  C12 UNL     1      21.557   5.051  51.198  1.00  0.00    -0.055 A 
HETATM   21  C13 UNL     1      21.076   3.991  52.069  1.00  0.00     0.049 C 
ENDBRANCH  13  15
ENDBRANCH   2  13
BRANCH   1  22
HETATM   22  N1  UNL     1      22.146   0.611  51.933  1.00  0.00    -0.238 N 
BRANCH  22  23
HETATM   23  C2  UNL     1      21.495   0.330  53.202  1.00  0.00     0.113 C 
HETATM   24  C1  UNL     1      20.855  -0.659  53.844  1.00  0.00     0.032 C 
ENDBRANCH  22  23
BRANCH  22  25
HETATM   25  O1  UNL     1      21.242  -0.100  51.176  1.00  0.00    -0.283 OA
HETATM   26  H4  UNL     1      20.990   0.439  50.379  1.00  0.00     0.245 HD
ENDBRANCH  22  25
ENDBRANCH   1  22
TORSDOF 5
ENDMDL
