MODEL 1
REMARK VINA RESULT:      -8.1      0.000      0.000
REMARK  10 active torsions:
REMARK  status: ('A' for Active; 'I' for Inactive)
REMARK    1  A    between atoms: C2_2  and  C3_3 
REMARK    2  A    between atoms: C3_3  and  C4_4 
REMARK    3  A    between atoms: C4_4  and  C5_5 
REMARK    4  A    between atoms: C5_5  and  C6_6 
REMARK    5  A    between atoms: C6_6  and  N1_7 
REMARK       I    between atoms: N1_7  and  C7_8 
REMARK    6  A    between atoms: C7_8  and  O2_10 
REMARK    7  A    between atoms: O2_10  and  C8_11 
REMARK    8  A    between atoms: C9_12  and  N2_13 
REMARK    9  A    between atoms: N2_13  and  C10_14 
REMARK   10  A    between atoms: C10_14  and  C11_15 
ROOT
HETATM    1  C8  UNL     1      24.143   1.393  52.710  1.00  0.00     0.103 C 
HETATM    2  C9  UNL     1      23.202   1.573  51.789  1.00  0.00     0.043 C 
HETATM    3  C17 UNL     1      22.072   0.706  51.366  1.00  0.00     0.086 C 
HETATM    4  C18 UNL     1      21.412   0.016  52.503  1.00  0.00    -0.021 C 
HETATM    5  C19 UNL     1      21.865  -0.562  53.604  1.00  0.00    -0.004 C 
HETATM    6  C20 UNL     1      23.299  -0.641  53.956  1.00  0.00     0.003 C 
HETATM    7  C21 UNL     1      24.265   0.202  53.568  1.00  0.00     0.039 C 
ENDROOT
BRANCH   1   8
HETATM    8  O2  UNL     1      25.109   2.367  52.924  1.00  0.00    -0.260 OA
BRANCH   8   9
HETATM    9  C7  UNL     1      26.462   2.091  52.797  1.00  0.00     0.366 C 
HETATM   10  N1  UNL     1      27.278   2.463  53.899  1.00  0.00    -0.333 N 
HETATM   11  H8  UNL     1      26.867   2.924  54.763  1.00  0.00     0.165 HD
HETATM   12  O1  UNL     1      27.002   1.549  51.801  1.00  0.00    -0.238 OA
BRANCH  10  13
HETATM   13  C6  UNL     1      28.702   2.178  53.778  1.00  0.00     0.152 C 
BRANCH  13  14
HETATM   14  C5  UNL     1      29.017   0.851  54.365  1.00  0.00    -0.007 C 
BRANCH  14  15
HETATM   15  C4  UNL     1      29.829  -0.005  53.766  1.00  0.00     0.005 C 
BRANCH  15  16
HETATM   16  C3  UNL     1      29.404  -1.312  53.380  1.00  0.00     0.050 C 
BRANCH  16  17
HETATM   17  C2  UNL     1      28.173  -1.519  52.976  1.00  0.00    -0.155 C 
HETATM   18  C1  UNL     1      26.980  -1.976  52.625  1.00  0.00     0.096 C 
ENDBRANCH  16  17
ENDBRANCH  15  16
ENDBRANCH  14  15
ENDBRANCH  13  14
ENDBRANCH  10  13
ENDBRANCH   8   9
ENDBRANCH   1   8
BRANCH   2  19
HETATM   19  N2  UNL     1      23.302   2.829  51.081  1.00  0.00    -0.386 N 
HETATM   20  H9  UNL     1      23.208   3.704  51.662  1.00  0.00     0.159 HD
BRANCH  19  21
HETATM   21  C10 UNL     1      23.518   2.996  49.650  1.00  0.00     0.158 C 
BRANCH  21  22
HETATM   22  C11 UNL     1      24.605   3.962  49.345  1.00  0.00    -0.040 A 
HETATM   23  C12 UNL     1      25.947   3.572  49.389  1.00  0.00     0.012 A 
HETATM   24  C13 UNL     1      26.979   4.438  49.113  1.00  0.00     0.043 A 
HETATM   25  C14 UNL     1      26.686   5.743  48.780  1.00  0.00     0.116 A 
HETATM   26  F1  UNL     1      27.729   6.564  48.515  1.00  0.00    -0.206 F 
HETATM   27  C15 UNL     1      25.378   6.170  48.725  1.00  0.00     0.043 A 
HETATM   28  C16 UNL     1      24.351   5.294  49.002  1.00  0.00     0.012 A 
ENDBRANCH  21  22
ENDBRANCH  19  21
ENDBRANCH   2  19
TORSDOF 10
ENDMDL
MODEL 2
REMARK VINA RESULT:      -7.6      2.850      6.785
REMARK  10 active torsions:
REMARK  status: ('A' for Active; 'I' for Inactive)
REMARK    1  A    between atoms: C2_2  and  C3_3 
REMARK    2  A    between atoms: C3_3  and  C4_4 
REMARK    3  A    between atoms: C4_4  and  C5_5 
REMARK    4  A    between atoms: C5_5  and  C6_6 
REMARK    5  A    between atoms: C6_6  and  N1_7 
REMARK       I    between atoms: N1_7  and  C7_8 
REMARK    6  A    between atoms: C7_8  and  O2_10 
REMARK    7  A    between atoms: O2_10  and  C8_11 
REMARK    8  A    between atoms: C9_12  and  N2_13 
REMARK    9  A    between atoms: N2_13  and  C10_14 
REMARK   10  A    between atoms: C10_14  and  C11_15 
ROOT
HETATM    1  C8  UNL     1      25.336   5.302  49.771  1.00  0.00     0.103 C 
HETATM    2  C9  UNL     1      26.464   4.605  49.679  1.00  0.00     0.043 C 
HETATM    3  C17 UNL     1      27.571   4.667  48.689  1.00  0.00     0.086 C 
HETATM    4  C18 UNL     1      27.905   6.054  48.276  1.00  0.00    -0.021 C 
HETATM    5  C19 UNL     1      27.174   7.125  48.009  1.00  0.00    -0.004 C 
HETATM    6  C20 UNL     1      25.698   7.146  48.078  1.00  0.00     0.003 C 
HETATM    7  C21 UNL     1      24.921   6.362  48.836  1.00  0.00     0.039 C 
ENDROOT
BRANCH   1   8
HETATM    8  O2  UNL     1      24.444   5.055  50.807  1.00  0.00    -0.260 OA
BRANCH   8   9
HETATM    9  C7  UNL     1      23.310   4.278  50.621  1.00  0.00     0.366 C 
HETATM   10  N1  UNL     1      22.693   3.786  51.803  1.00  0.00    -0.333 N 
HETATM   11  H8  UNL     1      23.085   4.006  52.766  1.00  0.00     0.165 HD
HETATM   12  O1  UNL     1      22.804   3.987  49.509  1.00  0.00    -0.238 OA
BRANCH  10  13
HETATM   13  C6  UNL     1      21.502   2.968  51.621  1.00  0.00     0.152 C 
BRANCH  13  14
HETATM   14  C5  UNL     1      21.552   1.774  52.503  1.00  0.00    -0.007 C 
BRANCH  14  15
HETATM   15  C4  UNL     1      22.696   1.209  52.853  1.00  0.00     0.005 C 
BRANCH  15  16
HETATM   16  C3  UNL     1      22.846  -0.207  52.948  1.00  0.00     0.050 C 
BRANCH  16  17
HETATM   17  C2  UNL     1      22.766  -0.809  54.111  1.00  0.00    -0.155 C 
HETATM   18  C1  UNL     1      22.922  -1.317  55.325  1.00  0.00     0.096 C 
ENDBRANCH  16  17
ENDBRANCH  15  16
ENDBRANCH  14  15
ENDBRANCH  13  14
ENDBRANCH  10  13
ENDBRANCH   8   9
ENDBRANCH   1   8
BRANCH   2  19
HETATM   19  N2  UNL     1      26.637   3.621  50.723  1.00  0.00    -0.386 N 
HETATM   20  H9  UNL     1      26.893   3.990  51.677  1.00  0.00     0.159 HD
BRANCH  19  21
HETATM   21  C10 UNL     1      26.492   2.179  50.579  1.00  0.00     0.158 C 
BRANCH  21  22
HETATM   22  C11 UNL     1      26.424   1.477  51.887  1.00  0.00    -0.040 A 
HETATM   23  C12 UNL     1      26.183   2.183  53.070  1.00  0.00     0.012 A 
HETATM   24  C13 UNL     1      26.114   1.567  54.298  1.00  0.00     0.043 A 
HETATM   25  C14 UNL     1      26.288   0.202  54.372  1.00  0.00     0.116 A 
HETATM   26  F1  UNL     1      26.213  -0.366  55.599  1.00  0.00    -0.206 F 
HETATM   27  C15 UNL     1      26.528  -0.532  53.233  1.00  0.00     0.043 A 
HETATM   28  C16 UNL     1      26.595   0.094  52.006  1.00  0.00     0.012 A 
ENDBRANCH  21  22
ENDBRANCH  19  21
ENDBRANCH   2  19
TORSDOF 10
ENDMDL
MODEL 3
REMARK VINA RESULT:      -7.5      2.585      6.596
REMARK  10 active torsions:
REMARK  status: ('A' for Active; 'I' for Inactive)
REMARK    1  A    between atoms: C2_2  and  C3_3 
REMARK    2  A    between atoms: C3_3  and  C4_4 
REMARK    3  A    between atoms: C4_4  and  C5_5 
REMARK    4  A    between atoms: C5_5  and  C6_6 
REMARK    5  A    between atoms: C6_6  and  N1_7 
REMARK       I    between atoms: N1_7  and  C7_8 
REMARK    6  A    between atoms: C7_8  and  O2_10 
REMARK    7  A    between atoms: O2_10  and  C8_11 
REMARK    8  A    between atoms: C9_12  and  N2_13 
REMARK    9  A    between atoms: N2_13  and  C10_14 
REMARK   10  A    between atoms: C10_14  and  C11_15 
ROOT
HETATM    1  C8  UNL     1      24.253   3.840  51.263  1.00  0.00     0.103 C 
HETATM    2  C9  UNL     1      25.369   3.130  51.389  1.00  0.00     0.043 C 
HETATM    3  C17 UNL     1      26.457   2.844  50.417  1.00  0.00     0.086 C 
HETATM    4  C18 UNL     1      26.801   4.012  49.568  1.00  0.00    -0.021 C 
HETATM    5  C19 UNL     1      26.080   4.951  48.975  1.00  0.00    -0.004 C 
HETATM    6  C20 UNL     1      24.606   5.022  49.055  1.00  0.00     0.003 C 
HETATM    7  C21 UNL     1      23.833   4.544  50.039  1.00  0.00     0.039 C 
ENDROOT
BRANCH   1   8
HETATM    8  O2  UNL     1      23.378   3.962  52.336  1.00  0.00    -0.260 OA
BRANCH   8   9
HETATM    9  C7  UNL     1      22.075   3.494  52.269  1.00  0.00     0.366 C 
HETATM   10  N1  UNL     1      21.902   2.102  52.492  1.00  0.00    -0.333 N 
HETATM   11  H8  UNL     1      22.727   1.466  52.698  1.00  0.00     0.165 HD
HETATM   12  O1  UNL     1      21.062   4.199  52.031  1.00  0.00    -0.238 OA
BRANCH  10  13
HETATM   13  C6  UNL     1      20.537   1.598  52.424  1.00  0.00     0.152 C 
BRANCH  13  14
HETATM   14  C5  UNL     1      20.374   0.417  53.311  1.00  0.00    -0.007 C 
BRANCH  14  15
HETATM   15  C4  UNL     1      21.177   0.198  54.340  1.00  0.00     0.005 C 
BRANCH  15  16
HETATM   16  C3  UNL     1      21.662  -1.105  54.660  1.00  0.00     0.050 C 
BRANCH  16  17
HETATM   17  C2  UNL     1      22.847  -1.260  55.203  1.00  0.00    -0.155 C 
HETATM   18  C1  UNL     1      24.128  -1.294  55.539  1.00  0.00     0.096 C 
ENDBRANCH  16  17
ENDBRANCH  15  16
ENDBRANCH  14  15
ENDBRANCH  13  14
ENDBRANCH  10  13
ENDBRANCH   8   9
ENDBRANCH   1   8
BRANCH   2  19
HETATM   19  N2  UNL     1      25.550   2.539  52.694  1.00  0.00    -0.386 N 
HETATM   20  H9  UNL     1      25.793   3.200  53.479  1.00  0.00     0.159 HD
BRANCH  19  21
HETATM   21  C10 UNL     1      25.429   1.125  53.023  1.00  0.00     0.158 C 
BRANCH  21  22
HETATM   22  C11 UNL     1      26.745   0.475  53.252  1.00  0.00    -0.040 A 
HETATM   23  C12 UNL     1      27.786   1.161  53.886  1.00  0.00     0.012 A 
HETATM   24  C13 UNL     1      29.017   0.593  54.114  1.00  0.00     0.043 A 
HETATM   25  C14 UNL     1      29.241  -0.704  53.703  1.00  0.00     0.116 A 
HETATM   26  F1  UNL     1      30.466  -1.228  53.946  1.00  0.00    -0.206 F 
HETATM   27  C15 UNL     1      28.245  -1.417  53.075  1.00  0.00     0.043 A 
HETATM   28  C16 UNL     1      27.014  -0.838  52.851  1.00  0.00     0.012 A 
ENDBRANCH  21  22
ENDBRANCH  19  21
ENDBRANCH   2  19
TORSDOF 10
ENDMDL
MODEL 4
REMARK VINA RESULT:      -7.5      2.790      6.997
REMARK  10 active torsions:
REMARK  status: ('A' for Active; 'I' for Inactive)
REMARK    1  A    between atoms: C2_2  and  C3_3 
REMARK    2  A    between atoms: C3_3  and  C4_4 
REMARK    3  A    between atoms: C4_4  and  C5_5 
REMARK    4  A    between atoms: C5_5  and  C6_6 
REMARK    5  A    between atoms: C6_6  and  N1_7 
REMARK       I    between atoms: N1_7  and  C7_8 
REMARK    6  A    between atoms: C7_8  and  O2_10 
REMARK    7  A    between atoms: O2_10  and  C8_11 
REMARK    8  A    between atoms: C9_12  and  N2_13 
REMARK    9  A    between atoms: N2_13  and  C10_14 
REMARK   10  A    between atoms: C10_14  and  C11_15 
ROOT
HETATM    1  C8  UNL     1      26.301   1.486  53.319  1.00  0.00     0.103 C 
HETATM    2  C9  UNL     1      26.378   0.182  53.074  1.00  0.00     0.043 C 
HETATM    3  C17 UNL     1      27.551  -0.694  52.817  1.00  0.00     0.086 C 
HETATM    4  C18 UNL     1      28.723  -0.361  53.666  1.00  0.00    -0.021 C 
HETATM    5  C19 UNL     1      29.257   0.780  54.073  1.00  0.00    -0.004 C 
HETATM    6  C20 UNL     1      28.720   2.109  53.713  1.00  0.00     0.003 C 
HETATM    7  C21 UNL     1      27.453   2.401  53.392  1.00  0.00     0.039 C 
ENDROOT
BRANCH   1   8
HETATM    8  O2  UNL     1      25.065   2.086  53.530  1.00  0.00    -0.260 OA
BRANCH   8   9
HETATM    9  C7  UNL     1      24.520   2.971  52.614  1.00  0.00     0.366 C 
HETATM   10  N1  UNL     1      24.622   2.594  51.248  1.00  0.00    -0.333 N 
HETATM   11  H8  UNL     1      25.090   1.686  50.957  1.00  0.00     0.165 HD
HETATM   12  O1  UNL     1      23.955   4.056  52.901  1.00  0.00    -0.238 OA
BRANCH  10  13
HETATM   13  C6  UNL     1      24.053   3.517  50.275  1.00  0.00     0.152 C 
BRANCH  13  14
HETATM   14  C5  UNL     1      25.119   4.080  49.408  1.00  0.00    -0.007 C 
BRANCH  14  15
HETATM   15  C4  UNL     1      26.396   3.780  49.583  1.00  0.00     0.005 C 
BRANCH  15  16
HETATM   16  C3  UNL     1      27.437   4.452  48.874  1.00  0.00     0.050 C 
BRANCH  16  17
HETATM   17  C2  UNL     1      27.294   5.704  48.510  1.00  0.00    -0.155 C 
HETATM   18  C1  UNL     1      27.405   6.981  48.174  1.00  0.00     0.096 C 
ENDBRANCH  16  17
ENDBRANCH  15  16
ENDBRANCH  14  15
ENDBRANCH  13  14
ENDBRANCH  10  13
ENDBRANCH   8   9
ENDBRANCH   1   8
BRANCH   2  19
HETATM   19  N2  UNL     1      25.101  -0.493  53.055  1.00  0.00    -0.386 N 
HETATM   20  H9  UNL     1      24.734  -0.778  52.108  1.00  0.00     0.159 HD
BRANCH  19  21
HETATM   21  C10 UNL     1      24.281  -0.814  54.215  1.00  0.00     0.158 C 
BRANCH  21  22
HETATM   22  C11 UNL     1      22.826  -0.786  53.913  1.00  0.00    -0.040 A 
HETATM   23  C12 UNL     1      22.321   0.015  52.885  1.00  0.00     0.012 A 
HETATM   24  C13 UNL     1      20.981   0.067  52.577  1.00  0.00     0.043 A 
HETATM   25  C14 UNL     1      20.097  -0.698  53.308  1.00  0.00     0.116 A 
HETATM   26  F1  UNL     1      18.788  -0.619  52.974  1.00  0.00    -0.206 F 
HETATM   27  C15 UNL     1      20.551  -1.501  54.329  1.00  0.00     0.043 A 
HETATM   28  C16 UNL     1      21.896  -1.547  54.630  1.00  0.00     0.012 A 
ENDBRANCH  21  22
ENDBRANCH  19  21
ENDBRANCH   2  19
TORSDOF 10
ENDMDL
MODEL 5
REMARK VINA RESULT:      -7.5      2.405      5.823
REMARK  10 active torsions:
REMARK  status: ('A' for Active; 'I' for Inactive)
REMARK    1  A    between atoms: C2_2  and  C3_3 
REMARK    2  A    between atoms: C3_3  and  C4_4 
REMARK    3  A    between atoms: C4_4  and  C5_5 
REMARK    4  A    between atoms: C5_5  and  C6_6 
REMARK    5  A    between atoms: C6_6  and  N1_7 
REMARK       I    between atoms: N1_7  and  C7_8 
REMARK    6  A    between atoms: C7_8  and  O2_10 
REMARK    7  A    between atoms: O2_10  and  C8_11 
REMARK    8  A    between atoms: C9_12  and  N2_13 
REMARK    9  A    between atoms: N2_13  and  C10_14 
REMARK   10  A    between atoms: C10_14  and  C11_15 
ROOT
HETATM    1  C8  UNL     1      21.986   0.807  52.319  1.00  0.00     0.103 C 
HETATM    2  C9  UNL     1      22.462   0.194  53.397  1.00  0.00     0.043 C 
HETATM    3  C17 UNL     1      21.766  -0.431  54.552  1.00  0.00     0.086 C 
HETATM    4  C18 UNL     1      20.540  -1.172  54.160  1.00  0.00    -0.021 C 
HETATM    5  C19 UNL     1      19.570  -0.933  53.290  1.00  0.00    -0.004 C 
HETATM    6  C20 UNL     1      19.517   0.272  52.436  1.00  0.00     0.003 C 
HETATM    7  C21 UNL     1      20.557   1.009  52.025  1.00  0.00     0.039 C 
ENDROOT
BRANCH   1   8
HETATM    8  O2  UNL     1      22.856   1.317  51.363  1.00  0.00    -0.260 OA
BRANCH   8   9
HETATM    9  C7  UNL     1      23.048   2.681  51.206  1.00  0.00     0.366 C 
HETATM   10  N1  UNL     1      22.987   3.168  49.872  1.00  0.00    -0.333 N 
HETATM   11  H8  UNL     1      22.805   2.518  49.052  1.00  0.00     0.165 HD
HETATM   12  O1  UNL     1      23.265   3.495  52.138  1.00  0.00    -0.238 OA
BRANCH  10  13
HETATM   13  C6  UNL     1      23.187   4.599  49.695  1.00  0.00     0.152 C 
BRANCH  13  14
HETATM   14  C5  UNL     1      24.454   4.860  48.965  1.00  0.00    -0.007 C 
BRANCH  14  15
HETATM   15  C4  UNL     1      25.626   4.872  49.580  1.00  0.00     0.005 C 
BRANCH  15  16
HETATM   16  C3  UNL     1      26.501   3.744  49.567  1.00  0.00     0.050 C 
BRANCH  16  17
HETATM   17  C2  UNL     1      26.563   2.939  50.601  1.00  0.00    -0.155 C 
HETATM   18  C1  UNL     1      26.773   1.979  51.491  1.00  0.00     0.096 C 
ENDBRANCH  16  17
ENDBRANCH  15  16
ENDBRANCH  14  15
ENDBRANCH  13  14
ENDBRANCH  10  13
ENDBRANCH   8   9
ENDBRANCH   1   8
BRANCH   2  19
HETATM   19  N2  UNL     1      23.904   0.125  53.450  1.00  0.00    -0.386 N 
HETATM   20  H9  UNL     1      24.429   0.759  52.790  1.00  0.00     0.159 HD
BRANCH  19  21
HETATM   21  C10 UNL     1      24.694  -0.732  54.324  1.00  0.00     0.158 C 
BRANCH  21  22
HETATM   22  C11 UNL     1      26.155  -0.593  54.095  1.00  0.00    -0.040 A 
HETATM   23  C12 UNL     1      26.807  -1.356  53.121  1.00  0.00     0.012 A 
HETATM   24  C13 UNL     1      28.157  -1.254  52.881  1.00  0.00     0.043 A 
HETATM   25  C14 UNL     1      28.904  -0.367  53.627  1.00  0.00     0.116 A 
HETATM   26  F1  UNL     1      30.229  -0.296  53.361  1.00  0.00    -0.206 F 
HETATM   27  C15 UNL     1      28.303   0.404  54.596  1.00  0.00     0.043 A 
HETATM   28  C16 UNL     1      26.949   0.295  54.829  1.00  0.00     0.012 A 
ENDBRANCH  21  22
ENDBRANCH  19  21
ENDBRANCH   2  19
TORSDOF 10
ENDMDL
MODEL 6
REMARK VINA RESULT:      -7.3      2.772      7.065
REMARK  10 active torsions:
REMARK  status: ('A' for Active; 'I' for Inactive)
REMARK    1  A    between atoms: C2_2  and  C3_3 
REMARK    2  A    between atoms: C3_3  and  C4_4 
REMARK    3  A    between atoms: C4_4  and  C5_5 
REMARK    4  A    between atoms: C5_5  and  C6_6 
REMARK    5  A    between atoms: C6_6  and  N1_7 
REMARK       I    between atoms: N1_7  and  C7_8 
REMARK    6  A    between atoms: C7_8  and  O2_10 
REMARK    7  A    between atoms: O2_10  and  C8_11 
REMARK    8  A    between atoms: C9_12  and  N2_13 
REMARK    9  A    between atoms: N2_13  and  C10_14 
REMARK   10  A    between atoms: C10_14  and  C11_15 
ROOT
HETATM    1  C8  UNL     1      24.464   3.890  51.080  1.00  0.00     0.103 C 
HETATM    2  C9  UNL     1      25.599   3.200  51.033  1.00  0.00     0.043 C 
HETATM    3  C17 UNL     1      26.602   3.047  49.948  1.00  0.00     0.086 C 
HETATM    4  C18 UNL     1      26.852   4.307  49.203  1.00  0.00    -0.021 C 
HETATM    5  C19 UNL     1      26.065   5.284  48.778  1.00  0.00    -0.004 C 
HETATM    6  C20 UNL     1      24.603   5.307  48.990  1.00  0.00     0.003 C 
HETATM    7  C21 UNL     1      23.927   4.708  49.978  1.00  0.00     0.039 C 
ENDROOT
BRANCH   1   8
HETATM    8  O2  UNL     1      23.683   3.875  52.229  1.00  0.00    -0.260 OA
BRANCH   8   9
HETATM    9  C7  UNL     1      22.394   3.366  52.227  1.00  0.00     0.366 C 
HETATM   10  N1  UNL     1      22.271   1.983  52.532  1.00  0.00    -0.333 N 
HETATM   11  H8  UNL     1      23.122   1.385  52.748  1.00  0.00     0.165 HD
HETATM   12  O1  UNL     1      21.354   4.025  51.981  1.00  0.00    -0.238 OA
BRANCH  10  13
HETATM   13  C6  UNL     1      20.921   1.436  52.534  1.00  0.00     0.152 C 
BRANCH  13  14
HETATM   14  C5  UNL     1      20.829   0.278  51.608  1.00  0.00    -0.007 C 
BRANCH  14  15
HETATM   15  C4  UNL     1      21.297   0.331  50.371  1.00  0.00     0.005 C 
BRANCH  15  16
HETATM   16  C3  UNL     1      20.799   1.263  49.411  1.00  0.00     0.050 C 
BRANCH  16  17
HETATM   17  C2  UNL     1      21.615   1.845  48.564  1.00  0.00    -0.155 C 
HETATM   18  C1  UNL     1      22.500   2.191  47.640  1.00  0.00     0.096 C 
ENDBRANCH  16  17
ENDBRANCH  15  16
ENDBRANCH  14  15
ENDBRANCH  13  14
ENDBRANCH  10  13
ENDBRANCH   8   9
ENDBRANCH   1   8
BRANCH   2  19
HETATM   19  N2  UNL     1      25.903   2.479  52.247  1.00  0.00    -0.386 N 
HETATM   20  H9  UNL     1      25.086   2.039  52.749  1.00  0.00     0.159 HD
BRANCH  19  21
HETATM   21  C10 UNL     1      27.223   2.305  52.837  1.00  0.00     0.158 C 
BRANCH  21  22
HETATM   22  C11 UNL     1      27.628   0.878  52.923  1.00  0.00    -0.040 A 
HETATM   23  C12 UNL     1      26.774  -0.140  52.487  1.00  0.00     0.012 A 
HETATM   24  C13 UNL     1      27.114  -1.471  52.552  1.00  0.00     0.043 A 
HETATM   25  C14 UNL     1      28.343  -1.822  53.067  1.00  0.00     0.116 A 
HETATM   26  F1  UNL     1      28.641  -3.142  53.114  1.00  0.00    -0.206 F 
HETATM   27  C15 UNL     1      29.216  -0.853  53.508  1.00  0.00     0.043 A 
HETATM   28  C16 UNL     1      28.866   0.478  53.438  1.00  0.00     0.012 A 
ENDBRANCH  21  22
ENDBRANCH  19  21
ENDBRANCH   2  19
TORSDOF 10
ENDMDL
MODEL 7
REMARK VINA RESULT:      -7.3      3.382      7.155
REMARK  10 active torsions:
REMARK  status: ('A' for Active; 'I' for Inactive)
REMARK    1  A    between atoms: C2_2  and  C3_3 
REMARK    2  A    between atoms: C3_3  and  C4_4 
REMARK    3  A    between atoms: C4_4  and  C5_5 
REMARK    4  A    between atoms: C5_5  and  C6_6 
REMARK    5  A    between atoms: C6_6  and  N1_7 
REMARK       I    between atoms: N1_7  and  C7_8 
REMARK    6  A    between atoms: C7_8  and  O2_10 
REMARK    7  A    between atoms: O2_10  and  C8_11 
REMARK    8  A    between atoms: C9_12  and  N2_13 
REMARK    9  A    between atoms: N2_13  and  C10_14 
REMARK   10  A    between atoms: C10_14  and  C11_15 
ROOT
HETATM    1  C8  UNL     1      26.617   1.549  53.393  1.00  0.00     0.103 C 
HETATM    2  C9  UNL     1      26.427   0.281  53.046  1.00  0.00     0.043 C 
HETATM    3  C17 UNL     1      27.396  -0.788  52.691  1.00  0.00     0.086 C 
HETATM    4  C18 UNL     1      28.620  -0.767  53.532  1.00  0.00    -0.021 C 
HETATM    5  C19 UNL     1      29.378   0.207  54.012  1.00  0.00    -0.004 C 
HETATM    6  C20 UNL     1      29.116   1.642  53.770  1.00  0.00     0.003 C 
HETATM    7  C21 UNL     1      27.931   2.206  53.506  1.00  0.00     0.039 C 
ENDROOT
BRANCH   1   8
HETATM    8  O2  UNL     1      25.530   2.365  53.683  1.00  0.00    -0.260 OA
BRANCH   8   9
HETATM    9  C7  UNL     1      24.812   3.004  52.684  1.00  0.00     0.366 C 
HETATM   10  N1  UNL     1      24.050   4.132  53.090  1.00  0.00    -0.333 N 
HETATM   11  H8  UNL     1      24.037   4.458  54.100  1.00  0.00     0.165 HD
HETATM   12  O1  UNL     1      24.791   2.663  51.475  1.00  0.00    -0.238 OA
BRANCH  10  13
HETATM   13  C6  UNL     1      23.291   4.812  52.049  1.00  0.00     0.152 C 
BRANCH  13  14
HETATM   14  C5  UNL     1      21.842   4.513  52.183  1.00  0.00    -0.007 C 
BRANCH  14  15
HETATM   15  C4  UNL     1      21.024   4.532  51.143  1.00  0.00     0.005 C 
BRANCH  15  16
HETATM   16  C3  UNL     1      20.558   3.334  50.521  1.00  0.00     0.050 C 
BRANCH  16  17
HETATM   17  C2  UNL     1      21.407   2.488  49.987  1.00  0.00    -0.155 C 
HETATM   18  C1  UNL     1      22.118   1.660  49.236  1.00  0.00     0.096 C 
ENDBRANCH  16  17
ENDBRANCH  15  16
ENDBRANCH  14  15
ENDBRANCH  13  14
ENDBRANCH  10  13
ENDBRANCH   8   9
ENDBRANCH   1   8
BRANCH   2  19
HETATM   19  N2  UNL     1      25.040  -0.121  53.009  1.00  0.00    -0.386 N 
HETATM   20  H9  UNL     1      24.531   0.031  52.098  1.00  0.00     0.159 HD
BRANCH  19  21
HETATM   21  C10 UNL     1      24.286  -0.712  54.107  1.00  0.00     0.158 C 
BRANCH  21  22
HETATM   22  C11 UNL     1      22.817  -0.639  53.896  1.00  0.00    -0.040 A 
HETATM   23  C12 UNL     1      21.962  -1.590  54.460  1.00  0.00     0.012 A 
HETATM   24  C13 UNL     1      20.598  -1.555  54.287  1.00  0.00     0.043 A 
HETATM   25  C14 UNL     1      20.046  -0.545  53.529  1.00  0.00     0.116 A 
HETATM   26  F1  UNL     1      18.700  -0.544  53.381  1.00  0.00    -0.206 F 
HETATM   27  C15 UNL     1      20.851   0.413  52.955  1.00  0.00     0.043 A 
HETATM   28  C16 UNL     1      22.217   0.370  53.135  1.00  0.00     0.012 A 
ENDBRANCH  21  22
ENDBRANCH  19  21
ENDBRANCH   2  19
TORSDOF 10
ENDMDL
MODEL 8
REMARK VINA RESULT:      -7.2      1.860      5.019
REMARK  10 active torsions:
REMARK  status: ('A' for Active; 'I' for Inactive)
REMARK    1  A    between atoms: C2_2  and  C3_3 
REMARK    2  A    between atoms: C3_3  and  C4_4 
REMARK    3  A    between atoms: C4_4  and  C5_5 
REMARK    4  A    between atoms: C5_5  and  C6_6 
REMARK    5  A    between atoms: C6_6  and  N1_7 
REMARK       I    between atoms: N1_7  and  C7_8 
REMARK    6  A    between atoms: C7_8  and  O2_10 
REMARK    7  A    between atoms: O2_10  and  C8_11 
REMARK    8  A    between atoms: C9_12  and  N2_13 
REMARK    9  A    between atoms: N2_13  and  C10_14 
REMARK   10  A    between atoms: C10_14  and  C11_15 
ROOT
HETATM    1  C8  UNL     1      24.885   2.244  52.184  1.00  0.00     0.103 C 
HETATM    2  C9  UNL     1      26.190   2.284  51.936  1.00  0.00     0.043 C 
HETATM    3  C17 UNL     1      27.297   1.402  52.388  1.00  0.00     0.086 C 
HETATM    4  C18 UNL     1      26.923  -0.036  52.410  1.00  0.00    -0.021 C 
HETATM    5  C19 UNL     1      25.826  -0.685  52.768  1.00  0.00    -0.004 C 
HETATM    6  C20 UNL     1      24.611  -0.019  53.282  1.00  0.00     0.003 C 
HETATM    7  C21 UNL     1      24.217   1.235  53.025  1.00  0.00     0.039 C 
ENDROOT
BRANCH   1   8
HETATM    8  O2  UNL     1      24.039   3.200  51.636  1.00  0.00    -0.260 OA
BRANCH   8   9
HETATM    9  C7  UNL     1      23.068   2.864  50.706  1.00  0.00     0.366 C 
HETATM   10  N1  UNL     1      21.731   2.832  51.186  1.00  0.00    -0.333 N 
HETATM   11  H8  UNL     1      21.500   3.053  52.199  1.00  0.00     0.165 HD
HETATM   12  O1  UNL     1      23.283   2.594  49.497  1.00  0.00    -0.238 OA
BRANCH  10  13
HETATM   13  C6  UNL     1      20.701   2.481  50.218  1.00  0.00     0.152 C 
BRANCH  13  14
HETATM   14  C5  UNL     1      20.227   1.091  50.445  1.00  0.00    -0.007 C 
BRANCH  14  15
HETATM   15  C4  UNL     1      20.799   0.292  51.331  1.00  0.00     0.005 C 
BRANCH  15  16
HETATM   16  C3  UNL     1      20.200   0.009  52.595  1.00  0.00     0.050 C 
BRANCH  16  17
HETATM   17  C2  UNL     1      20.887  -0.591  53.538  1.00  0.00    -0.155 C 
HETATM   18  C1  UNL     1      21.368  -1.341  54.519  1.00  0.00     0.096 C 
ENDBRANCH  16  17
ENDBRANCH  15  16
ENDBRANCH  14  15
ENDBRANCH  13  14
ENDBRANCH  10  13
ENDBRANCH   8   9
ENDBRANCH   1   8
BRANCH   2  19
HETATM   19  N2  UNL     1      26.595   3.375  51.079  1.00  0.00    -0.386 N 
HETATM   20  H9  UNL     1      26.856   4.277  51.559  1.00  0.00     0.159 HD
BRANCH  19  21
HETATM   21  C10 UNL     1      26.677   3.342  49.625  1.00  0.00     0.158 C 
BRANCH  21  22
HETATM   22  C11 UNL     1      26.808   4.697  49.029  1.00  0.00    -0.040 A 
HETATM   23  C12 UNL     1      28.035   5.151  48.537  1.00  0.00     0.012 A 
HETATM   24  C13 UNL     1      28.194   6.398  47.979  1.00  0.00     0.043 A 
HETATM   25  C14 UNL     1      27.105   7.238  47.899  1.00  0.00     0.116 A 
HETATM   26  F1  UNL     1      27.301   8.457  47.344  1.00  0.00    -0.206 F 
HETATM   27  C15 UNL     1      25.877   6.832  48.372  1.00  0.00     0.043 A 
HETATM   28  C16 UNL     1      25.727   5.580  48.929  1.00  0.00     0.012 A 
ENDBRANCH  21  22
ENDBRANCH  19  21
ENDBRANCH   2  19
TORSDOF 10
ENDMDL
MODEL 9
REMARK VINA RESULT:      -7.2      2.693      6.068
REMARK  10 active torsions:
REMARK  status: ('A' for Active; 'I' for Inactive)
REMARK    1  A    between atoms: C2_2  and  C3_3 
REMARK    2  A    between atoms: C3_3  and  C4_4 
REMARK    3  A    between atoms: C4_4  and  C5_5 
REMARK    4  A    between atoms: C5_5  and  C6_6 
REMARK    5  A    between atoms: C6_6  and  N1_7 
REMARK       I    between atoms: N1_7  and  C7_8 
REMARK    6  A    between atoms: C7_8  and  O2_10 
REMARK    7  A    between atoms: O2_10  and  C8_11 
REMARK    8  A    between atoms: C9_12  and  N2_13 
REMARK    9  A    between atoms: N2_13  and  C10_14 
REMARK   10  A    between atoms: C10_14  and  C11_15 
ROOT
HETATM    1  C8  UNL     1      22.894   3.131  52.371  1.00  0.00     0.103 C 
HETATM    2  C9  UNL     1      23.460   1.931  52.442  1.00  0.00     0.043 C 
HETATM    3  C17 UNL     1      22.862   0.571  52.480  1.00  0.00     0.086 C 
HETATM    4  C18 UNL     1      21.692   0.425  51.577  1.00  0.00    -0.021 C 
HETATM    5  C19 UNL     1      20.675   1.215  51.270  1.00  0.00    -0.004 C 
HETATM    6  C20 UNL     1      20.486   2.565  51.842  1.00  0.00     0.003 C 
HETATM    7  C21 UNL     1      21.443   3.377  52.310  1.00  0.00     0.039 C 
ENDROOT
BRANCH   1   8
HETATM    8  O2  UNL     1      23.681   4.276  52.349  1.00  0.00    -0.260 OA
BRANCH   8   9
HETATM    9  C7  UNL     1      23.847   5.024  51.194  1.00  0.00     0.366 C 
HETATM   10  N1  UNL     1      24.547   6.251  51.343  1.00  0.00    -0.333 N 
HETATM   11  H8  UNL     1      24.917   6.568  52.287  1.00  0.00     0.165 HD
HETATM   12  O1  UNL     1      23.432   4.699  50.053  1.00  0.00    -0.238 OA
BRANCH  10  13
HETATM   13  C6  UNL     1      24.728   7.046  50.136  1.00  0.00     0.152 C 
BRANCH  13  14
HETATM   14  C5  UNL     1      26.166   7.107  49.765  1.00  0.00    -0.007 C 
BRANCH  14  15
HETATM   15  C4  UNL     1      26.613   6.633  48.613  1.00  0.00     0.005 C 
BRANCH  15  16
HETATM   16  C3  UNL     1      27.368   5.425  48.532  1.00  0.00     0.050 C 
BRANCH  16  17
HETATM   17  C2  UNL     1      26.968   4.346  49.163  1.00  0.00    -0.155 C 
HETATM   18  C1  UNL     1      26.587   3.144  49.570  1.00  0.00     0.096 C 
ENDBRANCH  16  17
ENDBRANCH  15  16
ENDBRANCH  14  15
ENDBRANCH  13  14
ENDBRANCH  10  13
ENDBRANCH   8   9
ENDBRANCH   1   8
BRANCH   2  19
HETATM   19  N2  UNL     1      24.904   1.961  52.491  1.00  0.00    -0.386 N 
HETATM   20  H9  UNL     1      25.402   2.088  51.570  1.00  0.00     0.159 HD
BRANCH  19  21
HETATM   21  C10 UNL     1      25.728   1.833  53.685  1.00  0.00     0.158 C 
BRANCH  21  22
HETATM   22  C11 UNL     1      26.732   0.744  53.574  1.00  0.00    -0.040 A 
HETATM   23  C12 UNL     1      26.448  -0.427  52.865  1.00  0.00     0.012 A 
HETATM   24  C13 UNL     1      27.352  -1.455  52.741  1.00  0.00     0.043 A 
HETATM   25  C14 UNL     1      28.589  -1.334  53.338  1.00  0.00     0.116 A 
HETATM   26  F1  UNL     1      29.451  -2.368  53.194  1.00  0.00    -0.206 F 
HETATM   27  C15 UNL     1      28.911  -0.199  54.047  1.00  0.00     0.043 A 
HETATM   28  C16 UNL     1      27.998   0.827  54.164  1.00  0.00     0.012 A 
ENDBRANCH  21  22
ENDBRANCH  19  21
ENDBRANCH   2  19
TORSDOF 10
ENDMDL
