MODEL 1
REMARK VINA RESULT:      -9.5      0.000      0.000
REMARK  4 active torsions:
REMARK  status: ('A' for Active; 'I' for Inactive)
REMARK    1  A    between atoms: C2_2  and  C3_3 
REMARK       I    between atoms: C3_3  and  N1_5 
REMARK    2  A    between atoms: N1_5  and  C4_6 
REMARK    3  A    between atoms: N2_11  and  C9_12 
REMARK    4  A    between atoms: C11_16  and  C12_17 
REMARK       I    between atoms: N4_22  and  C17_23 
ROOT
HETATM    1  C9  UNL     1      30.288   5.828  47.776  1.00  0.00     0.727 A 
HETATM    2  N3  UNL     1      30.277   6.922  47.116  1.00  0.00    -0.079 NA
HETATM    3  C10 UNL     1      29.057   7.656  46.949  1.00  0.00     0.346 A 
HETATM    4  O2  UNL     1      27.986   7.004  47.551  1.00  0.00    -0.311 OA
HETATM    5  C11 UNL     1      28.057   5.824  48.253  1.00  0.00     0.195 A 
HETATM    6  N6  UNL     1      29.195   5.205  48.387  1.00  0.00    -0.038 NA
ENDROOT
BRANCH   5   7
HETATM    7  C12 UNL     1      26.845   5.286  48.837  1.00  0.00     0.017 C 
HETATM    8  C13 UNL     1      25.858   6.208  48.776  1.00  0.00     0.018 C 
HETATM    9  C14 UNL     1      24.523   6.119  49.424  1.00  0.00     0.027 C 
HETATM   10  C15 UNL     1      23.978   5.285  50.337  1.00  0.00     0.023 C 
HETATM   11  C16 UNL     1      22.558   5.308  49.798  1.00  0.00     0.182 C 
HETATM   12  N5  UNL     1      24.500   4.553  51.467  1.00  0.00    -0.384 N 
HETATM   13  N4  UNL     1      22.202   3.918  49.451  1.00  0.00    -0.347 N 
HETATM   14  C17 UNL     1      20.795   3.841  49.255  1.00  0.00     0.216 C 
HETATM   15  C19 UNL     1      23.168   2.822  49.335  1.00  0.00     0.128 C 
HETATM   16  C18 UNL     1      19.948   2.693  48.900  1.00  0.00     0.117 C 
HETATM   17  O3  UNL     1      20.285   4.974  49.436  1.00  0.00    -0.274 OA
HETATM   18  C20 UNL     1      23.793   2.435  50.626  1.00  0.00     0.049 C 
HETATM   19  C21 UNL     1      24.987   3.260  51.046  1.00  0.00     0.106 C 
HETATM   20  C22 UNL     1      26.100   3.255  50.106  1.00  0.00    -0.001 C 
HETATM   21  C23 UNL     1      26.976   3.923  49.333  1.00  0.00     0.014 C 
HETATM   22  H24 UNL     1      24.609   4.733  52.516  1.00  0.00     0.160 HD
ENDBRANCH   5   7
BRANCH   1  23
HETATM   23  N2  UNL     1      31.495   5.239  47.858  1.00  0.00    -0.176 N 
HETATM   24  C4  UNL     1      33.166   5.506  48.641  1.00  0.00     0.275 A 
HETATM   25  C5  UNL     1      33.113   4.434  47.952  1.00  0.00    -0.122 A 
HETATM   26  C6  UNL     1      33.050   3.653  47.442  1.00  0.00     0.063 A 
HETATM   27  C7  UNL     1      32.945   2.668  46.789  1.00  0.00     0.042 A 
HETATM   28  C8  UNL     1      31.735   3.755  47.022  1.00  0.00     0.133 A 
BRANCH  24  29
HETATM   29  N1  UNL     1      33.330   6.765  47.910  1.00  0.00    -0.326 N 
HETATM   30  C3  UNL     1      34.534   7.524  47.968  1.00  0.00     0.242 C 
HETATM   31  O1  UNL     1      35.384   6.960  48.710  1.00  0.00    -0.269 OA
HETATM   32  H4  UNL     1      32.499   7.052  47.354  1.00  0.00     0.165 HD
BRANCH  30  33
HETATM   33  C2  UNL     1      34.656   8.770  47.226  1.00  0.00     0.064 C 
HETATM   34  C1  UNL     1      33.711   9.693  47.180  1.00  0.00     0.017 C 
ENDBRANCH  30  33
ENDBRANCH  24  29
ENDBRANCH   1  23
TORSDOF 4
ENDMDL
MODEL 2
REMARK VINA RESULT:      -9.4      3.786      9.863
REMARK  4 active torsions:
REMARK  status: ('A' for Active; 'I' for Inactive)
REMARK    1  A    between atoms: C2_2  and  C3_3 
REMARK       I    between atoms: C3_3  and  N1_5 
REMARK    2  A    between atoms: N1_5  and  C4_6 
REMARK    3  A    between atoms: N2_11  and  C9_12 
REMARK    4  A    between atoms: C11_16  and  C12_17 
REMARK       I    between atoms: N4_22  and  C17_23 
ROOT
HETATM    1  C9  UNL     1      24.254   2.157  51.119  1.00  0.00     0.727 A 
HETATM    2  N3  UNL     1      25.084   1.318  51.609  1.00  0.00    -0.079 NA
HETATM    3  C10 UNL     1      26.493   1.574  51.552  1.00  0.00     0.346 A 
HETATM    4  O2  UNL     1      26.766   2.771  50.899  1.00  0.00    -0.311 OA
HETATM    5  C11 UNL     1      25.828   3.639  50.391  1.00  0.00     0.195 A 
HETATM    6  N6  UNL     1      24.558   3.365  50.483  1.00  0.00    -0.038 NA
ENDROOT
BRANCH   5   7
HETATM    7  C12 UNL     1      26.281   4.859  49.754  1.00  0.00     0.017 C 
HETATM    8  C13 UNL     1      27.389   4.609  49.021  1.00  0.00     0.018 C 
HETATM    9  C14 UNL     1      28.262   5.618  48.364  1.00  0.00     0.027 C 
HETATM   10  C15 UNL     1      28.348   6.966  48.427  1.00  0.00     0.023 C 
HETATM   11  C16 UNL     1      28.760   7.201  46.985  1.00  0.00     0.182 C 
HETATM   12  N5  UNL     1      28.121   7.939  49.469  1.00  0.00    -0.384 N 
HETATM   13  N4  UNL     1      27.731   8.065  46.374  1.00  0.00    -0.347 N 
HETATM   14  C17 UNL     1      28.232   8.574  45.144  1.00  0.00     0.216 C 
HETATM   15  C19 UNL     1      26.417   8.331  46.967  1.00  0.00     0.128 C 
HETATM   16  C18 UNL     1      27.604   9.473  44.163  1.00  0.00     0.117 C 
HETATM   17  O3  UNL     1      29.392   8.137  44.952  1.00  0.00    -0.274 OA
HETATM   18  C20 UNL     1      26.475   9.130  48.217  1.00  0.00     0.049 C 
HETATM   19  C21 UNL     1      26.735   8.346  49.482  1.00  0.00     0.106 C 
HETATM   20  C22 UNL     1      25.753   7.311  49.777  1.00  0.00    -0.001 C 
HETATM   21  C23 UNL     1      25.458   6.025  50.045  1.00  0.00     0.014 C 
HETATM   22  H24 UNL     1      28.718   8.422  50.215  1.00  0.00     0.160 HD
ENDBRANCH   5   7
BRANCH   1  23
HETATM   23  N2  UNL     1      22.963   1.798  51.238  1.00  0.00    -0.176 N 
HETATM   24  C4  UNL     1      21.658   1.566  52.549  1.00  0.00     0.275 A 
HETATM   25  C5  UNL     1      21.227   1.307  51.377  1.00  0.00    -0.122 A 
HETATM   26  C6  UNL     1      20.933   1.123  50.509  1.00  0.00     0.063 A 
HETATM   27  C7  UNL     1      20.584   0.897  49.397  1.00  0.00     0.042 A 
HETATM   28  C8  UNL     1      22.098   1.386  49.810  1.00  0.00     0.133 A 
BRANCH  24  29
HETATM   29  N1  UNL     1      22.472   0.539  53.206  1.00  0.00    -0.326 N 
HETATM   30  C3  UNL     1      22.002  -0.191  54.335  1.00  0.00     0.242 C 
HETATM   31  O1  UNL     1      20.837   0.173  54.652  1.00  0.00    -0.269 OA
HETATM   32  H4  UNL     1      23.410   0.395  52.780  1.00  0.00     0.165 HD
BRANCH  30  33
HETATM   33  C2  UNL     1      22.842  -1.204  54.959  1.00  0.00     0.064 C 
HETATM   34  C1  UNL     1      24.157  -1.108  55.057  1.00  0.00     0.017 C 
ENDBRANCH  30  33
ENDBRANCH  24  29
ENDBRANCH   1  23
TORSDOF 4
ENDMDL
MODEL 3
REMARK VINA RESULT:      -9.3      3.964      9.230
REMARK  4 active torsions:
REMARK  status: ('A' for Active; 'I' for Inactive)
REMARK    1  A    between atoms: C2_2  and  C3_3 
REMARK       I    between atoms: C3_3  and  N1_5 
REMARK    2  A    between atoms: N1_5  and  C4_6 
REMARK    3  A    between atoms: N2_11  and  C9_12 
REMARK    4  A    between atoms: C11_16  and  C12_17 
REMARK       I    between atoms: N4_22  and  C17_23 
ROOT
HETATM    1  C9  UNL     1      24.382   1.687  51.390  1.00  0.00     0.727 A 
HETATM    2  N3  UNL     1      25.331   0.931  51.791  1.00  0.00    -0.079 NA
HETATM    3  C10 UNL     1      26.697   1.342  51.645  1.00  0.00     0.346 A 
HETATM    4  O2  UNL     1      26.790   2.579  51.017  1.00  0.00    -0.311 OA
HETATM    5  C11 UNL     1      25.730   3.352  50.606  1.00  0.00     0.195 A 
HETATM    6  N6  UNL     1      24.507   2.937  50.776  1.00  0.00    -0.038 NA
ENDROOT
BRANCH   5   7
HETATM    7  C12 UNL     1      26.001   4.631  49.981  1.00  0.00     0.017 C 
HETATM    8  C13 UNL     1      27.059   4.519  49.148  1.00  0.00     0.018 C 
HETATM    9  C14 UNL     1      27.767   5.632  48.460  1.00  0.00     0.027 C 
HETATM   10  C15 UNL     1      27.724   6.979  48.569  1.00  0.00     0.023 C 
HETATM   11  C16 UNL     1      27.981   7.300  47.107  1.00  0.00     0.182 C 
HETATM   12  N5  UNL     1      27.493   7.891  49.664  1.00  0.00    -0.384 N 
HETATM   13  N4  UNL     1      26.821   8.072  46.621  1.00  0.00    -0.347 N 
HETATM   14  C17 UNL     1      27.158   8.668  45.374  1.00  0.00     0.216 C 
HETATM   15  C19 UNL     1      25.545   8.183  47.333  1.00  0.00     0.128 C 
HETATM   16  C18 UNL     1      26.360   9.527  44.487  1.00  0.00     0.117 C 
HETATM   17  O3  UNL     1      28.335   8.358  45.067  1.00  0.00    -0.274 OA
HETATM   18  C20 UNL     1      25.632   8.945  48.604  1.00  0.00     0.049 C 
HETATM   19  C21 UNL     1      26.080   8.153  49.811  1.00  0.00     0.106 C 
HETATM   20  C22 UNL     1      25.236   7.014  50.146  1.00  0.00    -0.001 C 
HETATM   21  C23 UNL     1      25.096   5.697  50.387  1.00  0.00     0.014 C 
HETATM   22  H24 UNL     1      28.102   8.409  50.375  1.00  0.00     0.160 HD
ENDBRANCH   5   7
BRANCH   1  23
HETATM   23  N2  UNL     1      23.149   1.185  51.585  1.00  0.00    -0.176 N 
HETATM   24  C4  UNL     1      21.665   0.617  50.610  1.00  0.00     0.275 A 
HETATM   25  C5  UNL     1      21.492   0.516  51.870  1.00  0.00    -0.122 A 
HETATM   26  C6  UNL     1      21.388   0.451  52.796  1.00  0.00     0.063 A 
HETATM   27  C7  UNL     1      21.281   0.377  53.976  1.00  0.00     0.042 A 
HETATM   28  C8  UNL     1      22.621   0.932  53.202  1.00  0.00     0.133 A 
BRANCH  24  29
HETATM   29  N1  UNL     1      21.519   1.950  50.018  1.00  0.00    -0.326 N 
HETATM   30  C3  UNL     1      21.630   2.172  48.615  1.00  0.00     0.242 C 
HETATM   31  O1  UNL     1      21.860   1.091  48.007  1.00  0.00    -0.269 OA
HETATM   32  H4  UNL     1      21.331   2.709  50.704  1.00  0.00     0.165 HD
BRANCH  30  33
HETATM   33  C2  UNL     1      21.478   3.512  48.067  1.00  0.00     0.064 C 
HETATM   34  C1  UNL     1      22.491   4.328  47.831  1.00  0.00     0.017 C 
ENDBRANCH  30  33
ENDBRANCH  24  29
ENDBRANCH   1  23
TORSDOF 4
ENDMDL
MODEL 4
REMARK VINA RESULT:      -9.3      4.858      9.554
REMARK  4 active torsions:
REMARK  status: ('A' for Active; 'I' for Inactive)
REMARK    1  A    between atoms: C2_2  and  C3_3 
REMARK       I    between atoms: C3_3  and  N1_5 
REMARK    2  A    between atoms: N1_5  and  C4_6 
REMARK    3  A    between atoms: N2_11  and  C9_12 
REMARK    4  A    between atoms: C11_16  and  C12_17 
REMARK       I    between atoms: N4_22  and  C17_23 
ROOT
HETATM    1  C9  UNL     1      24.366   0.840  52.339  1.00  0.00     0.727 A 
HETATM    2  N3  UNL     1      25.435   0.140  52.333  1.00  0.00    -0.079 NA
HETATM    3  C10 UNL     1      26.646   0.670  51.779  1.00  0.00     0.346 A 
HETATM    4  O2  UNL     1      26.453   1.949  51.269  1.00  0.00    -0.311 OA
HETATM    5  C11 UNL     1      25.276   2.658  51.306  1.00  0.00     0.195 A 
HETATM    6  N6  UNL     1      24.208   2.134  51.835  1.00  0.00    -0.038 NA
ENDROOT
BRANCH   5   7
HETATM    7  C12 UNL     1      25.249   3.994  50.745  1.00  0.00     0.017 C 
HETATM    8  C13 UNL     1      26.228   4.124  49.823  1.00  0.00     0.018 C 
HETATM    9  C14 UNL     1      26.653   5.382  49.153  1.00  0.00     0.027 C 
HETATM   10  C15 UNL     1      26.373   6.690  49.352  1.00  0.00     0.023 C 
HETATM   11  C16 UNL     1      26.432   7.124  47.898  1.00  0.00     0.182 C 
HETATM   12  N5  UNL     1      26.081   7.488  50.519  1.00  0.00    -0.384 N 
HETATM   13  N4  UNL     1      25.110   7.685  47.558  1.00  0.00    -0.347 N 
HETATM   14  C17 UNL     1      25.216   8.394  46.329  1.00  0.00     0.216 C 
HETATM   15  C19 UNL     1      23.906   7.519  48.377  1.00  0.00     0.128 C 
HETATM   16  C18 UNL     1      24.195   9.129  45.567  1.00  0.00     0.117 C 
HETATM   17  O3  UNL     1      26.396   8.326  45.908  1.00  0.00    -0.274 OA
HETATM   18  C20 UNL     1      23.969   8.223  49.684  1.00  0.00     0.049 C 
HETATM   19  C21 UNL     1      24.664   7.472  50.796  1.00  0.00     0.106 C 
HETATM   20  C22 UNL     1      24.078   6.179  51.125  1.00  0.00    -0.001 C 
HETATM   21  C23 UNL     1      24.204   4.850  51.292  1.00  0.00     0.014 C 
HETATM   22  H24 UNL     1      26.648   8.077  51.209  1.00  0.00     0.160 HD
ENDBRANCH   5   7
BRANCH   1  23
HETATM   23  N2  UNL     1      23.302   0.226  52.888  1.00  0.00    -0.176 N 
HETATM   24  C4  UNL     1      21.469   0.023  52.611  1.00  0.00     0.275 A 
HETATM   25  C5  UNL     1      21.881  -0.602  53.644  1.00  0.00    -0.122 A 
HETATM   26  C6  UNL     1      22.206  -1.053  54.395  1.00  0.00     0.063 A 
HETATM   27  C7  UNL     1      22.644  -1.617  55.343  1.00  0.00     0.042 A 
HETATM   28  C8  UNL     1      23.544  -0.708  54.310  1.00  0.00     0.133 A 
BRANCH  24  29
HETATM   29  N1  UNL     1      21.269   1.470  52.740  1.00  0.00    -0.326 N 
HETATM   30  C3  UNL     1      20.541   2.222  51.773  1.00  0.00     0.242 C 
HETATM   31  O1  UNL     1      20.122   1.477  50.847  1.00  0.00    -0.269 OA
HETATM   32  H4  UNL     1      21.702   1.892  53.587  1.00  0.00     0.165 HD
BRANCH  30  33
HETATM   33  C2  UNL     1      20.365   3.658  51.938  1.00  0.00     0.064 C 
HETATM   34  C1  UNL     1      20.498   4.531  50.955  1.00  0.00     0.017 C 
ENDBRANCH  30  33
ENDBRANCH  24  29
ENDBRANCH   1  23
TORSDOF 4
ENDMDL
MODEL 5
REMARK VINA RESULT:      -9.3      2.398      9.006
REMARK  4 active torsions:
REMARK  status: ('A' for Active; 'I' for Inactive)
REMARK    1  A    between atoms: C2_2  and  C3_3 
REMARK       I    between atoms: C3_3  and  N1_5 
REMARK    2  A    between atoms: N1_5  and  C4_6 
REMARK    3  A    between atoms: N2_11  and  C9_12 
REMARK    4  A    between atoms: C11_16  and  C12_17 
REMARK       I    between atoms: N4_22  and  C17_23 
ROOT
HETATM    1  C9  UNL     1      24.189   5.111  49.329  1.00  0.00     0.727 A 
HETATM    2  N3  UNL     1      23.340   6.065  49.305  1.00  0.00    -0.079 NA
HETATM    3  C10 UNL     1      23.763   7.405  49.016  1.00  0.00     0.346 A 
HETATM    4  O2  UNL     1      25.138   7.471  48.819  1.00  0.00    -0.311 OA
HETATM    5  C11 UNL     1      26.006   6.405  48.854  1.00  0.00     0.195 A 
HETATM    6  N6  UNL     1      25.566   5.206  49.107  1.00  0.00    -0.038 NA
ENDROOT
BRANCH   5   7
HETATM    7  C12 UNL     1      27.414   6.644  48.607  1.00  0.00     0.017 C 
HETATM    8  C13 UNL     1      28.037   5.475  48.338  1.00  0.00     0.018 C 
HETATM    9  C14 UNL     1      29.503   5.262  48.210  1.00  0.00     0.027 C 
HETATM   10  C15 UNL     1      30.588   6.024  48.476  1.00  0.00     0.023 C 
HETATM   11  C16 UNL     1      31.467   5.508  47.351  1.00  0.00     0.182 C 
HETATM   12  N5  UNL     1      30.887   7.033  49.463  1.00  0.00    -0.384 N 
HETATM   13  N4  UNL     1      31.816   6.666  46.505  1.00  0.00    -0.347 N 
HETATM   14  C17 UNL     1      32.888   6.298  45.645  1.00  0.00     0.216 C 
HETATM   15  C19 UNL     1      31.146   7.968  46.569  1.00  0.00     0.128 C 
HETATM   16  C18 UNL     1      33.596   7.084  44.623  1.00  0.00     0.117 C 
HETATM   17  O3  UNL     1      33.210   5.105  45.864  1.00  0.00    -0.274 OA
HETATM   18  C20 UNL     1      31.389   8.705  47.835  1.00  0.00     0.049 C 
HETATM   19  C21 UNL     1      30.484   8.337  48.988  1.00  0.00     0.106 C 
HETATM   20  C22 UNL     1      29.062   8.530  48.741  1.00  0.00    -0.001 C 
HETATM   21  C23 UNL     1      27.808   8.043  48.704  1.00  0.00     0.014 C 
HETATM   22  H24 UNL     1      31.329   7.048  50.438  1.00  0.00     0.160 HD
ENDBRANCH   5   7
BRANCH   1  23
HETATM   23  N2  UNL     1      23.663   3.905  49.612  1.00  0.00    -0.176 N 
HETATM   24  C4  UNL     1      23.560   2.683  51.017  1.00  0.00     0.275 A 
HETATM   25  C5  UNL     1      22.952   2.280  49.970  1.00  0.00    -0.122 A 
HETATM   26  C6  UNL     1      22.514   2.005  49.192  1.00  0.00     0.063 A 
HETATM   27  C7  UNL     1      21.963   1.679  48.192  1.00  0.00     0.042 A 
HETATM   28  C8  UNL     1      22.773   3.096  48.382  1.00  0.00     0.133 A 
BRANCH  24  29
HETATM   29  N1  UNL     1      25.020   2.553  51.037  1.00  0.00    -0.326 N 
HETATM   30  C3  UNL     1      25.749   2.396  52.251  1.00  0.00     0.242 C 
HETATM   31  O1  UNL     1      24.971   2.387  53.244  1.00  0.00    -0.269 OA
HETATM   32  H4  UNL     1      25.469   2.586  50.099  1.00  0.00     0.165 HD
BRANCH  30  33
HETATM   33  C2  UNL     1      27.199   2.269  52.227  1.00  0.00     0.064 C 
HETATM   34  C1  UNL     1      27.949   2.217  53.314  1.00  0.00     0.017 C 
ENDBRANCH  30  33
ENDBRANCH  24  29
ENDBRANCH   1  23
TORSDOF 4
ENDMDL
MODEL 6
REMARK VINA RESULT:      -9.2      6.311      9.209
REMARK  4 active torsions:
REMARK  status: ('A' for Active; 'I' for Inactive)
REMARK    1  A    between atoms: C2_2  and  C3_3 
REMARK       I    between atoms: C3_3  and  N1_5 
REMARK    2  A    between atoms: N1_5  and  C4_6 
REMARK    3  A    between atoms: N2_11  and  C9_12 
REMARK    4  A    between atoms: C11_16  and  C12_17 
REMARK       I    between atoms: N4_22  and  C17_23 
ROOT
HETATM    1  C9  UNL     1      23.766  -0.163  53.507  1.00  0.00     0.727 A 
HETATM    2  N3  UNL     1      23.601  -0.875  54.556  1.00  0.00    -0.079 NA
HETATM    3  C10 UNL     1      22.282  -1.220  54.998  1.00  0.00     0.346 A 
HETATM    4  O2  UNL     1      21.309  -0.664  54.175  1.00  0.00    -0.311 OA
HETATM    5  C11 UNL     1      21.546   0.095  53.053  1.00  0.00     0.195 A 
HETATM    6  N6  UNL     1      22.766   0.367  52.687  1.00  0.00    -0.038 NA
ENDROOT
BRANCH   5   7
HETATM    7  C12 UNL     1      20.415   0.585  52.291  1.00  0.00     0.017 C 
HETATM    8  C13 UNL     1      19.334  -0.193  52.522  1.00  0.00     0.018 C 
HETATM    9  C14 UNL     1      18.035  -0.141  51.802  1.00  0.00     0.027 C 
HETATM   10  C15 UNL     1      17.607   0.488  50.684  1.00  0.00     0.023 C 
HETATM   11  C16 UNL     1      16.179   0.737  51.135  1.00  0.00     0.182 C 
HETATM   12  N5  UNL     1      18.237   0.862  49.440  1.00  0.00    -0.384 N 
HETATM   13  N4  UNL     1      15.963   2.196  51.112  1.00  0.00    -0.347 N 
HETATM   14  C17 UNL     1      14.567   2.454  51.207  1.00  0.00     0.216 C 
HETATM   15  C19 UNL     1      17.037   3.188  51.008  1.00  0.00     0.128 C 
HETATM   16  C18 UNL     1      13.838   3.731  51.225  1.00  0.00     0.117 C 
HETATM   17  O3  UNL     1      13.945   1.367  51.282  1.00  0.00    -0.274 OA
HETATM   18  C20 UNL     1      17.735   3.181  49.698  1.00  0.00     0.049 C 
HETATM   19  C21 UNL     1      18.846   2.166  49.556  1.00  0.00     0.106 C 
HETATM   20  C22 UNL     1      19.926   2.298  50.525  1.00  0.00    -0.001 C 
HETATM   21  C23 UNL     1      20.704   1.763  51.484  1.00  0.00     0.014 C 
HETATM   22  H24 UNL     1      18.355   0.417  48.473  1.00  0.00     0.160 HD
ENDBRANCH   5   7
BRANCH   1  23
HETATM   23  N2  UNL     1      25.052   0.088  53.201  1.00  0.00    -0.176 N 
HETATM   24  C4  UNL     1      26.192   1.531  52.888  1.00  0.00     0.275 A 
HETATM   25  C5  UNL     1      26.784   0.405  52.784  1.00  0.00    -0.122 A 
HETATM   26  C6  UNL     1      27.197  -0.430  52.713  1.00  0.00     0.063 A 
HETATM   27  C7  UNL     1      27.698  -1.502  52.630  1.00  0.00     0.042 A 
HETATM   28  C8  UNL     1      26.116  -1.247  52.994  1.00  0.00     0.133 A 
BRANCH  24  29
HETATM   29  N1  UNL     1      25.368   1.961  51.755  1.00  0.00    -0.326 N 
HETATM   30  C3  UNL     1      25.875   2.811  50.730  1.00  0.00     0.242 C 
HETATM   31  O1  UNL     1      27.080   3.109  50.949  1.00  0.00    -0.269 OA
HETATM   32  H4  UNL     1      24.393   1.597  51.767  1.00  0.00     0.165 HD
BRANCH  30  33
HETATM   33  C2  UNL     1      25.023   3.216  49.620  1.00  0.00     0.064 C 
HETATM   34  C1  UNL     1      23.707   3.099  49.625  1.00  0.00     0.017 C 
ENDBRANCH  30  33
ENDBRANCH  24  29
ENDBRANCH   1  23
TORSDOF 4
ENDMDL
MODEL 7
REMARK VINA RESULT:      -8.8      3.820      9.784
REMARK  4 active torsions:
REMARK  status: ('A' for Active; 'I' for Inactive)
REMARK    1  A    between atoms: C2_2  and  C3_3 
REMARK       I    between atoms: C3_3  and  N1_5 
REMARK    2  A    between atoms: N1_5  and  C4_6 
REMARK    3  A    between atoms: N2_11  and  C9_12 
REMARK    4  A    between atoms: C11_16  and  C12_17 
REMARK       I    between atoms: N4_22  and  C17_23 
ROOT
HETATM    1  C9  UNL     1      24.481   3.034  50.335  1.00  0.00     0.727 A 
HETATM    2  N3  UNL     1      25.246   2.188  50.910  1.00  0.00    -0.079 NA
HETATM    3  C10 UNL     1      26.658   2.425  50.993  1.00  0.00     0.346 A 
HETATM    4  O2  UNL     1      27.010   3.614  50.364  1.00  0.00    -0.311 OA
HETATM    5  C11 UNL     1      26.140   4.490  49.760  1.00  0.00     0.195 A 
HETATM    6  N6  UNL     1      24.863   4.233  49.726  1.00  0.00    -0.038 NA
ENDROOT
BRANCH   5   7
HETATM    7  C12 UNL     1      26.670   5.700  49.164  1.00  0.00     0.017 C 
HETATM    8  C13 UNL     1      25.787   6.711  49.316  1.00  0.00     0.018 C 
HETATM    9  C14 UNL     1      25.868   8.059  48.692  1.00  0.00     0.027 C 
HETATM   10  C15 UNL     1      26.648   8.601  47.730  1.00  0.00     0.023 C 
HETATM   11  C16 UNL     1      26.710  10.007  48.301  1.00  0.00     0.182 C 
HETATM   12  N5  UNL     1      27.276   8.085  46.538  1.00  0.00    -0.384 N 
HETATM   13  N4  UNL     1      28.131  10.314  48.549  1.00  0.00    -0.347 N 
HETATM   14  C17 UNL     1      28.267  11.713  48.769  1.00  0.00     0.216 C 
HETATM   15  C19 UNL     1      29.203   9.314  48.561  1.00  0.00     0.128 C 
HETATM   16  C18 UNL     1      29.464  12.517  49.055  1.00  0.00     0.117 C 
HETATM   17  O3  UNL     1      27.141  12.260  48.685  1.00  0.00    -0.274 OA
HETATM   18  C20 UNL     1      29.473   8.709  47.232  1.00  0.00     0.049 C 
HETATM   19  C21 UNL     1      28.582   7.550  46.849  1.00  0.00     0.106 C 
HETATM   20  C22 UNL     1      28.622   6.416  47.762  1.00  0.00    -0.001 C 
HETATM   21  C23 UNL     1      27.988   5.541  48.564  1.00  0.00     0.014 C 
HETATM   22  H24 UNL     1      27.015   8.006  45.503  1.00  0.00     0.160 HD
ENDBRANCH   5   7
BRANCH   1  23
HETATM   23  N2  UNL     1      23.180   2.692  50.325  1.00  0.00    -0.176 N 
HETATM   24  C4  UNL     1      21.753   2.460  51.504  1.00  0.00     0.275 A 
HETATM   25  C5  UNL     1      21.432   2.225  50.292  1.00  0.00    -0.122 A 
HETATM   26  C6  UNL     1      21.219   2.058  49.398  1.00  0.00     0.063 A 
HETATM   27  C7  UNL     1      20.973   1.853  48.255  1.00  0.00     0.042 A 
HETATM   28  C8  UNL     1      22.448   2.314  48.816  1.00  0.00     0.133 A 
BRANCH  24  29
HETATM   29  N1  UNL     1      22.488   1.411  52.218  1.00  0.00    -0.326 N 
HETATM   30  C3  UNL     1      21.912   0.687  53.301  1.00  0.00     0.242 C 
HETATM   31  O1  UNL     1      20.735   1.077  53.526  1.00  0.00    -0.269 OA
HETATM   32  H4  UNL     1      23.454   1.246  51.868  1.00  0.00     0.165 HD
BRANCH  30  33
HETATM   33  C2  UNL     1      22.676  -0.348  53.984  1.00  0.00     0.064 C 
HETATM   34  C1  UNL     1      22.126  -1.339  54.662  1.00  0.00     0.017 C 
ENDBRANCH  30  33
ENDBRANCH  24  29
ENDBRANCH   1  23
TORSDOF 4
ENDMDL
MODEL 8
REMARK VINA RESULT:      -8.8      7.343     10.535
REMARK  4 active torsions:
REMARK  status: ('A' for Active; 'I' for Inactive)
REMARK    1  A    between atoms: C2_2  and  C3_3 
REMARK       I    between atoms: C3_3  and  N1_5 
REMARK    2  A    between atoms: N1_5  and  C4_6 
REMARK    3  A    between atoms: N2_11  and  C9_12 
REMARK    4  A    between atoms: C11_16  and  C12_17 
REMARK       I    between atoms: N4_22  and  C17_23 
ROOT
HETATM    1  C9  UNL     1      22.813   0.137  53.465  1.00  0.00     0.727 A 
HETATM    2  N3  UNL     1      23.004  -0.770  54.344  1.00  0.00    -0.079 NA
HETATM    3  C10 UNL     1      21.930  -1.633  54.742  1.00  0.00     0.346 A 
HETATM    4  O2  UNL     1      20.749  -1.310  54.082  1.00  0.00    -0.311 OA
HETATM    5  C11 UNL     1      20.602  -0.321  53.138  1.00  0.00     0.195 A 
HETATM    6  N6  UNL     1      21.616   0.426  52.803  1.00  0.00    -0.038 NA
ENDROOT
BRANCH   5   7
HETATM    7  C12 UNL     1      19.302  -0.126  52.529  1.00  0.00     0.017 C 
HETATM    8  C13 UNL     1      18.386  -0.906  53.144  1.00  0.00     0.018 C 
HETATM    9  C14 UNL     1      16.983  -1.138  52.708  1.00  0.00     0.027 C 
HETATM   10  C15 UNL     1      16.290  -0.840  51.586  1.00  0.00     0.023 C 
HETATM   11  C16 UNL     1      14.944  -0.602  52.248  1.00  0.00     0.182 C 
HETATM   12  N5  UNL     1      16.637  -0.737  50.189  1.00  0.00    -0.384 N 
HETATM   13  N4  UNL     1      14.546   0.784  51.938  1.00  0.00    -0.347 N 
HETATM   14  C17 UNL     1      13.167   0.946  52.251  1.00  0.00     0.216 C 
HETATM   15  C19 UNL     1      15.450   1.803  51.397  1.00  0.00     0.128 C 
HETATM   16  C18 UNL     1      12.298   2.125  52.125  1.00  0.00     0.117 C 
HETATM   17  O3  UNL     1      12.710  -0.135  52.694  1.00  0.00    -0.274 OA
HETATM   18  C20 UNL     1      15.902   1.527  50.009  1.00  0.00     0.049 C 
HETATM   19  C21 UNL     1      17.089   0.601  49.881  1.00  0.00     0.106 C 
HETATM   20  C22 UNL     1      18.298   1.053  50.557  1.00  0.00    -0.001 C 
HETATM   21  C23 UNL     1      19.294   0.835  51.435  1.00  0.00     0.014 C 
HETATM   22  H24 UNL     1      16.638  -1.395  49.345  1.00  0.00     0.160 HD
ENDBRANCH   5   7
BRANCH   1  23
HETATM   23  N2  UNL     1      23.901   0.876  53.182  1.00  0.00    -0.176 N 
HETATM   24  C4  UNL     1      24.516   2.630  53.332  1.00  0.00     0.275 A 
HETATM   25  C5  UNL     1      25.371   1.855  52.788  1.00  0.00    -0.122 A 
HETATM   26  C6  UNL     1      25.982   1.269  52.393  1.00  0.00     0.063 A 
HETATM   27  C7  UNL     1      26.740   0.504  51.894  1.00  0.00     0.042 A 
HETATM   28  C8  UNL     1      25.241   0.100  52.435  1.00  0.00     0.133 A 
BRANCH  24  29
HETATM   29  N1  UNL     1      23.416   3.109  52.491  1.00  0.00    -0.326 N 
HETATM   30  C3  UNL     1      22.998   4.472  52.494  1.00  0.00     0.242 C 
HETATM   31  O1  UNL     1      23.695   5.153  53.295  1.00  0.00    -0.269 OA
HETATM   32  H4  UNL     1      22.973   2.376  51.901  1.00  0.00     0.165 HD
BRANCH  30  33
HETATM   33  C2  UNL     1      21.900   4.907  51.643  1.00  0.00     0.064 C 
HETATM   34  C1  UNL     1      20.842   4.164  51.372  1.00  0.00     0.017 C 
ENDBRANCH  30  33
ENDBRANCH  24  29
ENDBRANCH   1  23
TORSDOF 4
ENDMDL
MODEL 9
REMARK VINA RESULT:      -8.6      3.587      9.007
REMARK  4 active torsions:
REMARK  status: ('A' for Active; 'I' for Inactive)
REMARK    1  A    between atoms: C2_2  and  C3_3 
REMARK       I    between atoms: C3_3  and  N1_5 
REMARK    2  A    between atoms: N1_5  and  C4_6 
REMARK    3  A    between atoms: N2_11  and  C9_12 
REMARK    4  A    between atoms: C11_16  and  C12_17 
REMARK       I    between atoms: N4_22  and  C17_23 
ROOT
HETATM    1  C9  UNL     1      22.841   4.687  50.498  1.00  0.00     0.727 A 
HETATM    2  N3  UNL     1      21.850   5.343  50.965  1.00  0.00    -0.079 NA
HETATM    3  C10 UNL     1      21.878   6.776  50.996  1.00  0.00     0.346 A 
HETATM    4  O2  UNL     1      23.081   7.270  50.503  1.00  0.00    -0.311 OA
HETATM    5  C11 UNL     1      24.117   6.513  50.009  1.00  0.00     0.195 A 
HETATM    6  N6  UNL     1      24.033   5.213  49.991  1.00  0.00    -0.038 NA
ENDROOT
BRANCH   5   7
HETATM    7  C12 UNL     1      25.300   7.188  49.514  1.00  0.00     0.017 C 
HETATM    8  C13 UNL     1      26.022   6.343  48.746  1.00  0.00     0.018 C 
HETATM    9  C14 UNL     1      27.385   6.585  48.203  1.00  0.00     0.027 C 
HETATM   10  C15 UNL     1      28.327   7.531  48.422  1.00  0.00     0.023 C 
HETATM   11  C16 UNL     1      28.890   7.573  47.012  1.00  0.00     0.182 C 
HETATM   12  N5  UNL     1      28.719   8.309  49.573  1.00  0.00    -0.384 N 
HETATM   13  N4  UNL     1      28.722   8.953  46.518  1.00  0.00    -0.347 N 
HETATM   14  C17 UNL     1      29.517   9.121  45.350  1.00  0.00     0.216 C 
HETATM   15  C19 UNL     1      27.864   9.958  47.151  1.00  0.00     0.128 C 
HETATM   16  C18 UNL     1      29.699  10.299  44.488  1.00  0.00     0.117 C 
HETATM   17  O3  UNL     1      30.119   8.050  45.096  1.00  0.00    -0.274 OA
HETATM   18  C20 UNL     1      28.344  10.400  48.485  1.00  0.00     0.049 C 
HETATM   19  C21 UNL     1      27.940   9.523  49.647  1.00  0.00     0.106 C 
HETATM   20  C22 UNL     1      26.503   9.366  49.829  1.00  0.00    -0.001 C 
HETATM   21  C23 UNL     1      25.422   8.573  49.948  1.00  0.00     0.014 C 
HETATM   22  H24 UNL     1      29.433   8.207  50.363  1.00  0.00     0.160 HD
ENDBRANCH   5   7
BRANCH   1  23
HETATM   23  N2  UNL     1      22.687   3.350  50.527  1.00  0.00    -0.176 N 
HETATM   24  C4  UNL     1      23.087   1.887  51.611  1.00  0.00     0.275 A 
HETATM   25  C5  UNL     1      22.475   1.553  50.543  1.00  0.00    -0.122 A 
HETATM   26  C6  UNL     1      22.026   1.332  49.754  1.00  0.00     0.063 A 
HETATM   27  C7  UNL     1      21.454   1.077  48.745  1.00  0.00     0.042 A 
HETATM   28  C8  UNL     1      21.887   2.595  49.205  1.00  0.00     0.133 A 
BRANCH  24  29
HETATM   29  N1  UNL     1      24.521   2.172  51.501  1.00  0.00    -0.326 N 
HETATM   30  C3  UNL     1      25.509   1.308  52.055  1.00  0.00     0.242 C 
HETATM   31  O1  UNL     1      24.973   0.316  52.619  1.00  0.00    -0.269 OA
HETATM   32  H4  UNL     1      24.748   3.049  50.991  1.00  0.00     0.165 HD
BRANCH  30  33
HETATM   33  C2  UNL     1      26.924   1.627  51.923  1.00  0.00     0.064 C 
HETATM   34  C1  UNL     1      27.662   2.108  52.908  1.00  0.00     0.017 C 
ENDBRANCH  30  33
ENDBRANCH  24  29
ENDBRANCH   1  23
TORSDOF 4
ENDMDL
