MODEL 1
REMARK VINA RESULT:     -11.2      0.000      0.000
REMARK  0 active torsions:
REMARK  status: ('A' for Active; 'I' for Inactive)
ROOT
HETATM    1  C1  UNL     1      25.997   1.727  53.341  1.00  0.00     0.020 C 
HETATM    2  C2  UNL     1      24.992   1.764  52.501  1.00  0.00    -0.054 C 
HETATM    3  C3  UNL     1      23.691   1.126  52.676  1.00  0.00     0.039 C 
HETATM    4  C4  UNL     1      23.653   0.003  53.695  1.00  0.00     0.005 C 
HETATM    5  C5  UNL     1      22.295  -0.705  53.544  1.00  0.00     0.000 C 
HETATM    6  C6  UNL     1      21.170   0.134  54.116  1.00  0.00     0.002 C 
HETATM    7  C7  UNL     1      19.834  -0.360  53.658  1.00  0.00     0.019 C 
HETATM    8  C8  UNL     1      19.501   0.084  52.233  1.00  0.00     0.113 C 
HETATM    9  N1  UNL     1      19.151   1.401  52.078  1.00  0.00    -0.419 N 
HETATM   10  C9  UNL     1      19.802   2.590  52.088  1.00  0.00     0.140 C 
HETATM   11  C10 UNL     1      20.617   3.093  50.946  1.00  0.00     0.188 C 
HETATM   12  O1  UNL     1      21.603   2.658  50.362  1.00  0.00    -0.377 OA
HETATM   13  C11 UNL     1      22.616   2.211  49.762  1.00  0.00     0.169 C 
HETATM   14  C12 UNL     1      22.684   3.082  48.433  1.00  0.00     0.033 C 
HETATM   15  C13 UNL     1      22.787   4.403  48.551  1.00  0.00     0.133 C 
HETATM   16  O2  UNL     1      22.894   5.687  48.018  1.00  0.00    -0.359 OA
HETATM   17  C14 UNL     1      23.666   6.721  48.635  1.00  0.00     0.213 C 
HETATM   18  C15 UNL     1      25.123   6.463  48.603  1.00  0.00    -0.034 A 
HETATM   19  C16 UNL     1      26.180   7.304  48.319  1.00  0.00     0.009 A 
HETATM   20  C17 UNL     1      27.505   6.872  48.348  1.00  0.00     0.001 A 
HETATM   21  C18 UNL     1      27.850   5.554  48.666  1.00  0.00     0.007 A 
HETATM   22  C19 UNL     1      26.897   4.589  48.974  1.00  0.00    -0.050 A 
HETATM   23  C20 UNL     1      25.729   5.281  48.870  1.00  0.00     0.017 A 
HETATM   24  C21 UNL     1      26.839   3.161  49.285  1.00  0.00     0.122 C 
HETATM   25  C22 UNL     1      26.435   2.751  50.647  1.00  0.00     0.164 C 
HETATM   26  O3  UNL     1      27.295   2.754  51.551  1.00  0.00    -0.292 OA
HETATM   27  C23 UNL     1      25.080   2.306  51.133  1.00  0.00     0.015 C 
HETATM   28  C24 UNL     1      23.999   2.337  50.334  1.00  0.00     0.024 C 
HETATM   29  H15 UNL     1      18.149   1.548  51.723  1.00  0.00     0.153 HD
ENDROOT
TORSDOF 0
ENDMDL
MODEL 2
REMARK VINA RESULT:      -9.9      2.298      6.928
REMARK  0 active torsions:
REMARK  status: ('A' for Active; 'I' for Inactive)
ROOT
HETATM    1  C1  UNL     1      26.809   3.187  49.356  1.00  0.00     0.020 C 
HETATM    2  C2  UNL     1      25.826   3.937  49.789  1.00  0.00    -0.054 C 
HETATM    3  C3  UNL     1      25.477   5.271  49.312  1.00  0.00     0.039 C 
HETATM    4  C4  UNL     1      26.581   6.001  48.570  1.00  0.00     0.005 C 
HETATM    5  C5  UNL     1      26.122   7.459  48.389  1.00  0.00     0.000 C 
HETATM    6  C6  UNL     1      25.046   7.570  47.327  1.00  0.00     0.002 C 
HETATM    7  C7  UNL     1      24.346   8.890  47.396  1.00  0.00     0.019 C 
HETATM    8  C8  UNL     1      23.307   8.946  48.518  1.00  0.00     0.113 C 
HETATM    9  N1  UNL     1      22.144   8.254  48.298  1.00  0.00    -0.419 N 
HETATM   10  C9  UNL     1      21.772   6.951  48.283  1.00  0.00     0.140 C 
HETATM   11  C10 UNL     1      21.540   6.146  49.516  1.00  0.00     0.188 C 
HETATM   12  O1  UNL     1      22.251   5.841  50.466  1.00  0.00    -0.377 OA
HETATM   13  C11 UNL     1      22.982   5.528  51.442  1.00  0.00     0.169 C 
HETATM   14  C12 UNL     1      21.953   4.991  52.529  1.00  0.00     0.033 C 
HETATM   15  C13 UNL     1      21.180   3.958  52.207  1.00  0.00     0.133 C 
HETATM   16  O2  UNL     1      20.193   3.015  52.494  1.00  0.00    -0.359 OA
HETATM   17  C14 UNL     1      20.228   1.678  51.988  1.00  0.00     0.213 C 
HETATM   18  C15 UNL     1      21.328   0.865  52.553  1.00  0.00    -0.034 A 
HETATM   19  C16 UNL     1      21.343  -0.437  53.010  1.00  0.00     0.009 A 
HETATM   20  C17 UNL     1      22.498  -1.039  53.507  1.00  0.00     0.001 A 
HETATM   21  C18 UNL     1      23.719  -0.361  53.575  1.00  0.00     0.007 A 
HETATM   22  C19 UNL     1      23.863   0.956  53.153  1.00  0.00    -0.050 A 
HETATM   23  C20 UNL     1      22.609   1.272  52.729  1.00  0.00     0.017 A 
HETATM   24  C21 UNL     1      24.896   1.991  53.115  1.00  0.00     0.122 C 
HETATM   25  C22 UNL     1      25.412   2.425  51.799  1.00  0.00     0.164 C 
HETATM   26  O3  UNL     1      26.299   1.739  51.250  1.00  0.00    -0.292 OA
HETATM   27  C23 UNL     1      25.015   3.627  50.981  1.00  0.00     0.015 C 
HETATM   28  C24 UNL     1      24.002   4.428  51.352  1.00  0.00     0.024 C 
HETATM   29  H15 UNL     1      21.267   8.873  48.264  1.00  0.00     0.153 HD
ENDROOT
TORSDOF 0
ENDMDL
MODEL 3
REMARK VINA RESULT:      -9.4      2.193      7.341
REMARK  0 active torsions:
REMARK  status: ('A' for Active; 'I' for Inactive)
ROOT
HETATM    1  C1  UNL     1      24.832  -0.567  52.464  1.00  0.00     0.020 C 
HETATM    2  C2  UNL     1      24.184   0.535  52.176  1.00  0.00    -0.054 C 
HETATM    3  C3  UNL     1      24.737   1.726  51.540  1.00  0.00     0.039 C 
HETATM    4  C4  UNL     1      26.248   1.851  51.607  1.00  0.00     0.005 C 
HETATM    5  C5  UNL     1      26.609   3.270  51.132  1.00  0.00     0.000 C 
HETATM    6  C6  UNL     1      26.453   3.406  49.630  1.00  0.00     0.002 C 
HETATM    7  C7  UNL     1      26.445   4.841  49.210  1.00  0.00     0.019 C 
HETATM    8  C8  UNL     1      25.094   5.517  49.456  1.00  0.00     0.113 C 
HETATM    9  N1  UNL     1      24.085   5.179  48.592  1.00  0.00    -0.419 N 
HETATM   10  C9  UNL     1      23.289   4.099  48.397  1.00  0.00     0.140 C 
HETATM   11  C10 UNL     1      22.113   3.775  49.254  1.00  0.00     0.188 C 
HETATM   12  O1  UNL     1      21.985   3.544  50.451  1.00  0.00    -0.377 OA
HETATM   13  C11 UNL     1      21.854   3.305  51.680  1.00  0.00     0.169 C 
HETATM   14  C12 UNL     1      20.287   3.428  51.924  1.00  0.00     0.033 C 
HETATM   15  C13 UNL     1      19.478   2.632  51.230  1.00  0.00     0.133 C 
HETATM   16  O2  UNL     1      18.216   2.150  50.884  1.00  0.00    -0.359 OA
HETATM   17  C14 UNL     1      17.972   0.781  50.552  1.00  0.00     0.213 C 
HETATM   18  C15 UNL     1      18.132  -0.139  51.700  1.00  0.00    -0.034 A 
HETATM   19  C16 UNL     1      17.359  -1.204  52.115  1.00  0.00     0.009 A 
HETATM   20  C17 UNL     1      17.681  -1.967  53.236  1.00  0.00     0.001 A 
HETATM   21  C18 UNL     1      18.812  -1.700  54.017  1.00  0.00     0.007 A 
HETATM   22  C19 UNL     1      19.687  -0.660  53.727  1.00  0.00    -0.050 A 
HETATM   23  C20 UNL     1      19.135  -0.107  52.612  1.00  0.00     0.017 A 
HETATM   24  C21 UNL     1      20.884  -0.040  54.295  1.00  0.00     0.122 C 
HETATM   25  C22 UNL     1      22.160  -0.164  53.559  1.00  0.00     0.164 C 
HETATM   26  O3  UNL     1      22.827  -1.210  53.694  1.00  0.00    -0.292 OA
HETATM   27  C23 UNL     1      22.811   0.827  52.629  1.00  0.00     0.015 C 
HETATM   28  C24 UNL     1      22.197   1.967  52.272  1.00  0.00     0.024 C 
HETATM   29  H15 UNL     1      23.718   6.000  48.005  1.00  0.00     0.153 HD
ENDROOT
TORSDOF 0
ENDMDL
MODEL 4
REMARK VINA RESULT:      -9.2      2.999      6.365
REMARK  0 active torsions:
REMARK  status: ('A' for Active; 'I' for Inactive)
ROOT
HETATM    1  C1  UNL     1      22.287  -1.524  53.436  1.00  0.00     0.020 C 
HETATM    2  C2  UNL     1      22.785  -0.327  53.246  1.00  0.00    -0.054 C 
HETATM    3  C3  UNL     1      24.145   0.106  53.551  1.00  0.00     0.039 C 
HETATM    4  C4  UNL     1      24.895  -0.767  54.539  1.00  0.00     0.005 C 
HETATM    5  C5  UNL     1      26.180  -0.015  54.929  1.00  0.00     0.000 C 
HETATM    6  C6  UNL     1      27.199  -0.046  53.807  1.00  0.00     0.002 C 
HETATM    7  C7  UNL     1      28.278   0.966  54.022  1.00  0.00     0.019 C 
HETATM    8  C8  UNL     1      27.840   2.381  53.643  1.00  0.00     0.113 C 
HETATM    9  N1  UNL     1      27.753   2.648  52.301  1.00  0.00    -0.419 N 
HETATM   10  C9  UNL     1      26.902   2.325  51.296  1.00  0.00     0.140 C 
HETATM   11  C10 UNL     1      25.576   2.977  51.098  1.00  0.00     0.188 C 
HETATM   12  O1  UNL     1      24.575   3.073  51.797  1.00  0.00    -0.377 OA
HETATM   13  C11 UNL     1      23.545   3.171  52.516  1.00  0.00     0.169 C 
HETATM   14  C12 UNL     1      22.696   4.314  51.807  1.00  0.00     0.033 C 
HETATM   15  C13 UNL     1      22.335   4.134  50.540  1.00  0.00     0.133 C 
HETATM   16  O2  UNL     1      21.696   4.538  49.368  1.00  0.00    -0.359 OA
HETATM   17  C14 UNL     1      21.041   3.621  48.487  1.00  0.00     0.213 C 
HETATM   18  C15 UNL     1      19.827   3.010  49.072  1.00  0.00    -0.034 A 
HETATM   19  C16 UNL     1      18.582   2.778  48.524  1.00  0.00     0.009 A 
HETATM   20  C17 UNL     1      17.551   2.174  49.244  1.00  0.00     0.001 A 
HETATM   21  C18 UNL     1      17.714   1.764  50.571  1.00  0.00     0.007 A 
HETATM   22  C19 UNL     1      18.910   1.930  51.261  1.00  0.00    -0.050 A 
HETATM   23  C20 UNL     1      19.708   2.526  50.333  1.00  0.00     0.017 A 
HETATM   24  C21 UNL     1      19.444   1.708  52.604  1.00  0.00     0.122 C 
HETATM   25  C22 UNL     1      20.487   0.675  52.786  1.00  0.00     0.164 C 
HETATM   26  O3  UNL     1      20.133  -0.517  52.898  1.00  0.00    -0.292 OA
HETATM   27  C23 UNL     1      21.981   0.849  52.865  1.00  0.00     0.015 C 
HETATM   28  C24 UNL     1      22.564   2.043  52.659  1.00  0.00     0.024 C 
HETATM   29  H15 UNL     1      28.431   3.407  51.961  1.00  0.00     0.153 HD
ENDROOT
TORSDOF 0
ENDMDL
MODEL 5
REMARK VINA RESULT:      -9.1      2.630      7.009
REMARK  0 active torsions:
REMARK  status: ('A' for Active; 'I' for Inactive)
ROOT
HETATM    1  C1  UNL     1      20.376   3.922  52.031  1.00  0.00     0.020 C 
HETATM    2  C2  UNL     1      21.476   4.049  51.331  1.00  0.00    -0.054 C 
HETATM    3  C3  UNL     1      21.767   5.094  50.354  1.00  0.00     0.039 C 
HETATM    4  C4  UNL     1      20.555   5.826  49.810  1.00  0.00     0.005 C 
HETATM    5  C5  UNL     1      21.033   6.681  48.623  1.00  0.00     0.000 C 
HETATM    6  C6  UNL     1      21.814   7.892  49.096  1.00  0.00     0.002 C 
HETATM    7  C7  UNL     1      22.581   8.518  47.975  1.00  0.00     0.019 C 
HETATM    8  C8  UNL     1      23.868   7.759  47.649  1.00  0.00     0.113 C 
HETATM    9  N1  UNL     1      24.900   7.910  48.539  1.00  0.00    -0.419 N 
HETATM   10  C9  UNL     1      25.183   7.463  49.787  1.00  0.00     0.140 C 
HETATM   11  C10 UNL     1      25.672   6.085  50.078  1.00  0.00     0.188 C 
HETATM   12  O1  UNL     1      25.206   4.970  49.880  1.00  0.00    -0.377 OA
HETATM   13  C11 UNL     1      24.726   3.823  49.677  1.00  0.00     0.169 C 
HETATM   14  C12 UNL     1      25.963   2.850  49.901  1.00  0.00     0.033 C 
HETATM   15  C13 UNL     1      26.573   2.871  51.083  1.00  0.00     0.133 C 
HETATM   16  O2  UNL     1      27.547   2.431  51.980  1.00  0.00    -0.359 OA
HETATM   17  C14 UNL     1      27.313   2.322  53.386  1.00  0.00     0.213 C 
HETATM   18  C15 UNL     1      26.346   1.260  53.740  1.00  0.00    -0.034 A 
HETATM   19  C16 UNL     1      26.374   0.314  54.746  1.00  0.00     0.009 A 
HETATM   20  C17 UNL     1      25.349  -0.613  54.926  1.00  0.00     0.001 A 
HETATM   21  C18 UNL     1      24.223  -0.646  54.097  1.00  0.00     0.007 A 
HETATM   22  C19 UNL     1      24.050   0.241  53.040  1.00  0.00    -0.050 A 
HETATM   23  C20 UNL     1      25.174   1.006  53.107  1.00  0.00     0.017 A 
HETATM   24  C21 UNL     1      23.099   0.488  51.956  1.00  0.00     0.122 C 
HETATM   25  C22 UNL     1      22.295   1.728  51.992  1.00  0.00     0.164 C 
HETATM   26  O3  UNL     1      21.263   1.750  52.694  1.00  0.00    -0.292 OA
HETATM   27  C23 UNL     1      22.541   3.031  51.275  1.00  0.00     0.015 C 
HETATM   28  C24 UNL     1      23.657   3.241  50.557  1.00  0.00     0.024 C 
HETATM   29  H15 UNL     1      25.773   8.376  48.123  1.00  0.00     0.153 HD
ENDROOT
TORSDOF 0
ENDMDL
MODEL 6
REMARK VINA RESULT:      -8.7      3.031      5.605
REMARK  0 active torsions:
REMARK  status: ('A' for Active; 'I' for Inactive)
ROOT
HETATM    1  C1  UNL     1      19.114  -0.929  53.820  1.00  0.00     0.020 C 
HETATM    2  C2  UNL     1      19.416  -0.299  52.712  1.00  0.00    -0.054 C 
HETATM    3  C3  UNL     1      18.478   0.166  51.695  1.00  0.00     0.039 C 
HETATM    4  C4  UNL     1      17.115  -0.498  51.721  1.00  0.00     0.005 C 
HETATM    5  C5  UNL     1      16.379  -0.080  50.435  1.00  0.00     0.000 C 
HETATM    6  C6  UNL     1      15.912   1.360  50.511  1.00  0.00     0.002 C 
HETATM    7  C7  UNL     1      15.530   1.881  49.162  1.00  0.00     0.019 C 
HETATM    8  C8  UNL     1      16.745   2.273  48.319  1.00  0.00     0.113 C 
HETATM    9  N1  UNL     1      17.375   3.437  48.675  1.00  0.00    -0.419 N 
HETATM   10  C9  UNL     1      18.190   3.837  49.682  1.00  0.00     0.140 C 
HETATM   11  C10 UNL     1      19.643   3.507  49.747  1.00  0.00     0.188 C 
HETATM   12  O1  UNL     1      20.263   2.451  49.782  1.00  0.00    -0.377 OA
HETATM   13  C11 UNL     1      20.900   1.365  49.817  1.00  0.00     0.169 C 
HETATM   14  C12 UNL     1      22.397   1.794  49.495  1.00  0.00     0.033 C 
HETATM   15  C13 UNL     1      22.984   2.678  50.297  1.00  0.00     0.133 C 
HETATM   16  O2  UNL     1      24.070   3.462  50.689  1.00  0.00    -0.359 OA
HETATM   17  C14 UNL     1      24.376   3.733  52.059  1.00  0.00     0.213 C 
HETATM   18  C15 UNL     1      24.824   2.537  52.807  1.00  0.00    -0.034 A 
HETATM   19  C16 UNL     1      25.855   2.375  53.711  1.00  0.00     0.009 A 
HETATM   20  C17 UNL     1      26.120   1.152  54.326  1.00  0.00     0.001 A 
HETATM   21  C18 UNL     1      25.358   0.008  54.066  1.00  0.00     0.007 A 
HETATM   22  C19 UNL     1      24.288   0.013  53.179  1.00  0.00    -0.050 A 
HETATM   23  C20 UNL     1      24.266   1.304  52.745  1.00  0.00     0.017 A 
HETATM   24  C21 UNL     1      23.327  -0.932  52.610  1.00  0.00     0.122 C 
HETATM   25  C22 UNL     1      21.902  -0.796  52.978  1.00  0.00     0.164 C 
HETATM   26  O3  UNL     1      21.513  -1.289  54.056  1.00  0.00    -0.292 OA
HETATM   27  C23 UNL     1      20.792  -0.123  52.212  1.00  0.00     0.015 C 
HETATM   28  C24 UNL     1      21.030   0.560  51.080  1.00  0.00     0.024 C 
HETATM   29  H15 UNL     1      17.350   4.198  47.917  1.00  0.00     0.153 HD
ENDROOT
TORSDOF 0
ENDMDL
MODEL 7
REMARK VINA RESULT:      -8.7      2.574      4.132
REMARK  0 active torsions:
REMARK  status: ('A' for Active; 'I' for Inactive)
ROOT
HETATM    1  C1  UNL     1      25.524   2.884  51.160  1.00  0.00     0.020 C 
HETATM    2  C2  UNL     1      24.399   2.216  51.230  1.00  0.00    -0.054 C 
HETATM    3  C3  UNL     1      24.090   1.130  52.153  1.00  0.00     0.039 C 
HETATM    4  C4  UNL     1      25.294   0.453  52.780  1.00  0.00     0.005 C 
HETATM    5  C5  UNL     1      24.785  -0.812  53.495  1.00  0.00     0.000 C 
HETATM    6  C6  UNL     1      24.051  -0.463  54.775  1.00  0.00     0.002 C 
HETATM    7  C7  UNL     1      23.252  -1.623  55.279  1.00  0.00     0.019 C 
HETATM    8  C8  UNL     1      21.936  -1.802  54.521  1.00  0.00     0.113 C 
HETATM    9  N1  UNL     1      20.946  -0.898  54.808  1.00  0.00    -0.419 N 
HETATM   10  C9  UNL     1      20.705   0.406  54.526  1.00  0.00     0.140 C 
HETATM   11  C10 UNL     1      20.199   0.885  53.208  1.00  0.00     0.188 C 
HETATM   12  O1  UNL     1      20.633   0.808  52.064  1.00  0.00    -0.377 OA
HETATM   13  C11 UNL     1      21.078   0.730  50.889  1.00  0.00     0.169 C 
HETATM   14  C12 UNL     1      19.831   1.122  49.984  1.00  0.00     0.033 C 
HETATM   15  C13 UNL     1      19.271   2.315  50.167  1.00  0.00     0.133 C 
HETATM   16  O2  UNL     1      18.327   3.296  49.867  1.00  0.00    -0.359 OA
HETATM   17  C14 UNL     1      18.616   4.695  49.926  1.00  0.00     0.213 C 
HETATM   18  C15 UNL     1      19.574   5.140  48.889  1.00  0.00    -0.034 A 
HETATM   19  C16 UNL     1      19.567   6.256  48.076  1.00  0.00     0.009 A 
HETATM   20  C17 UNL     1      20.578   6.510  47.151  1.00  0.00     0.001 A 
HETATM   21  C18 UNL     1      21.668   5.648  46.986  1.00  0.00     0.007 A 
HETATM   22  C19 UNL     1      21.815   4.484  47.731  1.00  0.00    -0.050 A 
HETATM   23  C20 UNL     1      20.712   4.498  48.528  1.00  0.00     0.017 A 
HETATM   24  C21 UNL     1      22.725   3.342  47.817  1.00  0.00     0.122 C 
HETATM   25  C22 UNL     1      23.557   3.192  49.030  1.00  0.00     0.164 C 
HETATM   26  O3  UNL     1      24.618   3.845  49.111  1.00  0.00    -0.292 OA
HETATM   27  C23 UNL     1      23.310   2.329  50.241  1.00  0.00     0.015 C 
HETATM   28  C24 UNL     1      22.170   1.634  50.391  1.00  0.00     0.024 C 
HETATM   29  H15 UNL     1      20.067  -1.335  55.242  1.00  0.00     0.153 HD
ENDROOT
TORSDOF 0
ENDMDL
MODEL 8
REMARK VINA RESULT:      -8.3      1.595      4.296
REMARK  0 active torsions:
REMARK  status: ('A' for Active; 'I' for Inactive)
ROOT
HETATM    1  C1  UNL     1      19.977   3.548  48.279  1.00  0.00     0.020 C 
HETATM    2  C2  UNL     1      20.498   3.198  49.429  1.00  0.00    -0.054 C 
HETATM    3  C3  UNL     1      19.917   2.277  50.400  1.00  0.00     0.039 C 
HETATM    4  C4  UNL     1      18.424   2.047  50.259  1.00  0.00     0.005 C 
HETATM    5  C5  UNL     1      17.961   1.278  51.510  1.00  0.00     0.000 C 
HETATM    6  C6  UNL     1      18.403  -0.171  51.461  1.00  0.00     0.002 C 
HETATM    7  C7  UNL     1      18.284  -0.823  52.802  1.00  0.00     0.019 C 
HETATM    8  C8  UNL     1      19.437  -0.456  53.737  1.00  0.00     0.113 C 
HETATM    9  N1  UNL     1      20.643  -1.052  53.470  1.00  0.00    -0.419 N 
HETATM   10  C9  UNL     1      21.614  -0.912  52.535  1.00  0.00     0.140 C 
HETATM   11  C10 UNL     1      22.621   0.187  52.551  1.00  0.00     0.188 C 
HETATM   12  O1  UNL     1      22.532   1.409  52.515  1.00  0.00    -0.377 OA
HETATM   13  C11 UNL     1      22.440   2.664  52.477  1.00  0.00     0.169 C 
HETATM   14  C12 UNL     1      23.886   3.163  52.913  1.00  0.00     0.033 C 
HETATM   15  C13 UNL     1      24.930   2.774  52.187  1.00  0.00     0.133 C 
HETATM   16  O2  UNL     1      26.294   2.750  51.898  1.00  0.00    -0.359 OA
HETATM   17  C14 UNL     1      26.803   2.708  50.562  1.00  0.00     0.213 C 
HETATM   18  C15 UNL     1      26.548   3.949  49.798  1.00  0.00    -0.034 A 
HETATM   19  C16 UNL     1      27.369   4.673  48.957  1.00  0.00     0.009 A 
HETATM   20  C17 UNL     1      26.939   5.832  48.312  1.00  0.00     0.001 A 
HETATM   21  C18 UNL     1      25.644   6.337  48.476  1.00  0.00     0.007 A 
HETATM   22  C19 UNL     1      24.703   5.719  49.292  1.00  0.00    -0.050 A 
HETATM   23  C20 UNL     1      25.385   4.644  49.774  1.00  0.00     0.017 A 
HETATM   24  C21 UNL     1      23.335   5.946  49.758  1.00  0.00     0.122 C 
HETATM   25  C22 UNL     1      22.272   5.024  49.305  1.00  0.00     0.164 C 
HETATM   26  O3  UNL     1      21.756   5.213  48.185  1.00  0.00    -0.292 OA
HETATM   27  C23 UNL     1      21.688   3.835  50.023  1.00  0.00     0.015 C 
HETATM   28  C24 UNL     1      22.185   3.405  51.195  1.00  0.00     0.024 C 
HETATM   29  H15 UNL     1      20.997  -1.695  54.255  1.00  0.00     0.153 HD
ENDROOT
TORSDOF 0
ENDMDL
MODEL 9
REMARK VINA RESULT:      -8.3      2.762      7.646
REMARK  0 active torsions:
REMARK  status: ('A' for Active; 'I' for Inactive)
ROOT
HETATM    1  C1  UNL     1      19.423   5.374  49.749  1.00  0.00     0.020 C 
HETATM    2  C2  UNL     1      20.713   5.413  49.523  1.00  0.00    -0.054 C 
HETATM    3  C3  UNL     1      21.465   6.538  48.977  1.00  0.00     0.039 C 
HETATM    4  C4  UNL     1      20.638   7.568  48.232  1.00  0.00     0.005 C 
HETATM    5  C5  UNL     1      21.620   8.512  47.517  1.00  0.00     0.000 C 
HETATM    6  C6  UNL     1      22.292   9.454  48.497  1.00  0.00     0.002 C 
HETATM    7  C7  UNL     1      23.490  10.110  47.888  1.00  0.00     0.019 C 
HETATM    8  C8  UNL     1      24.713   9.193  47.862  1.00  0.00     0.113 C 
HETATM    9  N1  UNL     1      25.341   8.990  49.064  1.00  0.00    -0.419 N 
HETATM   10  C9  UNL     1      25.080   8.287  50.194  1.00  0.00     0.140 C 
HETATM   11  C10 UNL     1      25.268   6.813  50.309  1.00  0.00     0.188 C 
HETATM   12  O1  UNL     1      24.791   5.856  49.709  1.00  0.00    -0.377 OA
HETATM   13  C11 UNL     1      24.301   4.874  49.093  1.00  0.00     0.169 C 
HETATM   14  C12 UNL     1      25.246   3.661  49.501  1.00  0.00     0.033 C 
HETATM   15  C13 UNL     1      25.362   3.361  50.792  1.00  0.00     0.133 C 
HETATM   16  O2  UNL     1      25.869   2.597  51.843  1.00  0.00    -0.359 OA
HETATM   17  C14 UNL     1      25.110   2.291  53.016  1.00  0.00     0.213 C 
HETATM   18  C15 UNL     1      23.970   1.383  52.756  1.00  0.00    -0.034 A 
HETATM   19  C16 UNL     1      23.512   0.289  53.462  1.00  0.00     0.009 A 
HETATM   20  C17 UNL     1      22.400  -0.447  53.056  1.00  0.00     0.001 A 
HETATM   21  C18 UNL     1      21.675  -0.123  51.904  1.00  0.00     0.007 A 
HETATM   22  C19 UNL     1      22.014   0.951  51.089  1.00  0.00    -0.050 A 
HETATM   23  C20 UNL     1      23.106   1.468  51.716  1.00  0.00     0.017 A 
HETATM   24  C21 UNL     1      21.577   1.557  49.831  1.00  0.00     0.122 C 
HETATM   25  C22 UNL     1      20.961   2.900  49.872  1.00  0.00     0.164 C 
HETATM   26  O3  UNL     1      19.749   2.993  50.157  1.00  0.00    -0.292 OA
HETATM   27  C23 UNL     1      21.601   4.238  49.606  1.00  0.00     0.015 C 
HETATM   28  C24 UNL     1      22.921   4.357  49.389  1.00  0.00     0.024 C 
HETATM   29  H15 UNL     1      26.352   9.349  49.096  1.00  0.00     0.153 HD
ENDROOT
TORSDOF 0
ENDMDL
