MODEL 1
REMARK VINA RESULT:      -8.1      0.000      0.000
REMARK  4 active torsions:
REMARK  status: ('A' for Active; 'I' for Inactive)
REMARK    1  A    between atoms: C5_6  and  N1_7 
REMARK    2  A    between atoms: N1_7  and  C6_8 
REMARK    3  A    between atoms: C6_8  and  N2_9 
REMARK    4  A    between atoms: C9_14  and  C10_15 
ROOT
HETATM    1  N2  UNL     1      20.546   3.212  50.951  1.00  0.00    -0.086 NA
HETATM    2  C7  UNL     1      21.590   3.964  50.957  1.00  0.00     0.720 C 
HETATM    3  N3  UNL     1      22.147   4.273  52.254  1.00  0.00    -0.059 NA
HETATM    4  C8  UNL     1      23.349   4.751  52.477  1.00  0.00     0.223 C 
HETATM    5  N4  UNL     1      24.467   5.118  51.654  1.00  0.00    -0.374 N 
HETATM    6  C9  UNL     1      24.468   4.784  50.246  1.00  0.00     0.135 C 
HETATM    7  C16 UNL     1      23.245   5.311  49.509  1.00  0.00     0.168 C 
HETATM    8  N5  UNL     1      22.098   4.417  49.703  1.00  0.00    -0.220 N 
HETATM    9  H8  UNL     1      25.164   5.615  52.274  1.00  0.00     0.161 HD
HETATM   10  H15 UNL     1      21.596   4.071  48.849  1.00  0.00     0.177 HD
ENDROOT
BRANCH   1  11
HETATM   11  C6  UNL     1      20.045   2.763  52.226  1.00  0.00     0.290 C 
BRANCH  11  12
HETATM   12  N1  UNL     1      19.984   1.296  52.175  1.00  0.00    -0.371 N 
HETATM   13  H4  UNL     1      19.294   0.765  51.630  1.00  0.00     0.161 HD
BRANCH  12  14
HETATM   14  C5  UNL     1      20.952   0.556  52.937  1.00  0.00     0.032 A 
HETATM   15  C4  UNL     1      20.565  -0.281  53.968  1.00  0.00     0.029 A 
HETATM   16  C3  UNL     1      21.536  -0.976  54.674  1.00  0.00     0.005 A 
HETATM   17  C2  UNL     1      22.879  -0.873  54.398  1.00  0.00     0.042 A 
HETATM   18  C1  UNL     1      23.280  -0.036  53.364  1.00  0.00     0.118 A 
HETATM   19  F1  UNL     1      24.568   0.183  52.956  1.00  0.00    -0.206 F 
HETATM   20  C17 UNL     1      22.307   0.645  52.673  1.00  0.00     0.071 A 
ENDBRANCH  12  14
ENDBRANCH  11  12
ENDBRANCH   1  11
BRANCH   6  21
HETATM   21  C10 UNL     1      25.697   5.214  49.538  1.00  0.00    -0.012 A 
HETATM   22  C11 UNL     1      25.815   6.543  49.114  1.00  0.00     0.012 A 
HETATM   23  C12 UNL     1      26.881   7.103  48.440  1.00  0.00     0.024 A 
HETATM   24  C13 UNL     1      27.938   6.260  48.159  1.00  0.00     0.035 A 
HETATM   25 CL1  UNL     1      29.296   6.962  47.304  1.00  0.00    -0.084 Cl
HETATM   26  C14 UNL     1      27.886   4.938  48.548  1.00  0.00     0.048 A 
HETATM   27  C15 UNL     1      26.791   4.437  49.220  1.00  0.00     0.044 A 
HETATM   28 CL2  UNL     1      26.749   2.763  49.714  1.00  0.00    -0.084 Cl
ENDBRANCH   6  21
TORSDOF 4
ENDMDL
MODEL 2
REMARK VINA RESULT:      -8.0      4.347      7.961
REMARK  4 active torsions:
REMARK  status: ('A' for Active; 'I' for Inactive)
REMARK    1  A    between atoms: C5_6  and  N1_7 
REMARK    2  A    between atoms: N1_7  and  C6_8 
REMARK    3  A    between atoms: C6_8  and  N2_9 
REMARK    4  A    between atoms: C9_14  and  C10_15 
ROOT
HETATM    1  N2  UNL     1      24.247   3.237  51.738  1.00  0.00    -0.086 NA
HETATM    2  C7  UNL     1      23.116   2.769  51.341  1.00  0.00     0.720 C 
HETATM    3  N3  UNL     1      23.061   2.303  49.975  1.00  0.00    -0.059 NA
HETATM    4  C8  UNL     1      22.131   1.529  49.467  1.00  0.00     0.223 C 
HETATM    5  N4  UNL     1      20.942   0.900  49.971  1.00  0.00    -0.374 N 
HETATM    6  C9  UNL     1      20.672   0.902  51.392  1.00  0.00     0.135 C 
HETATM    7  C16 UNL     1      20.665   2.300  51.995  1.00  0.00     0.168 C 
HETATM    8  N5  UNL     1      22.033   2.750  52.272  1.00  0.00    -0.220 N 
HETATM    9  H8  UNL     1      20.419   0.506  49.142  1.00  0.00     0.161 HD
HETATM   10  H15 UNL     1      22.250   3.094  53.240  1.00  0.00     0.177 HD
ENDROOT
BRANCH   1  11
HETATM   11  C6  UNL     1      25.329   3.248  50.786  1.00  0.00     0.290 C 
BRANCH  11  12
HETATM   12  N1  UNL     1      26.582   3.232  51.555  1.00  0.00    -0.371 N 
HETATM   13  H4  UNL     1      27.194   4.048  51.679  1.00  0.00     0.161 HD
BRANCH  12  14
HETATM   14  C5  UNL     1      26.977   1.995  52.171  1.00  0.00     0.032 A 
HETATM   15  C4  UNL     1      26.510   0.780  51.704  1.00  0.00     0.029 A 
HETATM   16  C3  UNL     1      26.922  -0.387  52.331  1.00  0.00     0.005 A 
HETATM   17  C2  UNL     1      27.779  -0.396  53.406  1.00  0.00     0.042 A 
HETATM   18  C1  UNL     1      28.254   0.818  53.883  1.00  0.00     0.118 A 
HETATM   19  F1  UNL     1      29.111   0.992  54.937  1.00  0.00    -0.206 F 
HETATM   20  C17 UNL     1      27.839   1.965  53.252  1.00  0.00     0.071 A 
ENDBRANCH  12  14
ENDBRANCH  11  12
ENDBRANCH   1  11
BRANCH   6  21
HETATM   21  C10 UNL     1      19.418   0.199  51.756  1.00  0.00    -0.012 A 
HETATM   22  C11 UNL     1      18.319   0.265  50.891  1.00  0.00     0.012 A 
HETATM   23  C12 UNL     1      17.085  -0.322  51.078  1.00  0.00     0.024 A 
HETATM   24  C13 UNL     1      16.923  -1.047  52.242  1.00  0.00     0.035 A 
HETATM   25 CL1  UNL     1      15.358  -1.796  52.489  1.00  0.00    -0.084 Cl
HETATM   26  C14 UNL     1      17.965  -1.153  53.138  1.00  0.00     0.048 A 
HETATM   27  C15 UNL     1      19.178  -0.543  52.893  1.00  0.00     0.044 A 
HETATM   28 CL2  UNL     1      20.489  -0.696  54.035  1.00  0.00    -0.084 Cl
ENDBRANCH   6  21
TORSDOF 4
ENDMDL
MODEL 3
REMARK VINA RESULT:      -8.0      2.568      7.582
REMARK  4 active torsions:
REMARK  status: ('A' for Active; 'I' for Inactive)
REMARK    1  A    between atoms: C5_6  and  N1_7 
REMARK    2  A    between atoms: N1_7  and  C6_8 
REMARK    3  A    between atoms: C6_8  and  N2_9 
REMARK    4  A    between atoms: C9_14  and  C10_15 
ROOT
HETATM    1  N2  UNL     1      24.572   7.275  50.942  1.00  0.00    -0.086 NA
HETATM    2  C7  UNL     1      23.711   6.375  51.265  1.00  0.00     0.720 C 
HETATM    3  N3  UNL     1      22.519   6.310  50.451  1.00  0.00    -0.059 NA
HETATM    4  C8  UNL     1      21.676   5.305  50.408  1.00  0.00     0.223 C 
HETATM    5  N4  UNL     1      21.584   4.024  51.052  1.00  0.00    -0.374 N 
HETATM    6  C9  UNL     1      22.697   3.527  51.831  1.00  0.00     0.135 C 
HETATM    7  C16 UNL     1      23.133   4.489  52.927  1.00  0.00     0.168 C 
HETATM    8  N5  UNL     1      24.005   5.535  52.381  1.00  0.00    -0.220 N 
HETATM    9  H8  UNL     1      20.633   3.625  50.824  1.00  0.00     0.161 HD
HETATM   10  H15 UNL     1      24.934   5.690  52.845  1.00  0.00     0.177 HD
ENDROOT
BRANCH   1  11
HETATM   11  C6  UNL     1      24.261   8.115  49.813  1.00  0.00     0.290 C 
BRANCH  11  12
HETATM   12  N1  UNL     1      24.577   7.346  48.601  1.00  0.00    -0.371 N 
HETATM   13  H4  UNL     1      23.937   7.233  47.804  1.00  0.00     0.161 HD
BRANCH  12  14
HETATM   14  C5  UNL     1      25.863   6.710  48.524  1.00  0.00     0.032 A 
HETATM   15  C4  UNL     1      26.992   7.417  48.152  1.00  0.00     0.029 A 
HETATM   16  C3  UNL     1      28.212   6.759  48.095  1.00  0.00     0.005 A 
HETATM   17  C2  UNL     1      28.357   5.424  48.392  1.00  0.00     0.042 A 
HETATM   18  C1  UNL     1      27.230   4.704  48.766  1.00  0.00     0.118 A 
HETATM   19  F1  UNL     1      27.193   3.376  49.095  1.00  0.00    -0.206 F 
HETATM   20  C17 UNL     1      26.029   5.369  48.820  1.00  0.00     0.071 A 
ENDBRANCH  12  14
ENDBRANCH  11  12
ENDBRANCH   1  11
BRANCH   6  21
HETATM   21  C10 UNL     1      22.457   2.186  52.415  1.00  0.00    -0.012 A 
HETATM   22  C11 UNL     1      21.168   1.847  52.846  1.00  0.00     0.012 A 
HETATM   23  C12 UNL     1      20.775   0.653  53.414  1.00  0.00     0.024 A 
HETATM   24  C13 UNL     1      21.759  -0.302  53.572  1.00  0.00     0.035 A 
HETATM   25 CL1  UNL     1      21.270  -1.822  54.293  1.00  0.00    -0.084 Cl
HETATM   26  C14 UNL     1      23.051  -0.033  53.169  1.00  0.00     0.048 A 
HETATM   27  C15 UNL     1      23.381   1.181  52.606  1.00  0.00     0.044 A 
HETATM   28 CL2  UNL     1      25.020   1.500  52.094  1.00  0.00    -0.084 Cl
ENDBRANCH   6  21
TORSDOF 4
ENDMDL
MODEL 4
REMARK VINA RESULT:      -7.9      3.332      8.524
REMARK  4 active torsions:
REMARK  status: ('A' for Active; 'I' for Inactive)
REMARK    1  A    between atoms: C5_6  and  N1_7 
REMARK    2  A    between atoms: N1_7  and  C6_8 
REMARK    3  A    between atoms: C6_8  and  N2_9 
REMARK    4  A    between atoms: C9_14  and  C10_15 
ROOT
HETATM    1  N2  UNL     1      24.887   7.113  51.008  1.00  0.00    -0.086 NA
HETATM    2  C7  UNL     1      24.285   5.977  50.960  1.00  0.00     0.720 C 
HETATM    3  N3  UNL     1      24.225   5.340  49.665  1.00  0.00    -0.059 NA
HETATM    4  C8  UNL     1      23.941   4.077  49.445  1.00  0.00     0.223 C 
HETATM    5  N4  UNL     1      23.615   2.949  50.271  1.00  0.00    -0.374 N 
HETATM    6  C9  UNL     1      23.757   3.041  51.708  1.00  0.00     0.135 C 
HETATM    7  C16 UNL     1      22.983   4.206  52.309  1.00  0.00     0.168 C 
HETATM    8  N5  UNL     1      23.739   5.456  52.172  1.00  0.00    -0.220 N 
HETATM    9  H8  UNL     1      23.299   2.170  49.630  1.00  0.00     0.161 HD
HETATM   10  H15 UNL     1      23.900   6.029  53.036  1.00  0.00     0.177 HD
ENDROOT
BRANCH   1  11
HETATM   11  C6  UNL     1      25.433   7.626  49.777  1.00  0.00     0.290 C 
BRANCH  11  12
HETATM   12  N1  UNL     1      26.786   7.070  49.638  1.00  0.00    -0.371 N 
HETATM   13  H4  UNL     1      27.243   6.479  50.343  1.00  0.00     0.161 HD
BRANCH  12  14
HETATM   14  C5  UNL     1      27.519   7.375  48.440  1.00  0.00     0.032 A 
HETATM   15  C4  UNL     1      26.972   8.165  47.446  1.00  0.00     0.029 A 
HETATM   16  C3  UNL     1      27.719   8.432  46.308  1.00  0.00     0.005 A 
HETATM   17  C2  UNL     1      28.990   7.945  46.116  1.00  0.00     0.042 A 
HETATM   18  C1  UNL     1      29.550   7.149  47.108  1.00  0.00     0.118 A 
HETATM   19  F1  UNL     1      30.797   6.585  47.082  1.00  0.00    -0.206 F 
HETATM   20  C17 UNL     1      28.799   6.894  48.230  1.00  0.00     0.071 A 
ENDBRANCH  12  14
ENDBRANCH  11  12
ENDBRANCH   1  11
BRANCH   6  21
HETATM   21  C10 UNL     1      23.400   1.790  52.419  1.00  0.00    -0.012 A 
HETATM   22  C11 UNL     1      22.090   1.614  52.881  1.00  0.00     0.012 A 
HETATM   23  C12 UNL     1      21.595   0.520  53.561  1.00  0.00     0.024 A 
HETATM   24  C13 UNL     1      22.488  -0.502  53.809  1.00  0.00     0.035 A 
HETATM   25 CL1  UNL     1      21.869  -1.895  54.673  1.00  0.00    -0.084 Cl
HETATM   26  C14 UNL     1      23.795  -0.393  53.381  1.00  0.00     0.048 A 
HETATM   27  C15 UNL     1      24.230   0.727  52.704  1.00  0.00     0.044 A 
HETATM   28 CL2  UNL     1      25.886   0.842  52.161  1.00  0.00    -0.084 Cl
ENDBRANCH   6  21
TORSDOF 4
ENDMDL
MODEL 5
REMARK VINA RESULT:      -7.8      3.947      8.886
REMARK  4 active torsions:
REMARK  status: ('A' for Active; 'I' for Inactive)
REMARK    1  A    between atoms: C5_6  and  N1_7 
REMARK    2  A    between atoms: N1_7  and  C6_8 
REMARK    3  A    between atoms: C6_8  and  N2_9 
REMARK    4  A    between atoms: C9_14  and  C10_15 
ROOT
HETATM    1  N2  UNL     1      27.724   4.326  48.998  1.00  0.00    -0.086 NA
HETATM    2  C7  UNL     1      26.695   4.161  49.753  1.00  0.00     0.720 C 
HETATM    3  N3  UNL     1      25.749   5.253  49.790  1.00  0.00    -0.059 NA
HETATM    4  C8  UNL     1      24.516   5.182  50.235  1.00  0.00     0.223 C 
HETATM    5  N4  UNL     1      23.693   4.146  50.794  1.00  0.00    -0.374 N 
HETATM    6  C9  UNL     1      24.145   2.773  50.768  1.00  0.00     0.135 C 
HETATM    7  C16 UNL     1      25.510   2.583  51.414  1.00  0.00     0.168 C 
HETATM    8  N5  UNL     1      26.581   2.935  50.475  1.00  0.00    -0.220 N 
HETATM    9  H8  UNL     1      22.815   4.606  51.161  1.00  0.00     0.161 HD
HETATM   10  H15 UNL     1      27.339   2.229  50.309  1.00  0.00     0.177 HD
ENDROOT
BRANCH   1  11
HETATM   11  C6  UNL     1      27.824   5.569  48.276  1.00  0.00     0.290 C 
BRANCH  11  12
HETATM   12  N1  UNL     1      28.924   6.333  48.879  1.00  0.00    -0.371 N 
HETATM   13  H4  UNL     1      28.795   7.155  49.482  1.00  0.00     0.161 HD
BRANCH  12  14
HETATM   14  C5  UNL     1      30.268   5.905  48.608  1.00  0.00     0.032 A 
HETATM   15  C4  UNL     1      31.336   6.375  49.351  1.00  0.00     0.029 A 
HETATM   16  C3  UNL     1      32.615   5.930  49.051  1.00  0.00     0.005 A 
HETATM   17  C2  UNL     1      32.879   5.036  48.041  1.00  0.00     0.042 A 
HETATM   18  C1  UNL     1      31.815   4.556  47.287  1.00  0.00     0.118 A 
HETATM   19  F1  UNL     1      31.896   3.666  46.251  1.00  0.00    -0.206 F 
HETATM   20  C17 UNL     1      30.554   5.005  47.596  1.00  0.00     0.071 A 
ENDBRANCH  12  14
ENDBRANCH  11  12
ENDBRANCH   1  11
BRANCH   6  21
HETATM   21  C10 UNL     1      23.178   1.821  51.365  1.00  0.00    -0.012 A 
HETATM   22  C11 UNL     1      23.276   1.508  52.727  1.00  0.00     0.012 A 
HETATM   23  C12 UNL     1      22.467   0.644  53.435  1.00  0.00     0.024 A 
HETATM   24  C13 UNL     1      21.459   0.027  52.722  1.00  0.00     0.035 A 
HETATM   25 CL1  UNL     1      20.426  -1.072  53.613  1.00  0.00    -0.084 Cl
HETATM   26  C14 UNL     1      21.306   0.291  51.377  1.00  0.00     0.048 A 
HETATM   27  C15 UNL     1      22.148   1.166  50.725  1.00  0.00     0.044 A 
HETATM   28 CL2  UNL     1      21.933   1.495  49.023  1.00  0.00    -0.084 Cl
ENDBRANCH   6  21
TORSDOF 4
ENDMDL
MODEL 6
REMARK VINA RESULT:      -7.7      3.574      4.376
REMARK  4 active torsions:
REMARK  status: ('A' for Active; 'I' for Inactive)
REMARK    1  A    between atoms: C5_6  and  N1_7 
REMARK    2  A    between atoms: N1_7  and  C6_8 
REMARK    3  A    between atoms: C6_8  and  N2_9 
REMARK    4  A    between atoms: C9_14  and  C10_15 
ROOT
HETATM    1  N2  UNL     1      25.048   1.072  51.981  1.00  0.00    -0.086 NA
HETATM    2  C7  UNL     1      24.703   2.239  51.562  1.00  0.00     0.720 C 
HETATM    3  N3  UNL     1      24.087   3.110  52.535  1.00  0.00    -0.059 NA
HETATM    4  C8  UNL     1      23.941   4.410  52.415  1.00  0.00     0.223 C 
HETATM    5  N4  UNL     1      24.278   5.384  51.416  1.00  0.00    -0.374 N 
HETATM    6  C9  UNL     1      25.125   5.013  50.304  1.00  0.00     0.135 C 
HETATM    7  C16 UNL     1      24.596   3.818  49.525  1.00  0.00     0.168 C 
HETATM    8  N5  UNL     1      24.956   2.563  50.195  1.00  0.00    -0.220 N 
HETATM    9  H8  UNL     1      23.809   6.291  51.689  1.00  0.00     0.161 HD
HETATM   10  H15 UNL     1      25.445   1.827  49.628  1.00  0.00     0.177 HD
ENDROOT
BRANCH   1  11
HETATM   11  C6  UNL     1      24.786   0.761  53.363  1.00  0.00     0.290 C 
BRANCH  11  12
HETATM   12  N1  UNL     1      25.515  -0.477  53.674  1.00  0.00    -0.371 N 
HETATM   13  H4  UNL     1      25.064  -1.376  53.886  1.00  0.00     0.161 HD
BRANCH  12  14
HETATM   14  C5  UNL     1      26.951  -0.428  53.684  1.00  0.00     0.032 A 
HETATM   15  C4  UNL     1      27.708  -1.440  53.123  1.00  0.00     0.029 A 
HETATM   16  C3  UNL     1      29.091  -1.347  53.156  1.00  0.00     0.005 A 
HETATM   17  C2  UNL     1      29.756  -0.286  53.724  1.00  0.00     0.042 A 
HETATM   18  C1  UNL     1      29.007   0.738  54.290  1.00  0.00     0.118 A 
HETATM   19  F1  UNL     1      29.502   1.862  54.895  1.00  0.00    -0.206 F 
HETATM   20  C17 UNL     1      27.638   0.632  54.250  1.00  0.00     0.071 A 
ENDBRANCH  12  14
ENDBRANCH  11  12
ENDBRANCH   1  11
BRANCH   6  21
HETATM   21  C10 UNL     1      25.397   6.132  49.370  1.00  0.00    -0.012 A 
HETATM   22  C11 UNL     1      24.471   7.177  49.263  1.00  0.00     0.012 A 
HETATM   23  C12 UNL     1      24.565   8.283  48.444  1.00  0.00     0.024 A 
HETATM   24  C13 UNL     1      25.692   8.362  47.650  1.00  0.00     0.035 A 
HETATM   25 CL1  UNL     1      25.820   9.764  46.607  1.00  0.00    -0.084 Cl
HETATM   26  C14 UNL     1      26.645   7.367  47.706  1.00  0.00     0.048 A 
HETATM   27  C15 UNL     1      26.493   6.284  48.547  1.00  0.00     0.044 A 
HETATM   28 CL2  UNL     1      27.715   5.039  48.611  1.00  0.00    -0.084 Cl
ENDBRANCH   6  21
TORSDOF 4
ENDMDL
MODEL 7
REMARK VINA RESULT:      -7.7      4.086      5.639
REMARK  4 active torsions:
REMARK  status: ('A' for Active; 'I' for Inactive)
REMARK    1  A    between atoms: C5_6  and  N1_7 
REMARK    2  A    between atoms: N1_7  and  C6_8 
REMARK    3  A    between atoms: C6_8  and  N2_9 
REMARK    4  A    between atoms: C9_14  and  C10_15 
ROOT
HETATM    1  N2  UNL     1      26.898   3.440  49.493  1.00  0.00    -0.086 NA
HETATM    2  C7  UNL     1      27.137   4.642  49.101  1.00  0.00     0.720 C 
HETATM    3  N3  UNL     1      26.163   5.641  49.474  1.00  0.00    -0.059 NA
HETATM    4  C8  UNL     1      26.352   6.940  49.449  1.00  0.00     0.223 C 
HETATM    5  N4  UNL     1      27.443   7.804  49.094  1.00  0.00    -0.374 N 
HETATM    6  C9  UNL     1      28.754   7.246  48.845  1.00  0.00     0.135 C 
HETATM    7  C16 UNL     1      28.746   6.162  47.777  1.00  0.00     0.168 C 
HETATM    8  N5  UNL     1      28.326   4.876  48.346  1.00  0.00    -0.220 N 
HETATM    9  H8  UNL     1      27.069   8.792  49.075  1.00  0.00     0.161 HD
HETATM   10  H15 UNL     1      28.947   4.045  48.191  1.00  0.00     0.177 HD
ENDROOT
BRANCH   1  11
HETATM   11  C6  UNL     1      25.694   3.219  50.255  1.00  0.00     0.290 C 
BRANCH  11  12
HETATM   12  N1  UNL     1      26.070   3.240  51.675  1.00  0.00    -0.371 N 
HETATM   13  H4  UNL     1      25.856   4.013  52.318  1.00  0.00     0.161 HD
BRANCH  12  14
HETATM   14  C5  UNL     1      26.784   2.109  52.198  1.00  0.00     0.032 A 
HETATM   15  C4  UNL     1      27.884   2.272  53.020  1.00  0.00     0.029 A 
HETATM   16  C3  UNL     1      28.540   1.148  53.502  1.00  0.00     0.005 A 
HETATM   17  C2  UNL     1      28.146  -0.134  53.200  1.00  0.00     0.042 A 
HETATM   18  C1  UNL     1      27.043  -0.311  52.375  1.00  0.00     0.118 A 
HETATM   19  F1  UNL     1      26.517  -1.510  51.976  1.00  0.00    -0.206 F 
HETATM   20  C17 UNL     1      26.403   0.811  51.907  1.00  0.00     0.071 A 
ENDBRANCH  12  14
ENDBRANCH  11  12
ENDBRANCH   1  11
BRANCH   6  21
HETATM   21  C10 UNL     1      29.776   8.265  48.510  1.00  0.00    -0.012 A 
HETATM   22  C11 UNL     1      29.389   9.427  47.830  1.00  0.00     0.012 A 
HETATM   23  C12 UNL     1      30.208  10.466  47.438  1.00  0.00     0.024 A 
HETATM   24  C13 UNL     1      31.546  10.341  47.751  1.00  0.00     0.035 A 
HETATM   25 CL1  UNL     1      32.594  11.656  47.258  1.00  0.00    -0.084 Cl
HETATM   26  C14 UNL     1      31.995   9.222  48.421  1.00  0.00     0.048 A 
HETATM   27  C15 UNL     1      31.126   8.216  48.786  1.00  0.00     0.044 A 
HETATM   28 CL2  UNL     1      31.712   6.811  49.641  1.00  0.00    -0.084 Cl
ENDBRANCH   6  21
TORSDOF 4
ENDMDL
MODEL 8
REMARK VINA RESULT:      -7.7      1.600      2.393
REMARK  4 active torsions:
REMARK  status: ('A' for Active; 'I' for Inactive)
REMARK    1  A    between atoms: C5_6  and  N1_7 
REMARK    2  A    between atoms: N1_7  and  C6_8 
REMARK    3  A    between atoms: C6_8  and  N2_9 
REMARK    4  A    between atoms: C9_14  and  C10_15 
ROOT
HETATM    1  N2  UNL     1      22.987   3.668  52.418  1.00  0.00    -0.086 NA
HETATM    2  C7  UNL     1      23.607   3.880  51.310  1.00  0.00     0.720 C 
HETATM    3  N3  UNL     1      22.781   4.033  50.135  1.00  0.00    -0.059 NA
HETATM    4  C8  UNL     1      23.167   4.545  48.989  1.00  0.00     0.223 C 
HETATM    5  N4  UNL     1      24.393   5.094  48.481  1.00  0.00    -0.374 N 
HETATM    6  C9  UNL     1      25.494   5.356  49.382  1.00  0.00     0.135 C 
HETATM    7  C16 UNL     1      25.913   4.130  50.182  1.00  0.00     0.168 C 
HETATM    8  N5  UNL     1      25.033   3.944  51.341  1.00  0.00    -0.220 N 
HETATM    9  H8  UNL     1      24.270   5.228  47.440  1.00  0.00     0.161 HD
HETATM   10  H15 UNL     1      25.479   3.846  52.285  1.00  0.00     0.177 HD
ENDROOT
BRANCH   1  11
HETATM   11  C6  UNL     1      21.548   3.607  52.369  1.00  0.00     0.290 C 
BRANCH  11  12
HETATM   12  N1  UNL     1      21.185   2.237  51.981  1.00  0.00    -0.371 N 
HETATM   13  H4  UNL     1      20.658   1.997  51.132  1.00  0.00     0.161 HD
BRANCH  12  14
HETATM   14  C5  UNL     1      21.593   1.163  52.845  1.00  0.00     0.032 A 
HETATM   15  C4  UNL     1      20.791   0.737  53.887  1.00  0.00     0.029 A 
HETATM   16  C3  UNL     1      21.227  -0.305  54.693  1.00  0.00     0.005 A 
HETATM   17  C2  UNL     1      22.431  -0.942  54.505  1.00  0.00     0.042 A 
HETATM   18  C1  UNL     1      23.246  -0.523  53.461  1.00  0.00     0.118 A 
HETATM   19  F1  UNL     1      24.468  -1.042  53.131  1.00  0.00    -0.206 F 
HETATM   20  C17 UNL     1      22.800   0.509  52.671  1.00  0.00     0.071 A 
ENDBRANCH  12  14
ENDBRANCH  11  12
ENDBRANCH   1  11
BRANCH   6  21
HETATM   21  C10 UNL     1      26.681   5.938  48.710  1.00  0.00    -0.012 A 
HETATM   22  C11 UNL     1      27.859   5.186  48.627  1.00  0.00     0.012 A 
HETATM   23  C12 UNL     1      29.048   5.577  48.046  1.00  0.00     0.024 A 
HETATM   24  C13 UNL     1      29.072   6.841  47.491  1.00  0.00     0.035 A 
HETATM   25 CL1  UNL     1      30.577   7.346  46.751  1.00  0.00    -0.084 Cl
HETATM   26  C14 UNL     1      27.945   7.634  47.539  1.00  0.00     0.048 A 
HETATM   27  C15 UNL     1      26.785   7.186  48.134  1.00  0.00     0.044 A 
HETATM   28 CL2  UNL     1      25.365   8.202  48.176  1.00  0.00    -0.084 Cl
ENDBRANCH   6  21
TORSDOF 4
ENDMDL
MODEL 9
REMARK VINA RESULT:      -7.6      5.183      8.322
REMARK  4 active torsions:
REMARK  status: ('A' for Active; 'I' for Inactive)
REMARK    1  A    between atoms: C5_6  and  N1_7 
REMARK    2  A    between atoms: N1_7  and  C6_8 
REMARK    3  A    between atoms: C6_8  and  N2_9 
REMARK    4  A    between atoms: C9_14  and  C10_15 
ROOT
HETATM    1  N2  UNL     1      24.220   1.333  52.243  1.00  0.00    -0.086 NA
HETATM    2  C7  UNL     1      23.054   0.790  52.295  1.00  0.00     0.720 C 
HETATM    3  N3  UNL     1      22.728   0.094  53.518  1.00  0.00    -0.059 NA
HETATM    4  C8  UNL     1      21.522  -0.259  53.899  1.00  0.00     0.223 C 
HETATM    5  N4  UNL     1      20.202  -0.127  53.351  1.00  0.00    -0.374 N 
HETATM    6  C9  UNL     1      19.981   0.712  52.194  1.00  0.00     0.135 C 
HETATM    7  C16 UNL     1      20.863   0.338  51.011  1.00  0.00     0.168 C 
HETATM    8  N5  UNL     1      22.201   0.922  51.158  1.00  0.00    -0.220 N 
HETATM    9  H8  UNL     1      19.555  -0.718  53.942  1.00  0.00     0.161 HD
HETATM   10  H15 UNL     1      22.578   1.491  50.361  1.00  0.00     0.177 HD
ENDROOT
BRANCH   1  11
HETATM   11  C6  UNL     1      25.069   1.191  53.399  1.00  0.00     0.290 C 
BRANCH  11  12
HETATM   12  N1  UNL     1      25.690  -0.139  53.319  1.00  0.00    -0.371 N 
HETATM   13  H4  UNL     1      25.169  -1.012  53.168  1.00  0.00     0.161 HD
BRANCH  12  14
HETATM   14  C5  UNL     1      27.117  -0.224  53.464  1.00  0.00     0.032 A 
HETATM   15  C4  UNL     1      27.812  -1.351  53.065  1.00  0.00     0.029 A 
HETATM   16  C3  UNL     1      29.190  -1.385  53.224  1.00  0.00     0.005 A 
HETATM   17  C2  UNL     1      29.907  -0.344  53.764  1.00  0.00     0.042 A 
HETATM   18  C1  UNL     1      29.219   0.793  54.169  1.00  0.00     0.118 A 
HETATM   19  F1  UNL     1      29.771   1.917  54.723  1.00  0.00    -0.206 F 
HETATM   20  C17 UNL     1      27.856   0.814  54.004  1.00  0.00     0.071 A 
ENDBRANCH  12  14
ENDBRANCH  11  12
ENDBRANCH   1  11
BRANCH   6  21
HETATM   21  C10 UNL     1      18.565   0.760  51.760  1.00  0.00    -0.012 A 
HETATM   22  C11 UNL     1      17.836  -0.432  51.664  1.00  0.00     0.012 A 
HETATM   23  C12 UNL     1      16.520  -0.566  51.273  1.00  0.00     0.024 A 
HETATM   24  C13 UNL     1      15.858   0.600  50.944  1.00  0.00     0.035 A 
HETATM   25 CL1  UNL     1      14.186   0.440  50.446  1.00  0.00    -0.084 Cl
HETATM   26  C14 UNL     1      16.517   1.810  51.017  1.00  0.00     0.048 A 
HETATM   27  C15 UNL     1      17.835   1.878  51.416  1.00  0.00     0.044 A 
HETATM   28 CL2  UNL     1      18.649   3.420  51.511  1.00  0.00    -0.084 Cl
ENDBRANCH   6  21
TORSDOF 4
ENDMDL
