MODEL 1
REMARK VINA RESULT:      -9.0      0.000      0.000
REMARK  4 active torsions:
REMARK  status: ('A' for Active; 'I' for Inactive)
REMARK    1  A    between atoms: C6_6  and  C7_7 
REMARK    2  A    between atoms: C9_9  and  C10_10 
REMARK    3  A    between atoms: N2_18  and  C16_19 
REMARK    4  A    between atoms: C17_21  and  O1_22 
ROOT
HETATM    1  C7  UNL     1      24.841   2.575  52.184  1.00  0.00     0.127 C 
HETATM    2  C8  UNL     1      23.382   2.459  52.536  1.00  0.00     0.090 C 
HETATM    3  C9  UNL     1      23.320   1.032  52.979  1.00  0.00     0.067 C 
HETATM    4  N1  UNL     1      24.503   0.578  53.135  1.00  0.00    -0.174 NA
HETATM    5  N2  UNL     1      25.494   1.510  52.857  1.00  0.00    -0.240 N 
ENDROOT
BRANCH   3   6
HETATM    6  C10 UNL     1      22.086   0.282  53.195  1.00  0.00    -0.010 A 
HETATM    7  C11 UNL     1      20.912   0.669  52.547  1.00  0.00     0.015 A 
HETATM    8  C12 UNL     1      19.724  -0.007  52.718  1.00  0.00     0.024 A 
HETATM    9  C13 UNL     1      19.757  -1.076  53.558  1.00  0.00     0.034 A 
HETATM   10 CL1  UNL     1      18.246  -1.951  53.786  1.00  0.00    -0.084 Cl
HETATM   11  C14 UNL     1      20.874  -1.493  54.213  1.00  0.00     0.024 A 
HETATM   12  C15 UNL     1      22.070  -0.808  54.038  1.00  0.00     0.015 A 
ENDBRANCH   3   6
BRANCH   1  13
HETATM   13  C6  UNL     1      25.115   2.798  50.750  1.00  0.00     0.045 A 
HETATM   14  C2  UNL     1      25.337   4.088  50.139  1.00  0.00    -0.021 A 
HETATM   15  C1  UNL     1      26.668   4.218  49.397  1.00  0.00     0.020 C 
HETATM   16  C3  UNL     1      24.925   5.373  50.821  1.00  0.00     0.020 C 
HETATM   17  C4  UNL     1      24.271   3.723  49.197  1.00  0.00    -0.021 A 
HETATM   18  C5  UNL     1      24.081   2.573  49.750  1.00  0.00    -0.022 A 
ENDBRANCH   1  13
BRANCH   5  19
HETATM   19  C16 UNL     1      26.835   1.225  53.285  1.00  0.00     0.192 A 
HETATM   20  N3  UNL     1      27.722   2.122  53.888  1.00  0.00    -0.198 NA
HETATM   21  C17 UNL     1      28.881   1.517  54.130  1.00  0.00     0.171 A 
HETATM   22  C18 UNL     1      29.313   0.192  53.882  1.00  0.00     0.111 A 
HETATM   23  S1  UNL     1      27.660  -0.341  53.109  1.00  0.00    -0.058 SA
BRANCH  21  24
HETATM   24  O1  UNL     1      29.722   2.478  54.736  1.00  0.00    -0.344 OA
HETATM   25  H17 UNL     1      30.719   2.299  54.791  1.00  0.00     0.219 HD
ENDBRANCH  21  24
ENDBRANCH   5  19
TORSDOF 4
ENDMDL
MODEL 2
REMARK VINA RESULT:      -8.6      3.764      6.729
REMARK  4 active torsions:
REMARK  status: ('A' for Active; 'I' for Inactive)
REMARK    1  A    between atoms: C6_6  and  C7_7 
REMARK    2  A    between atoms: C9_9  and  C10_10 
REMARK    3  A    between atoms: N2_18  and  C16_19 
REMARK    4  A    between atoms: C17_21  and  O1_22 
ROOT
HETATM    1  C7  UNL     1      24.758   1.811  51.119  1.00  0.00     0.127 C 
HETATM    2  C8  UNL     1      24.731   2.764  49.955  1.00  0.00     0.090 C 
HETATM    3  C9  UNL     1      26.045   3.455  50.136  1.00  0.00     0.067 C 
HETATM    4  N1  UNL     1      26.752   2.820  50.990  1.00  0.00    -0.174 NA
HETATM    5  N2  UNL     1      26.121   1.694  51.500  1.00  0.00    -0.240 N 
ENDROOT
BRANCH   3   6
HETATM    6  C10 UNL     1      26.447   4.672  49.437  1.00  0.00    -0.010 A 
HETATM    7  C11 UNL     1      27.697   4.742  48.821  1.00  0.00     0.015 A 
HETATM    8  C12 UNL     1      28.121   5.867  48.148  1.00  0.00     0.024 A 
HETATM    9  C13 UNL     1      27.251   6.912  48.119  1.00  0.00     0.034 A 
HETATM   10 CL1  UNL     1      27.777   8.358  47.262  1.00  0.00    -0.084 Cl
HETATM   11  C14 UNL     1      26.022   6.894  48.703  1.00  0.00     0.024 A 
HETATM   12  C15 UNL     1      25.599   5.757  49.380  1.00  0.00     0.015 A 
ENDBRANCH   3   6
BRANCH   1  13
HETATM   13  C6  UNL     1      23.739   2.072  52.156  1.00  0.00     0.045 A 
HETATM   14  C2  UNL     1      22.437   1.448  52.215  1.00  0.00    -0.021 A 
HETATM   15  C1  UNL     1      22.146   0.708  53.521  1.00  0.00     0.020 C 
HETATM   16  C3  UNL     1      21.829   0.763  51.012  1.00  0.00     0.020 C 
HETATM   17  C4  UNL     1      21.890   2.810  52.276  1.00  0.00    -0.021 A 
HETATM   18  C5  UNL     1      23.057   3.356  52.223  1.00  0.00    -0.022 A 
ENDBRANCH   1  13
BRANCH   5  19
HETATM   19  C16 UNL     1      26.913   0.738  52.222  1.00  0.00     0.192 A 
HETATM   20  N3  UNL     1      26.763  -0.651  52.199  1.00  0.00    -0.198 NA
HETATM   21  C17 UNL     1      27.659  -1.216  53.003  1.00  0.00     0.171 A 
HETATM   22  C18 UNL     1      28.670  -0.651  53.819  1.00  0.00     0.111 A 
HETATM   23  S1  UNL     1      28.250   1.136  53.326  1.00  0.00    -0.058 SA
BRANCH  21  24
HETATM   24  O1  UNL     1      27.449  -2.613  52.929  1.00  0.00    -0.344 OA
HETATM   25  H17 UNL     1      26.587  -2.962  52.526  1.00  0.00     0.219 HD
ENDBRANCH  21  24
ENDBRANCH   5  19
TORSDOF 4
ENDMDL
MODEL 3
REMARK VINA RESULT:      -8.4      2.224      4.241
REMARK  4 active torsions:
REMARK  status: ('A' for Active; 'I' for Inactive)
REMARK    1  A    between atoms: C6_6  and  C7_7 
REMARK    2  A    between atoms: C9_9  and  C10_10 
REMARK    3  A    between atoms: N2_18  and  C16_19 
REMARK    4  A    between atoms: C17_21  and  O1_22 
ROOT
HETATM    1  C7  UNL     1      25.806   0.865  52.304  1.00  0.00     0.127 C 
HETATM    2  C8  UNL     1      24.787  -0.218  52.535  1.00  0.00     0.090 C 
HETATM    3  C9  UNL     1      23.520   0.551  52.337  1.00  0.00     0.067 C 
HETATM    4  N1  UNL     1      23.783   1.686  51.815  1.00  0.00    -0.174 NA
HETATM    5  N2  UNL     1      25.136   1.887  51.582  1.00  0.00    -0.240 N 
ENDROOT
BRANCH   3   6
HETATM    6  C10 UNL     1      22.190   0.066  52.692  1.00  0.00    -0.010 A 
HETATM    7  C11 UNL     1      21.078   0.477  51.955  1.00  0.00     0.015 A 
HETATM    8  C12 UNL     1      19.803   0.046  52.250  1.00  0.00     0.024 A 
HETATM    9  C13 UNL     1      19.686  -0.804  53.305  1.00  0.00     0.034 A 
HETATM   10 CL1  UNL     1      18.063  -1.365  53.695  1.00  0.00    -0.084 Cl
HETATM   11  C14 UNL     1      20.737  -1.234  54.054  1.00  0.00     0.024 A 
HETATM   12  C15 UNL     1      22.021  -0.797  53.753  1.00  0.00     0.015 A 
ENDBRANCH   3   6
BRANCH   1  13
HETATM   13  C6  UNL     1      26.605   1.227  53.492  1.00  0.00     0.045 A 
HETATM   14  C2  UNL     1      27.976   0.830  53.721  1.00  0.00    -0.021 A 
HETATM   15  C1  UNL     1      28.944   1.993  53.944  1.00  0.00     0.020 C 
HETATM   16  C3  UNL     1      28.609  -0.315  52.966  1.00  0.00     0.020 C 
HETATM   17  C4  UNL     1      27.512   0.309  55.014  1.00  0.00    -0.021 A 
HETATM   18  C5  UNL     1      26.292   0.667  54.799  1.00  0.00    -0.022 A 
ENDBRANCH   1  13
BRANCH   5  19
HETATM   19  C16 UNL     1      25.526   2.975  50.729  1.00  0.00     0.192 A 
HETATM   20  N3  UNL     1      26.833   3.338  50.392  1.00  0.00    -0.198 NA
HETATM   21  C17 UNL     1      26.815   4.405  49.599  1.00  0.00     0.171 A 
HETATM   22  C18 UNL     1      25.739   5.169  49.085  1.00  0.00     0.111 A 
HETATM   23  S1  UNL     1      24.410   4.113  49.940  1.00  0.00    -0.058 SA
BRANCH  21  24
HETATM   24  O1  UNL     1      28.163   4.712  49.299  1.00  0.00    -0.344 OA
HETATM   25  H17 UNL     1      28.512   5.644  49.493  1.00  0.00     0.219 HD
ENDBRANCH  21  24
ENDBRANCH   5  19
TORSDOF 4
ENDMDL
MODEL 4
REMARK VINA RESULT:      -8.2      3.890      6.390
REMARK  4 active torsions:
REMARK  status: ('A' for Active; 'I' for Inactive)
REMARK    1  A    between atoms: C6_6  and  C7_7 
REMARK    2  A    between atoms: C9_9  and  C10_10 
REMARK    3  A    between atoms: N2_18  and  C16_19 
REMARK    4  A    between atoms: C17_21  and  O1_22 
ROOT
HETATM    1  C7  UNL     1      22.848   2.053  52.222  1.00  0.00     0.127 C 
HETATM    2  C8  UNL     1      23.730   1.198  53.091  1.00  0.00     0.090 C 
HETATM    3  C9  UNL     1      25.075   1.531  52.528  1.00  0.00     0.067 C 
HETATM    4  N1  UNL     1      24.982   2.550  51.764  1.00  0.00    -0.174 NA
HETATM    5  N2  UNL     1      23.691   3.052  51.669  1.00  0.00    -0.240 N 
ENDROOT
BRANCH   3   6
HETATM    6  C10 UNL     1      26.303   0.795  52.817  1.00  0.00    -0.010 A 
HETATM    7  C11 UNL     1      27.434   1.476  53.271  1.00  0.00     0.015 A 
HETATM    8  C12 UNL     1      28.614   0.826  53.558  1.00  0.00     0.024 A 
HETATM    9  C13 UNL     1      28.618  -0.522  53.373  1.00  0.00     0.034 A 
HETATM   10 CL1  UNL     1      30.118  -1.368  53.737  1.00  0.00    -0.084 Cl
HETATM   11  C14 UNL     1      27.543  -1.231  52.933  1.00  0.00     0.024 A 
HETATM   12  C15 UNL     1      26.355  -0.571  52.644  1.00  0.00     0.015 A 
ENDBRANCH   3   6
BRANCH   1  13
HETATM   13  C6  UNL     1      21.941   1.300  51.331  1.00  0.00     0.045 A 
HETATM   14  C2  UNL     1      20.596   1.701  50.988  1.00  0.00    -0.021 A 
HETATM   15  C1  UNL     1      20.341   1.846  49.487  1.00  0.00     0.020 C 
HETATM   16  C3  UNL     1      19.836   2.719  51.807  1.00  0.00     0.020 C 
HETATM   17  C4  UNL     1      20.181   0.367  51.441  1.00  0.00    -0.021 A 
HETATM   18  C5  UNL     1      21.386   0.019  51.744  1.00  0.00    -0.022 A 
ENDBRANCH   1  13
BRANCH   5  19
HETATM   19  C16 UNL     1      23.509   4.357  51.097  1.00  0.00     0.192 A 
HETATM   20  N3  UNL     1      23.881   5.575  51.674  1.00  0.00    -0.198 NA
HETATM   21  C17 UNL     1      23.541   6.578  50.871  1.00  0.00     0.171 A 
HETATM   22  C18 UNL     1      22.903   6.587  49.606  1.00  0.00     0.111 A 
HETATM   23  S1  UNL     1      22.740   4.695  49.529  1.00  0.00    -0.058 SA
BRANCH  21  24
HETATM   24  O1  UNL     1      23.945   7.770  51.515  1.00  0.00    -0.344 OA
HETATM   25  H17 UNL     1      23.304   8.554  51.552  1.00  0.00     0.219 HD
ENDBRANCH  21  24
ENDBRANCH   5  19
TORSDOF 4
ENDMDL
MODEL 5
REMARK VINA RESULT:      -8.2      1.117      1.504
REMARK  4 active torsions:
REMARK  status: ('A' for Active; 'I' for Inactive)
REMARK    1  A    between atoms: C6_6  and  C7_7 
REMARK    2  A    between atoms: C9_9  and  C10_10 
REMARK    3  A    between atoms: N2_18  and  C16_19 
REMARK    4  A    between atoms: C17_21  and  O1_22 
ROOT
HETATM    1  C7  UNL     1      24.270   2.693  52.006  1.00  0.00     0.127 C 
HETATM    2  C8  UNL     1      22.804   2.551  52.316  1.00  0.00     0.090 C 
HETATM    3  C9  UNL     1      22.759   1.129  52.780  1.00  0.00     0.067 C 
HETATM    4  N1  UNL     1      23.947   0.704  52.979  1.00  0.00    -0.174 NA
HETATM    5  N2  UNL     1      24.925   1.653  52.716  1.00  0.00    -0.240 N 
ENDROOT
BRANCH   3   6
HETATM    6  C10 UNL     1      21.536   0.356  52.971  1.00  0.00    -0.010 A 
HETATM    7  C11 UNL     1      21.524  -0.722  53.857  1.00  0.00     0.015 A 
HETATM    8  C12 UNL     1      20.394  -1.481  54.073  1.00  0.00     0.024 A 
HETATM    9  C13 UNL     1      19.286  -1.121  53.371  1.00  0.00     0.034 A 
HETATM   10 CL1  UNL     1      17.833  -2.079  53.636  1.00  0.00    -0.084 Cl
HETATM   11  C14 UNL     1      19.246  -0.078  52.497  1.00  0.00     0.024 A 
HETATM   12  C15 UNL     1      20.388   0.683  52.282  1.00  0.00     0.015 A 
ENDBRANCH   3   6
BRANCH   1  13
HETATM   13  C6  UNL     1      24.583   2.900  50.577  1.00  0.00     0.045 A 
HETATM   14  C2  UNL     1      24.941   4.167  49.982  1.00  0.00    -0.021 A 
HETATM   15  C1  UNL     1      26.288   4.169  49.257  1.00  0.00     0.020 C 
HETATM   16  C3  UNL     1      24.652   5.480  50.673  1.00  0.00     0.020 C 
HETATM   17  C4  UNL     1      23.856   3.919  49.024  1.00  0.00    -0.021 A 
HETATM   18  C5  UNL     1      23.544   2.789  49.564  1.00  0.00    -0.022 A 
ENDBRANCH   1  13
BRANCH   5  19
HETATM   19  C16 UNL     1      26.258   1.404  53.188  1.00  0.00     0.192 A 
HETATM   20  N3  UNL     1      26.637   0.457  54.144  1.00  0.00    -0.198 NA
HETATM   21  C17 UNL     1      27.949   0.520  54.347  1.00  0.00     0.171 A 
HETATM   22  C18 UNL     1      28.944   1.350  53.775  1.00  0.00     0.111 A 
HETATM   23  S1  UNL     1      27.714   2.281  52.665  1.00  0.00    -0.058 SA
BRANCH  21  24
HETATM   24  O1  UNL     1      28.259  -0.460  55.318  1.00  0.00    -0.344 OA
HETATM   25  H17 UNL     1      27.553  -1.141  55.575  1.00  0.00     0.219 HD
ENDBRANCH  21  24
ENDBRANCH   5  19
TORSDOF 4
ENDMDL
MODEL 6
REMARK VINA RESULT:      -8.1      3.424      5.006
REMARK  4 active torsions:
REMARK  status: ('A' for Active; 'I' for Inactive)
REMARK    1  A    between atoms: C6_6  and  C7_7 
REMARK    2  A    between atoms: C9_9  and  C10_10 
REMARK    3  A    between atoms: N2_18  and  C16_19 
REMARK    4  A    between atoms: C17_21  and  O1_22 
ROOT
HETATM    1  C7  UNL     1      22.940   1.328  51.722  1.00  0.00     0.127 C 
HETATM    2  C8  UNL     1      21.967   0.211  51.456  1.00  0.00     0.090 C 
HETATM    3  C9  UNL     1      20.670   0.914  51.698  1.00  0.00     0.067 C 
HETATM    4  N1  UNL     1      20.869   2.174  51.764  1.00  0.00    -0.174 NA
HETATM    5  N2  UNL     1      22.199   2.532  51.598  1.00  0.00    -0.240 N 
ENDROOT
BRANCH   3   6
HETATM    6  C10 UNL     1      19.378   0.249  51.836  1.00  0.00    -0.010 A 
HETATM    7  C11 UNL     1      19.117  -0.542  52.957  1.00  0.00     0.015 A 
HETATM    8  C12 UNL     1      17.913  -1.188  53.133  1.00  0.00     0.024 A 
HETATM    9  C13 UNL     1      16.988  -1.014  52.151  1.00  0.00     0.034 A 
HETATM   10 CL1  UNL     1      15.444  -1.832  52.363  1.00  0.00    -0.084 Cl
HETATM   11  C14 UNL     1      17.193  -0.253  51.042  1.00  0.00     0.024 A 
HETATM   12  C15 UNL     1      18.409   0.396  50.868  1.00  0.00     0.015 A 
ENDBRANCH   3   6
BRANCH   1  13
HETATM   13  C6  UNL     1      23.801   1.130  52.907  1.00  0.00     0.045 A 
HETATM   14  C2  UNL     1      25.244   1.190  52.901  1.00  0.00    -0.021 A 
HETATM   15  C1  UNL     1      25.841   2.211  53.870  1.00  0.00     0.020 C 
HETATM   16  C3  UNL     1      26.041   1.071  51.622  1.00  0.00     0.020 C 
HETATM   17  C4  UNL     1      25.210  -0.138  53.529  1.00  0.00    -0.021 A 
HETATM   18  C5  UNL     1      23.921  -0.181  53.529  1.00  0.00    -0.022 A 
ENDBRANCH   1  13
BRANCH   5  19
HETATM   19  C16 UNL     1      22.506   3.913  51.346  1.00  0.00     0.192 A 
HETATM   20  N3  UNL     1      23.458   4.687  52.015  1.00  0.00    -0.198 NA
HETATM   21  C17 UNL     1      23.455   5.925  51.530  1.00  0.00     0.171 A 
HETATM   22  C18 UNL     1      22.682   6.526  50.507  1.00  0.00     0.111 A 
HETATM   23  S1  UNL     1      21.708   4.938  50.131  1.00  0.00    -0.058 SA
BRANCH  21  24
HETATM   24  O1  UNL     1      24.436   6.646  52.249  1.00  0.00    -0.344 OA
HETATM   25  H17 UNL     1      25.385   6.680  51.894  1.00  0.00     0.219 HD
ENDBRANCH  21  24
ENDBRANCH   5  19
TORSDOF 4
ENDMDL
MODEL 7
REMARK VINA RESULT:      -7.8      3.970      6.443
REMARK  4 active torsions:
REMARK  status: ('A' for Active; 'I' for Inactive)
REMARK    1  A    between atoms: C6_6  and  C7_7 
REMARK    2  A    between atoms: C9_9  and  C10_10 
REMARK    3  A    between atoms: N2_18  and  C16_19 
REMARK    4  A    between atoms: C17_21  and  O1_22 
ROOT
HETATM    1  C7  UNL     1      24.503   2.064  53.167  1.00  0.00     0.127 C 
HETATM    2  C8  UNL     1      24.564   3.554  52.970  1.00  0.00     0.090 C 
HETATM    3  C9  UNL     1      23.274   3.789  52.252  1.00  0.00     0.067 C 
HETATM    4  N1  UNL     1      22.544   2.743  52.324  1.00  0.00    -0.174 NA
HETATM    5  N2  UNL     1      23.137   1.705  53.029  1.00  0.00    -0.240 N 
ENDROOT
BRANCH   3   6
HETATM    6  C10 UNL     1      22.914   5.031  51.574  1.00  0.00    -0.010 A 
HETATM    7  C11 UNL     1      23.873   6.028  51.390  1.00  0.00     0.015 A 
HETATM    8  C12 UNL     1      23.583   7.217  50.756  1.00  0.00     0.024 A 
HETATM    9  C13 UNL     1      22.304   7.366  50.318  1.00  0.00     0.034 A 
HETATM   10 CL1  UNL     1      21.917   8.879  49.504  1.00  0.00    -0.084 Cl
HETATM   11  C14 UNL     1      21.334   6.425  50.472  1.00  0.00     0.024 A 
HETATM   12  C15 UNL     1      21.631   5.229  51.112  1.00  0.00     0.015 A 
ENDBRANCH   3   6
BRANCH   1  13
HETATM   13  C6  UNL     1      25.528   1.299  52.426  1.00  0.00     0.045 A 
HETATM   14  C2  UNL     1      26.422   0.328  53.013  1.00  0.00    -0.021 A 
HETATM   15  C1  UNL     1      26.350  -1.063  52.380  1.00  0.00     0.020 C 
HETATM   16  C3  UNL     1      26.672   0.275  54.503  1.00  0.00     0.020 C 
HETATM   17  C4  UNL     1      27.513   1.100  52.405  1.00  0.00    -0.021 A 
HETATM   18  C5  UNL     1      26.706   1.962  51.886  1.00  0.00    -0.022 A 
ENDBRANCH   1  13
BRANCH   5  19
HETATM   19  C16 UNL     1      22.311   0.604  53.440  1.00  0.00     0.192 A 
HETATM   20  N3  UNL     1      22.687  -0.446  54.284  1.00  0.00    -0.198 NA
HETATM   21  C17 UNL     1      21.673  -1.294  54.428  1.00  0.00     0.171 A 
HETATM   22  C18 UNL     1      20.363  -1.285  53.889  1.00  0.00     0.111 A 
HETATM   23  S1  UNL     1      20.628   0.335  52.931  1.00  0.00    -0.058 SA
BRANCH  21  24
HETATM   24  O1  UNL     1      22.122  -2.322  55.289  1.00  0.00    -0.344 OA
HETATM   25  H17 UNL     1      22.887  -2.917  54.991  1.00  0.00     0.219 HD
ENDBRANCH  21  24
ENDBRANCH   5  19
TORSDOF 4
ENDMDL
MODEL 8
REMARK VINA RESULT:      -7.7      2.537      3.228
REMARK  4 active torsions:
REMARK  status: ('A' for Active; 'I' for Inactive)
REMARK    1  A    between atoms: C6_6  and  C7_7 
REMARK    2  A    between atoms: C9_9  and  C10_10 
REMARK    3  A    between atoms: N2_18  and  C16_19 
REMARK    4  A    between atoms: C17_21  and  O1_22 
ROOT
HETATM    1  C7  UNL     1      22.423   1.904  51.744  1.00  0.00     0.127 C 
HETATM    2  C8  UNL     1      20.921   1.998  51.743  1.00  0.00     0.090 C 
HETATM    3  C9  UNL     1      20.559   0.596  52.121  1.00  0.00     0.067 C 
HETATM    4  N1  UNL     1      21.597  -0.019  52.537  1.00  0.00    -0.174 NA
HETATM    5  N2  UNL     1      22.745   0.762  52.523  1.00  0.00    -0.240 N 
ENDROOT
BRANCH   3   6
HETATM    6  C10 UNL     1      19.217   0.030  52.024  1.00  0.00    -0.010 A 
HETATM    7  C11 UNL     1      18.430   0.291  50.900  1.00  0.00     0.015 A 
HETATM    8  C12 UNL     1      17.158  -0.222  50.762  1.00  0.00     0.024 A 
HETATM    9  C13 UNL     1      16.709  -0.999  51.784  1.00  0.00     0.034 A 
HETATM   10 CL1  UNL     1      15.087  -1.663  51.622  1.00  0.00    -0.084 Cl
HETATM   11  C14 UNL     1      17.437  -1.282  52.898  1.00  0.00     0.024 A 
HETATM   12  C15 UNL     1      18.718  -0.763  53.034  1.00  0.00     0.015 A 
ENDBRANCH   3   6
BRANCH   1  13
HETATM   13  C6  UNL     1      23.055   2.076  50.420  1.00  0.00     0.045 A 
HETATM   14  C2  UNL     1      23.573   3.322  49.904  1.00  0.00    -0.021 A 
HETATM   15  C1  UNL     1      25.047   3.277  49.501  1.00  0.00     0.020 C 
HETATM   16  C3  UNL     1      23.174   4.655  50.495  1.00  0.00     0.020 C 
HETATM   17  C4  UNL     1      22.724   3.083  48.730  1.00  0.00    -0.021 A 
HETATM   18  C5  UNL     1      22.267   1.972  49.200  1.00  0.00    -0.022 A 
ENDBRANCH   1  13
BRANCH   5  19
HETATM   19  C16 UNL     1      23.895   0.294  53.244  1.00  0.00     0.192 A 
HETATM   20  N3  UNL     1      23.890  -0.562  54.349  1.00  0.00    -0.198 NA
HETATM   21  C17 UNL     1      25.135  -0.764  54.769  1.00  0.00     0.171 A 
HETATM   22  C18 UNL     1      26.374  -0.273  54.291  1.00  0.00     0.111 A 
HETATM   23  S1  UNL     1      25.581   0.734  52.888  1.00  0.00    -0.058 SA
BRANCH  21  24
HETATM   24  O1  UNL     1      25.053  -1.634  55.882  1.00  0.00    -0.344 OA
HETATM   25  H17 UNL     1      24.573  -1.322  56.718  1.00  0.00     0.219 HD
ENDBRANCH  21  24
ENDBRANCH   5  19
TORSDOF 4
ENDMDL
MODEL 9
REMARK VINA RESULT:      -7.6      6.914      9.631
REMARK  4 active torsions:
REMARK  status: ('A' for Active; 'I' for Inactive)
REMARK    1  A    between atoms: C6_6  and  C7_7 
REMARK    2  A    between atoms: C9_9  and  C10_10 
REMARK    3  A    between atoms: N2_18  and  C16_19 
REMARK    4  A    between atoms: C17_21  and  O1_22 
ROOT
HETATM    1  C7  UNL     1      30.318   7.523  47.845  1.00  0.00     0.127 C 
HETATM    2  C8  UNL     1      29.431   6.334  47.591  1.00  0.00     0.090 C 
HETATM    3  C9  UNL     1      28.213   6.730  48.364  1.00  0.00     0.067 C 
HETATM    4  N1  UNL     1      28.292   7.962  48.690  1.00  0.00    -0.174 NA
HETATM    5  N2  UNL     1      29.456   8.576  48.249  1.00  0.00    -0.240 N 
ENDROOT
BRANCH   3   6
HETATM    6  C10 UNL     1      27.108   5.834  48.689  1.00  0.00    -0.010 A 
HETATM    7  C11 UNL     1      27.365   4.502  49.021  1.00  0.00     0.015 A 
HETATM    8  C12 UNL     1      26.356   3.618  49.337  1.00  0.00     0.024 A 
HETATM    9  C13 UNL     1      25.090   4.116  49.308  1.00  0.00     0.034 A 
HETATM   10 CL1  UNL     1      23.790   2.999  49.711  1.00  0.00    -0.084 Cl
HETATM   11  C14 UNL     1      24.788   5.404  48.992  1.00  0.00     0.024 A 
HETATM   12  C15 UNL     1      25.808   6.292  48.673  1.00  0.00     0.015 A 
ENDBRANCH   3   6
BRANCH   1  13
HETATM   13  C6  UNL     1      31.527   7.233  48.644  1.00  0.00     0.045 A 
HETATM   14  C2  UNL     1      32.835   6.957  48.096  1.00  0.00    -0.021 A 
HETATM   15  C1  UNL     1      33.939   7.893  48.590  1.00  0.00     0.020 C 
HETATM   16  C3  UNL     1      33.023   6.549  46.653  1.00  0.00     0.020 C 
HETATM   17  C4  UNL     1      32.815   5.733  48.906  1.00  0.00    -0.021 A 
HETATM   18  C5  UNL     1      31.646   5.988  49.389  1.00  0.00    -0.022 A 
ENDBRANCH   1  13
BRANCH   5  19
HETATM   19  C16 UNL     1      29.523  10.011  48.282  1.00  0.00     0.192 A 
HETATM   20  N3  UNL     1      28.789  10.857  49.117  1.00  0.00    -0.198 NA
HETATM   21  C17 UNL     1      29.094  12.124  48.858  1.00  0.00     0.171 A 
HETATM   22  C18 UNL     1      29.992  12.697  47.924  1.00  0.00     0.111 A 
HETATM   23  S1  UNL     1      30.550  11.016  47.234  1.00  0.00    -0.058 SA
BRANCH  21  24
HETATM   24  O1  UNL     1      28.319  12.918  49.735  1.00  0.00    -0.344 OA
HETATM   25  H17 UNL     1      28.394  12.767  50.735  1.00  0.00     0.219 HD
ENDBRANCH  21  24
ENDBRANCH   5  19
TORSDOF 4
ENDMDL
