MODEL 1
REMARK VINA RESULT:      -8.5      0.000      0.000
REMARK  5 active torsions:
REMARK  status: ('A' for Active; 'I' for Inactive)
REMARK    1  A    between atoms: C3_3  and  C4_4 
REMARK    2  A    between atoms: C4_4  and  C5_6 
REMARK    3  A    between atoms: C7_8  and  N1_9 
REMARK    4  A    between atoms: N1_9  and  C8_10 
REMARK    5  A    between atoms: C18_23  and  O2_24 
ROOT
HETATM    1  C1  UNL     1      25.907   4.603  49.277  1.00  0.00     0.112 C 
HETATM    2  C2  UNL     1      26.359   3.629  50.259  1.00  0.00    -0.103 C 
HETATM    3  C3  UNL     1      26.761   2.812  51.097  1.00  0.00    -0.028 C 
ENDROOT
BRANCH   3   4
HETATM    4  C4  UNL     1      27.255   1.858  52.101  1.00  0.00     0.217 C 
HETATM    5  O1  UNL     1      28.315   2.393  52.604  1.00  0.00    -0.282 OA
BRANCH   4   6
HETATM    6  C5  UNL     1      26.427   0.703  52.183  1.00  0.00     0.159 C 
HETATM    7  C6  UNL     1      25.118   0.800  52.869  1.00  0.00    -0.027 C 
HETATM    8  C7  UNL     1      23.836   0.525  52.790  1.00  0.00     0.059 C 
HETATM    9  C20 UNL     1      25.858   1.244  54.158  1.00  0.00     0.097 C 
HETATM   10  C14 UNL     1      23.211  -0.306  53.892  1.00  0.00     0.086 C 
HETATM   11  C15 UNL     1      21.795  -0.342  53.802  1.00  0.00     0.103 C 
HETATM   12  C16 UNL     1      23.811  -1.024  54.902  1.00  0.00     0.113 C 
HETATM   13  N2  UNL     1      20.669  -0.383  53.715  1.00  0.00    -0.191 NA
HETATM   14  N3  UNL     1      25.285  -1.197  54.985  1.00  0.00    -0.365 N 
HETATM   15  C17 UNL     1      26.091  -0.313  54.196  1.00  0.00     0.043 C 
HETATM   16  H11 UNL     1      25.857  -1.856  55.473  1.00  0.00     0.165 HD
HETATM   17  C18 UNL     1      27.009  -0.388  53.192  1.00  0.00     0.085 C 
BRANCH   8  18
HETATM   18  N1  UNL     1      23.246   0.988  51.654  1.00  0.00    -0.355 N 
HETATM   19  H5  UNL     1      22.975   0.255  50.972  1.00  0.00     0.166 HD
BRANCH  18  20
HETATM   20  C8  UNL     1      22.979   2.366  51.348  1.00  0.00     0.033 A 
HETATM   21  C9  UNL     1      22.998   3.361  52.328  1.00  0.00     0.029 A 
HETATM   22  C10 UNL     1      22.732   4.675  51.974  1.00  0.00     0.004 A 
HETATM   23  C11 UNL     1      22.446   5.024  50.664  1.00  0.00     0.019 A 
HETATM   24  C12 UNL     1      22.431   4.018  49.703  1.00  0.00     0.013 A 
HETATM   25 BR1  UNL     1      22.038   4.504  47.900  1.00  0.00    -0.051 Br
HETATM   26  C13 UNL     1      22.695   2.712  50.049  1.00  0.00     0.048 A 
ENDBRANCH  18  20
ENDBRANCH   8  18
BRANCH  17  27
HETATM   27  O2  UNL     1      27.887  -1.394  53.701  1.00  0.00    -0.357 OA
HETATM   28  C19 UNL     1      29.257  -1.047  53.665  1.00  0.00     0.209 C 
ENDBRANCH  17  27
ENDBRANCH   4   6
ENDBRANCH   3   4
TORSDOF 5
ENDMDL
MODEL 2
REMARK VINA RESULT:      -8.1      1.892      2.043
REMARK  5 active torsions:
REMARK  status: ('A' for Active; 'I' for Inactive)
REMARK    1  A    between atoms: C3_3  and  C4_4 
REMARK    2  A    between atoms: C4_4  and  C5_6 
REMARK    3  A    between atoms: C7_8  and  N1_9 
REMARK    4  A    between atoms: N1_9  and  C8_10 
REMARK    5  A    between atoms: C18_23  and  O2_24 
ROOT
HETATM    1  C1  UNL     1      24.263   3.937  49.485  1.00  0.00     0.112 C 
HETATM    2  C2  UNL     1      25.149   3.166  50.346  1.00  0.00    -0.103 C 
HETATM    3  C3  UNL     1      25.913   2.528  51.081  1.00  0.00    -0.028 C 
ENDROOT
BRANCH   3   4
HETATM    4  C4  UNL     1      26.830   1.791  51.962  1.00  0.00     0.217 C 
HETATM    5  O1  UNL     1      27.862   2.549  52.110  1.00  0.00    -0.282 OA
BRANCH   4   6
HETATM    6  C5  UNL     1      26.292   0.531  52.348  1.00  0.00     0.159 C 
HETATM    7  C6  UNL     1      25.049   0.493  53.153  1.00  0.00    -0.027 C 
HETATM    8  C7  UNL     1      23.859  -0.051  53.275  1.00  0.00     0.059 C 
HETATM    9  C20 UNL     1      25.763   1.331  54.245  1.00  0.00     0.097 C 
HETATM   10  C14 UNL     1      23.521  -0.753  54.575  1.00  0.00     0.086 C 
HETATM   11  C15 UNL     1      22.147  -1.098  54.659  1.00  0.00     0.103 C 
HETATM   12  C16 UNL     1      24.341  -1.111  55.622  1.00  0.00     0.113 C 
HETATM   13  N2  UNL     1      21.056  -1.387  54.712  1.00  0.00    -0.191 NA
HETATM   14  N3  UNL     1      25.818  -0.956  55.562  1.00  0.00    -0.365 N 
HETATM   15  C17 UNL     1      26.343  -0.104  54.538  1.00  0.00     0.043 C 
HETATM   16  H11 UNL     1      26.557  -1.370  56.091  1.00  0.00     0.165 HD
HETATM   17  C18 UNL     1      27.178  -0.189  53.464  1.00  0.00     0.085 C 
BRANCH   8  18
HETATM   18  N1  UNL     1      23.098   0.040  52.151  1.00  0.00    -0.355 N 
HETATM   19  H5  UNL     1      23.375  -0.597  51.381  1.00  0.00     0.166 HD
BRANCH  18  20
HETATM   20  C8  UNL     1      21.978   0.920  51.964  1.00  0.00     0.033 A 
HETATM   21  C9  UNL     1      22.043   2.280  52.279  1.00  0.00     0.029 A 
HETATM   22  C10 UNL     1      20.929   3.083  52.079  1.00  0.00     0.004 A 
HETATM   23  C11 UNL     1      19.750   2.563  51.571  1.00  0.00     0.019 A 
HETATM   24  C12 UNL     1      19.706   1.208  51.264  1.00  0.00     0.013 A 
HETATM   25 BR1  UNL     1      18.079   0.497  50.565  1.00  0.00    -0.051 Br
HETATM   26  C13 UNL     1      20.808   0.406  51.461  1.00  0.00     0.048 A 
ENDBRANCH  18  20
ENDBRANCH   8  18
BRANCH  17  27
HETATM   27  O2  UNL     1      28.295  -0.868  54.042  1.00  0.00    -0.357 OA
HETATM   28  C19 UNL     1      29.549  -0.481  53.516  1.00  0.00     0.209 C 
ENDBRANCH  17  27
ENDBRANCH   4   6
ENDBRANCH   3   4
TORSDOF 5
ENDMDL
MODEL 3
REMARK VINA RESULT:      -7.8      3.434      5.814
REMARK  5 active torsions:
REMARK  status: ('A' for Active; 'I' for Inactive)
REMARK    1  A    between atoms: C3_3  and  C4_4 
REMARK    2  A    between atoms: C4_4  and  C5_6 
REMARK    3  A    between atoms: C7_8  and  N1_9 
REMARK    4  A    between atoms: N1_9  and  C8_10 
REMARK    5  A    between atoms: C18_23  and  O2_24 
ROOT
HETATM    1  C1  UNL     1      26.428   2.989  50.185  1.00  0.00     0.112 C 
HETATM    2  C2  UNL     1      24.974   2.930  50.204  1.00  0.00    -0.103 C 
HETATM    3  C3  UNL     1      23.737   2.891  50.202  1.00  0.00    -0.028 C 
ENDROOT
BRANCH   3   4
HETATM    4  C4  UNL     1      22.267   2.852  50.176  1.00  0.00     0.217 C 
HETATM    5  O1  UNL     1      21.929   3.116  48.961  1.00  0.00    -0.282 OA
BRANCH   4   6
HETATM    6  C5  UNL     1      21.726   2.543  51.456  1.00  0.00     0.159 C 
HETATM    7  C6  UNL     1      22.060   1.244  52.087  1.00  0.00    -0.027 C 
HETATM    8  C7  UNL     1      22.465   0.653  53.188  1.00  0.00     0.059 C 
HETATM    9  C20 UNL     1      21.451   0.522  50.858  1.00  0.00     0.097 C 
HETATM   10  C14 UNL     1      21.592  -0.434  53.781  1.00  0.00     0.086 C 
HETATM   11  C15 UNL     1      22.242  -1.134  54.830  1.00  0.00     0.103 C 
HETATM   12  C16 UNL     1      20.299  -0.793  53.471  1.00  0.00     0.113 C 
HETATM   13  N2  UNL     1      22.758  -1.676  55.678  1.00  0.00    -0.191 NA
HETATM   14  N3  UNL     1      19.467  -0.016  52.515  1.00  0.00    -0.365 N 
HETATM   15  C17 UNL     1      20.150   0.907  51.657  1.00  0.00     0.043 C 
HETATM   16  H11 UNL     1      18.481   0.024  52.363  1.00  0.00     0.165 HD
HETATM   17  C18 UNL     1      20.159   2.244  51.393  1.00  0.00     0.085 C 
BRANCH   8  18
HETATM   18  N1  UNL     1      23.620   1.167  53.693  1.00  0.00    -0.355 N 
HETATM   19  H5  UNL     1      23.494   1.922  54.392  1.00  0.00     0.166 HD
BRANCH  18  20
HETATM   20  C8  UNL     1      24.949   0.751  53.340  1.00  0.00     0.033 A 
HETATM   21  C9  UNL     1      25.203  -0.478  52.726  1.00  0.00     0.029 A 
HETATM   22  C10 UNL     1      26.507  -0.828  52.408  1.00  0.00     0.004 A 
HETATM   23  C11 UNL     1      27.567   0.019  52.689  1.00  0.00     0.019 A 
HETATM   24  C12 UNL     1      27.293   1.237  53.301  1.00  0.00     0.013 A 
HETATM   25 BR1  UNL     1      28.757   2.399  53.685  1.00  0.00    -0.051 Br
HETATM   26  C13 UNL     1      26.000   1.589  53.618  1.00  0.00     0.048 A 
ENDBRANCH  18  20
ENDBRANCH   8  18
BRANCH  17  27
HETATM   27  O2  UNL     1      18.762   2.498  51.236  1.00  0.00    -0.357 OA
HETATM   28  C19 UNL     1      18.374   2.835  49.919  1.00  0.00     0.209 C 
ENDBRANCH  17  27
ENDBRANCH   4   6
ENDBRANCH   3   4
TORSDOF 5
ENDMDL
MODEL 4
REMARK VINA RESULT:      -7.1      2.576      4.869
REMARK  5 active torsions:
REMARK  status: ('A' for Active; 'I' for Inactive)
REMARK    1  A    between atoms: C3_3  and  C4_4 
REMARK    2  A    between atoms: C4_4  and  C5_6 
REMARK    3  A    between atoms: C7_8  and  N1_9 
REMARK    4  A    between atoms: N1_9  and  C8_10 
REMARK    5  A    between atoms: C18_23  and  O2_24 
ROOT
HETATM    1  C1  UNL     1      20.105  -0.174  52.999  1.00  0.00     0.112 C 
HETATM    2  C2  UNL     1      21.519   0.058  53.252  1.00  0.00    -0.103 C 
HETATM    3  C3  UNL     1      22.725   0.252  53.447  1.00  0.00    -0.028 C 
ENDROOT
BRANCH   3   4
HETATM    4  C4  UNL     1      24.162   0.485  53.653  1.00  0.00     0.217 C 
HETATM    5  O1  UNL     1      24.643  -0.633  54.077  1.00  0.00    -0.282 OA
BRANCH   4   6
HETATM    6  C5  UNL     1      24.532   1.820  53.326  1.00  0.00     0.159 C 
HETATM    7  C6  UNL     1      24.432   2.273  51.919  1.00  0.00    -0.027 C 
HETATM    8  C7  UNL     1      24.004   3.223  51.120  1.00  0.00     0.059 C 
HETATM    9  C20 UNL     1      25.409   1.139  51.514  1.00  0.00     0.097 C 
HETATM   10  C14 UNL     1      25.006   3.895  50.203  1.00  0.00     0.086 C 
HETATM   11  C15 UNL     1      24.380   4.738  49.247  1.00  0.00     0.103 C 
HETATM   12  C16 UNL     1      26.381   3.823  50.196  1.00  0.00     0.113 C 
HETATM   13  N2  UNL     1      23.878   5.423  48.501  1.00  0.00    -0.191 NA
HETATM   14  N3  UNL     1      27.143   3.113  51.256  1.00  0.00    -0.365 N 
HETATM   15  C17 UNL     1      26.410   2.208  52.091  1.00  0.00     0.043 C 
HETATM   16  H11 UNL     1      28.098   3.164  51.544  1.00  0.00     0.165 HD
HETATM   17  C18 UNL     1      26.109   2.048  53.411  1.00  0.00     0.085 C 
BRANCH   8  18
HETATM   18  N1  UNL     1      22.687   3.525  51.284  1.00  0.00    -0.355 N 
HETATM   19  H5  UNL     1      22.499   4.366  51.861  1.00  0.00     0.166 HD
BRANCH  18  20
HETATM   20  C8  UNL     1      21.582   2.791  50.733  1.00  0.00     0.033 A 
HETATM   21  C9  UNL     1      21.763   1.776  49.790  1.00  0.00     0.029 A 
HETATM   22  C10 UNL     1      20.658   1.100  49.291  1.00  0.00     0.004 A 
HETATM   23  C11 UNL     1      19.375   1.412  49.710  1.00  0.00     0.019 A 
HETATM   24  C12 UNL     1      19.216   2.426  50.649  1.00  0.00     0.013 A 
HETATM   25 BR1  UNL     1      17.447   2.851  51.222  1.00  0.00    -0.051 Br
HETATM   26  C13 UNL     1      20.309   3.100  51.147  1.00  0.00     0.048 A 
ENDBRANCH  18  20
ENDBRANCH   8  18
BRANCH  17  27
HETATM   27  O2  UNL     1      27.403   2.193  54.003  1.00  0.00    -0.357 OA
HETATM   28  C19 UNL     1      28.111   0.980  54.160  1.00  0.00     0.209 C 
ENDBRANCH  17  27
ENDBRANCH   4   6
ENDBRANCH   3   4
TORSDOF 5
ENDMDL
MODEL 5
REMARK VINA RESULT:      -7.0      2.021      2.400
REMARK  5 active torsions:
REMARK  status: ('A' for Active; 'I' for Inactive)
REMARK    1  A    between atoms: C3_3  and  C4_4 
REMARK    2  A    between atoms: C4_4  and  C5_6 
REMARK    3  A    between atoms: C7_8  and  N1_9 
REMARK    4  A    between atoms: N1_9  and  C8_10 
REMARK    5  A    between atoms: C18_23  and  O2_24 
ROOT
HETATM    1  C1  UNL     1      27.649   4.747  48.635  1.00  0.00     0.112 C 
HETATM    2  C2  UNL     1      26.582   4.311  49.524  1.00  0.00    -0.103 C 
HETATM    3  C3  UNL     1      25.672   3.925  50.267  1.00  0.00    -0.028 C 
ENDROOT
BRANCH   3   4
HETATM    4  C4  UNL     1      24.590   3.443  51.139  1.00  0.00     0.217 C 
HETATM    5  O1  UNL     1      23.870   4.477  51.412  1.00  0.00    -0.282 OA
BRANCH   4   6
HETATM    6  C5  UNL     1      24.692   2.044  51.380  1.00  0.00     0.159 C 
HETATM    7  C6  UNL     1      23.910   1.443  52.486  1.00  0.00    -0.027 C 
HETATM    8  C7  UNL     1      23.106   0.463  52.830  1.00  0.00     0.059 C 
HETATM    9  C20 UNL     1      24.631   2.396  53.476  1.00  0.00     0.097 C 
HETATM   10  C14 UNL     1      23.514  -0.428  53.986  1.00  0.00     0.086 C 
HETATM   11  C15 UNL     1      22.468  -1.296  54.392  1.00  0.00     0.103 C 
HETATM   12  C16 UNL     1      24.722  -0.523  54.641  1.00  0.00     0.113 C 
HETATM   13  N2  UNL     1      21.637  -1.999  54.698  1.00  0.00    -0.191 NA
HETATM   14  N3  UNL     1      25.932   0.211  54.186  1.00  0.00    -0.365 N 
HETATM   15  C17 UNL     1      25.731   1.289  53.264  1.00  0.00     0.043 C 
HETATM   16  H11 UNL     1      26.904   0.080  54.371  1.00  0.00     0.165 HD
HETATM   17  C18 UNL     1      26.105   1.639  52.001  1.00  0.00     0.085 C 
BRANCH   8  18
HETATM   18  N1  UNL     1      22.013   0.344  52.028  1.00  0.00    -0.355 N 
HETATM   19  H5  UNL     1      21.774  -0.628  51.756  1.00  0.00     0.166 HD
BRANCH  18  20
HETATM   20  C8  UNL     1      21.199   1.427  51.550  1.00  0.00     0.033 A 
HETATM   21  C9  UNL     1      20.525   2.287  52.421  1.00  0.00     0.029 A 
HETATM   22  C10 UNL     1      19.751   3.316  51.903  1.00  0.00     0.004 A 
HETATM   23  C11 UNL     1      19.633   3.509  50.537  1.00  0.00     0.019 A 
HETATM   24  C12 UNL     1      20.312   2.643  49.687  1.00  0.00     0.013 A 
HETATM   25 BR1  UNL     1      20.146   2.914  47.806  1.00  0.00    -0.051 Br
HETATM   26  C13 UNL     1      21.081   1.619  50.196  1.00  0.00     0.048 A 
ENDBRANCH  18  20
ENDBRANCH   8  18
BRANCH  17  27
HETATM   27  O2  UNL     1      27.515   1.411  52.063  1.00  0.00    -0.357 OA
HETATM   28  C19 UNL     1      28.214   2.301  52.911  1.00  0.00     0.209 C 
ENDBRANCH  17  27
ENDBRANCH   4   6
ENDBRANCH   3   4
TORSDOF 5
ENDMDL
MODEL 6
REMARK VINA RESULT:      -7.0      6.946     10.025
REMARK  5 active torsions:
REMARK  status: ('A' for Active; 'I' for Inactive)
REMARK    1  A    between atoms: C3_3  and  C4_4 
REMARK    2  A    between atoms: C4_4  and  C5_6 
REMARK    3  A    between atoms: C7_8  and  N1_9 
REMARK    4  A    between atoms: N1_9  and  C8_10 
REMARK    5  A    between atoms: C18_23  and  O2_24 
ROOT
HETATM    1  C1  UNL     1      26.801   4.642  48.788  1.00  0.00     0.112 C 
HETATM    2  C2  UNL     1      28.169   5.106  48.612  1.00  0.00    -0.103 C 
HETATM    3  C3  UNL     1      29.331   5.494  48.443  1.00  0.00    -0.028 C 
ENDROOT
BRANCH   3   4
HETATM    4  C4  UNL     1      30.710   5.954  48.217  1.00  0.00     0.217 C 
HETATM    5  O1  UNL     1      31.246   5.086  47.429  1.00  0.00    -0.282 OA
BRANCH   4   6
HETATM    6  C5  UNL     1      30.983   7.162  48.918  1.00  0.00     0.159 C 
HETATM    7  C6  UNL     1      30.267   8.400  48.529  1.00  0.00    -0.027 C 
HETATM    8  C7  UNL     1      29.588   9.436  48.966  1.00  0.00     0.059 C 
HETATM    9  C20 UNL     1      30.848   8.253  47.099  1.00  0.00     0.097 C 
HETATM   10  C14 UNL     1      30.088  10.822  48.616  1.00  0.00     0.086 C 
HETATM   11  C15 UNL     1      29.154  11.834  48.957  1.00  0.00     0.103 C 
HETATM   12  C16 UNL     1      31.289  11.213  48.065  1.00  0.00     0.113 C 
HETATM   13  N2  UNL     1      28.414  12.638  49.249  1.00  0.00    -0.191 NA
HETATM   14  N3  UNL     1      32.403  10.257  47.832  1.00  0.00    -0.365 N 
HETATM   15  C17 UNL     1      32.082   8.861  47.865  1.00  0.00     0.043 C 
HETATM   16  H11 UNL     1      33.382  10.391  47.685  1.00  0.00     0.165 HD
HETATM   17  C18 UNL     1      32.427   7.748  48.572  1.00  0.00     0.085 C 
BRANCH   8  18
HETATM   18  N1  UNL     1      28.531   9.103  49.757  1.00  0.00    -0.355 N 
HETATM   19  H5  UNL     1      28.690   9.223  50.774  1.00  0.00     0.166 HD
BRANCH  18  20
HETATM   20  C8  UNL     1      27.258   8.619  49.297  1.00  0.00     0.033 A 
HETATM   21  C9  UNL     1      26.899   8.645  47.948  1.00  0.00     0.029 A 
HETATM   22  C10 UNL     1      25.656   8.165  47.562  1.00  0.00     0.004 A 
HETATM   23  C11 UNL     1      24.760   7.659  48.490  1.00  0.00     0.019 A 
HETATM   24  C12 UNL     1      25.137   7.643  49.828  1.00  0.00     0.013 A 
HETATM   25 BR1  UNL     1      23.900   6.945  51.102  1.00  0.00    -0.051 Br
HETATM   26  C13 UNL     1      26.370   8.118  50.217  1.00  0.00     0.048 A 
ENDBRANCH  18  20
ENDBRANCH   8  18
BRANCH  17  27
HETATM   27  O2  UNL     1      33.853   7.838  48.540  1.00  0.00    -0.357 OA
HETATM   28  C19 UNL     1      34.487   6.813  47.802  1.00  0.00     0.209 C 
ENDBRANCH  17  27
ENDBRANCH   4   6
ENDBRANCH   3   4
TORSDOF 5
ENDMDL
MODEL 7
REMARK VINA RESULT:      -6.9      3.005      5.794
REMARK  5 active torsions:
REMARK  status: ('A' for Active; 'I' for Inactive)
REMARK    1  A    between atoms: C3_3  and  C4_4 
REMARK    2  A    between atoms: C4_4  and  C5_6 
REMARK    3  A    between atoms: C7_8  and  N1_9 
REMARK    4  A    between atoms: N1_9  and  C8_10 
REMARK    5  A    between atoms: C18_23  and  O2_24 
ROOT
HETATM    1  C1  UNL     1      27.568   7.335  47.935  1.00  0.00     0.112 C 
HETATM    2  C2  UNL     1      26.998   6.163  48.583  1.00  0.00    -0.103 C 
HETATM    3  C3  UNL     1      26.527   5.169  49.150  1.00  0.00    -0.028 C 
ENDROOT
BRANCH   3   4
HETATM    4  C4  UNL     1      25.979   3.995  49.846  1.00  0.00     0.217 C 
HETATM    5  O1  UNL     1      26.768   3.016  49.561  1.00  0.00    -0.282 OA
BRANCH   4   6
HETATM    6  C5  UNL     1      24.803   4.319  50.579  1.00  0.00     0.159 C 
HETATM    7  C6  UNL     1      23.841   3.243  50.914  1.00  0.00    -0.027 C 
HETATM    8  C7  UNL     1      23.119   2.700  51.868  1.00  0.00     0.059 C 
HETATM    9  C20 UNL     1      23.684   2.951  49.399  1.00  0.00     0.097 C 
HETATM   10  C14 UNL     1      21.623   2.583  51.657  1.00  0.00     0.086 C 
HETATM   11  C15 UNL     1      21.000   1.788  52.654  1.00  0.00     0.103 C 
HETATM   12  C16 UNL     1      20.823   3.147  50.689  1.00  0.00     0.113 C 
HETATM   13  N2  UNL     1      20.506   1.170  53.461  1.00  0.00    -0.191 NA
HETATM   14  N3  UNL     1      21.343   4.133  49.705  1.00  0.00    -0.365 N 
HETATM   15  C17 UNL     1      22.765   4.220  49.560  1.00  0.00     0.043 C 
HETATM   16  H11 UNL     1      20.886   4.803  49.123  1.00  0.00     0.165 HD
HETATM   17  C18 UNL     1      23.755   5.147  49.705  1.00  0.00     0.085 C 
BRANCH   8  18
HETATM   18  N1  UNL     1      23.836   2.369  52.976  1.00  0.00    -0.355 N 
HETATM   19  H5  UNL     1      23.482   2.771  53.864  1.00  0.00     0.166 HD
BRANCH  18  20
HETATM   20  C8  UNL     1      25.004   1.531  53.002  1.00  0.00     0.033 A 
HETATM   21  C9  UNL     1      24.945   0.168  52.703  1.00  0.00     0.029 A 
HETATM   22  C10 UNL     1      26.105  -0.592  52.745  1.00  0.00     0.004 A 
HETATM   23  C11 UNL     1      27.324  -0.026  53.079  1.00  0.00     0.019 A 
HETATM   24  C12 UNL     1      27.361   1.332  53.374  1.00  0.00     0.013 A 
HETATM   25 BR1  UNL     1      29.043   2.107  53.833  1.00  0.00    -0.051 Br
HETATM   26  C13 UNL     1      26.213   2.092  53.334  1.00  0.00     0.048 A 
ENDBRANCH  18  20
ENDBRANCH   8  18
BRANCH  17  27
HETATM   27  O2  UNL     1      23.202   6.249  48.983  1.00  0.00    -0.357 OA
HETATM   28  C19 UNL     1      23.420   6.200  47.587  1.00  0.00     0.209 C 
ENDBRANCH  17  27
ENDBRANCH   4   6
ENDBRANCH   3   4
TORSDOF 5
ENDMDL
MODEL 8
REMARK VINA RESULT:      -6.9      3.508      5.913
REMARK  5 active torsions:
REMARK  status: ('A' for Active; 'I' for Inactive)
REMARK    1  A    between atoms: C3_3  and  C4_4 
REMARK    2  A    between atoms: C4_4  and  C5_6 
REMARK    3  A    between atoms: C7_8  and  N1_9 
REMARK    4  A    between atoms: N1_9  and  C8_10 
REMARK    5  A    between atoms: C18_23  and  O2_24 
ROOT
HETATM    1  C1  UNL     1      26.567   3.137  50.121  1.00  0.00     0.112 C 
HETATM    2  C2  UNL     1      25.175   3.209  49.702  1.00  0.00    -0.103 C 
HETATM    3  C3  UNL     1      23.989   3.250  49.351  1.00  0.00    -0.028 C 
ENDROOT
BRANCH   3   4
HETATM    4  C4  UNL     1      22.576   3.278  48.946  1.00  0.00     0.217 C 
HETATM    5  O1  UNL     1      22.577   3.453  47.669  1.00  0.00    -0.282 OA
BRANCH   4   6
HETATM    6  C5  UNL     1      21.706   3.107  50.060  1.00  0.00     0.159 C 
HETATM    7  C6  UNL     1      21.879   1.924  50.936  1.00  0.00    -0.027 C 
HETATM    8  C7  UNL     1      21.974   1.507  52.178  1.00  0.00     0.059 C 
HETATM    9  C20 UNL     1      21.652   1.012  49.703  1.00  0.00     0.097 C 
HETATM   10  C14 UNL     1      20.994   0.456  52.658  1.00  0.00     0.086 C 
HETATM   11  C15 UNL     1      21.341  -0.062  53.933  1.00  0.00     0.103 C 
HETATM   12  C16 UNL     1      19.847  -0.017  52.062  1.00  0.00     0.113 C 
HETATM   13  N2  UNL     1      21.612  -0.456  54.958  1.00  0.00    -0.191 NA
HETATM   14  N3  UNL     1      19.298   0.577  50.815  1.00  0.00    -0.365 N 
HETATM   15  C17 UNL     1      20.172   1.419  50.055  1.00  0.00     0.043 C 
HETATM   16  H11 UNL     1      18.392   0.537  50.395  1.00  0.00     0.165 HD
HETATM   17  C18 UNL     1      20.226   2.709  49.616  1.00  0.00     0.085 C 
BRANCH   8  18
HETATM   18  N1  UNL     1      22.931   2.150  52.901  1.00  0.00    -0.355 N 
HETATM   19  H5  UNL     1      22.611   3.009  53.385  1.00  0.00     0.166 HD
BRANCH  18  20
HETATM   20  C8  UNL     1      24.300   1.737  53.037  1.00  0.00     0.033 A 
HETATM   21  C9  UNL     1      25.292   2.601  53.507  1.00  0.00     0.029 A 
HETATM   22  C10 UNL     1      26.599   2.148  53.616  1.00  0.00     0.004 A 
HETATM   23  C11 UNL     1      26.942   0.852  53.269  1.00  0.00     0.019 A 
HETATM   24  C12 UNL     1      25.940   0.007  52.802  1.00  0.00     0.013 A 
HETATM   25 BR1  UNL     1      26.418  -1.777  52.325  1.00  0.00    -0.051 Br
HETATM   26  C13 UNL     1      24.641   0.452  52.691  1.00  0.00     0.048 A 
ENDBRANCH  18  20
ENDBRANCH   8  18
BRANCH  17  27
HETATM   27  O2  UNL     1      18.922   2.856  49.049  1.00  0.00    -0.357 OA
HETATM   28  C19 UNL     1      18.912   3.029  47.646  1.00  0.00     0.209 C 
ENDBRANCH  17  27
ENDBRANCH   4   6
ENDBRANCH   3   4
TORSDOF 5
ENDMDL
MODEL 9
REMARK VINA RESULT:      -6.6      3.589      5.881
REMARK  5 active torsions:
REMARK  status: ('A' for Active; 'I' for Inactive)
REMARK    1  A    between atoms: C3_3  and  C4_4 
REMARK    2  A    between atoms: C4_4  and  C5_6 
REMARK    3  A    between atoms: C7_8  and  N1_9 
REMARK    4  A    between atoms: N1_9  and  C8_10 
REMARK    5  A    between atoms: C18_23  and  O2_24 
ROOT
HETATM    1  C1  UNL     1      21.640   5.134  47.022  1.00  0.00     0.112 C 
HETATM    2  C2  UNL     1      21.783   3.884  47.752  1.00  0.00    -0.103 C 
HETATM    3  C3  UNL     1      21.894   2.829  48.389  1.00  0.00    -0.028 C 
ENDROOT
BRANCH   3   4
HETATM    4  C4  UNL     1      22.005   1.581  49.160  1.00  0.00     0.217 C 
HETATM    5  O1  UNL     1      21.875   0.625  48.305  1.00  0.00    -0.282 OA
BRANCH   4   6
HETATM    6  C5  UNL     1      22.214   1.836  50.545  1.00  0.00     0.159 C 
HETATM    7  C6  UNL     1      22.061   0.725  51.514  1.00  0.00    -0.027 C 
HETATM    8  C7  UNL     1      22.603   0.104  52.537  1.00  0.00     0.059 C 
HETATM    9  C20 UNL     1      20.598   0.544  51.032  1.00  0.00     0.097 C 
HETATM   10  C14 UNL     1      21.794  -0.016  53.813  1.00  0.00     0.086 C 
HETATM   11  C15 UNL     1      22.400  -0.890  54.753  1.00  0.00     0.103 C 
HETATM   12  C16 UNL     1      20.622   0.608  54.175  1.00  0.00     0.113 C 
HETATM   13  N2  UNL     1      22.896  -1.572  55.506  1.00  0.00    -0.191 NA
HETATM   14  N3  UNL     1      19.998   1.670  53.343  1.00  0.00    -0.365 N 
HETATM   15  C17 UNL     1      20.450   1.786  51.988  1.00  0.00     0.043 C 
HETATM   16  H11 UNL     1      19.322   2.376  53.552  1.00  0.00     0.165 HD
HETATM   17  C18 UNL     1      21.043   2.711  51.182  1.00  0.00     0.085 C 
BRANCH   8  18
HETATM   18  N1  UNL     1      23.884  -0.298  52.318  1.00  0.00    -0.355 N 
HETATM   19  H5  UNL     1      23.983  -1.136  51.715  1.00  0.00     0.166 HD
BRANCH  18  20
HETATM   20  C8  UNL     1      25.064   0.333  52.841  1.00  0.00     0.033 A 
HETATM   21  C9  UNL     1      25.076   1.674  53.231  1.00  0.00     0.029 A 
HETATM   22  C10 UNL     1      26.245   2.232  53.729  1.00  0.00     0.004 A 
HETATM   23  C11 UNL     1      27.404   1.483  53.848  1.00  0.00     0.019 A 
HETATM   24  C12 UNL     1      27.372   0.150  53.453  1.00  0.00     0.013 A 
HETATM   25 BR1  UNL     1      28.972  -0.875  53.618  1.00  0.00    -0.051 Br
HETATM   26  C13 UNL     1      26.214  -0.408  52.958  1.00  0.00     0.048 A 
ENDBRANCH  18  20
ENDBRANCH   8  18
BRANCH  17  27
HETATM   27  O2  UNL     1      20.227   3.857  51.440  1.00  0.00    -0.357 OA
HETATM   28  C19 UNL     1      20.855   5.094  51.164  1.00  0.00     0.209 C 
ENDBRANCH  17  27
ENDBRANCH   4   6
ENDBRANCH   3   4
TORSDOF 5
ENDMDL
