MODEL 1
REMARK VINA RESULT:      -9.1      0.000      0.000
REMARK  2 active torsions:
REMARK  status: ('A' for Active; 'I' for Inactive)
REMARK    1  A    between atoms: C2_2  and  N1_3 
REMARK    2  A    between atoms: C8_9  and  C9_10 
ROOT
HETATM    1  C1  UNL     1      19.826   3.110  51.915  1.00  0.00     0.050 C 
HETATM    2  C2  UNL     1      21.064   3.041  51.022  1.00  0.00     0.171 C 
HETATM    3  C3  UNL     1      21.312   1.606  50.661  1.00  0.00     0.056 C 
HETATM    4  C4  UNL     1      21.456   0.703  51.811  1.00  0.00    -0.011 A 
HETATM    5  C5  UNL     1      20.309   0.087  52.245  1.00  0.00    -0.036 A 
HETATM    6  C6  UNL     1      21.292  -0.359  53.058  1.00  0.00     0.027 A 
HETATM    7  C7  UNL     1      22.483   0.254  52.640  1.00  0.00    -0.001 A 
HETATM    8  C8  UNL     1      22.631  -0.519  53.622  1.00  0.00     0.027 A 
HETATM    9  C9  UNL     1      22.613   0.441  52.449  1.00  0.00     0.030 A 
HETATM   10  C10 UNL     1      23.860   0.053  53.259  1.00  0.00     0.036 A 
HETATM   11  C11 UNL     1      24.875  -0.115  53.710  1.00  0.00    -0.141 C 
HETATM   12  C12 UNL     1      26.089  -0.327  54.274  1.00  0.00     0.087 C 
HETATM   13  C13 UNL     1      26.662  -1.130  53.412  1.00  0.00     0.117 C 
HETATM   14  N2  UNL     1      26.914  -0.696  52.224  1.00  0.00    -0.146 NA
HETATM   15  N3  UNL     1      26.238   0.502  51.890  1.00  0.00    -0.143 NA
HETATM   16  C14 UNL     1      27.006   1.526  51.664  1.00  0.00     0.256 C 
HETATM   17  N4  UNL     1      26.465   2.789  51.320  1.00  0.00    -0.255 NA
HETATM   18  C15 UNL     1      26.108   3.077  50.119  1.00  0.00     0.120 C 
HETATM   19  C16 UNL     1      25.604   4.477  50.196  1.00  0.00     0.316 C 
HETATM   20  N5  UNL     1      24.534   4.551  51.168  1.00  0.00     0.089 N 
HETATM   21  C17 UNL     1      23.411   3.800  50.606  1.00  0.00     0.292 C 
HETATM   22  C18 UNL     1      22.230   3.794  51.537  1.00  0.00     0.148 C 
HETATM   23 CL1  UNL     1      21.716   5.486  51.792  1.00  0.00    -0.120 Cl
HETATM   24  H17 UNL     1      24.903   4.063  52.037  1.00  0.00     0.316 HD
ENDROOT
BRANCH   2  25
HETATM   25  N1  UNL     1      20.647   3.705  49.775  1.00  0.00     0.089 N 
HETATM   26  H4  UNL     1      21.071   3.103  49.024  1.00  0.00     0.313 HD
HETATM   27  H5  UNL     1      20.973   4.691  49.737  1.00  0.00     0.313 HD
ENDBRANCH   2  25
TORSDOF 2
ENDMDL
MODEL 2
REMARK VINA RESULT:      -9.1      2.046      4.391
REMARK  2 active torsions:
REMARK  status: ('A' for Active; 'I' for Inactive)
REMARK    1  A    between atoms: C2_2  and  N1_3 
REMARK    2  A    between atoms: C8_9  and  C9_10 
ROOT
HETATM    1  C1  UNL     1      22.621   3.397  48.776  1.00  0.00     0.050 C 
HETATM    2  C2  UNL     1      22.281   3.002  50.212  1.00  0.00     0.171 C 
HETATM    3  C3  UNL     1      23.242   3.692  51.136  1.00  0.00     0.056 C 
HETATM    4  C4  UNL     1      24.659   3.428  50.851  1.00  0.00    -0.011 A 
HETATM    5  C5  UNL     1      25.285   4.318  50.016  1.00  0.00    -0.036 A 
HETATM    6  C6  UNL     1      26.227   3.410  50.352  1.00  0.00     0.027 A 
HETATM    7  C7  UNL     1      25.619   2.481  51.209  1.00  0.00    -0.001 A 
HETATM    8  C8  UNL     1      26.833   2.239  50.984  1.00  0.00     0.027 A 
HETATM    9  C9  UNL     1      25.369   2.398  51.349  1.00  0.00     0.030 A 
HETATM   10  C10 UNL     1      26.293   1.275  51.849  1.00  0.00     0.036 A 
HETATM   11  C11 UNL     1      26.803   0.398  52.330  1.00  0.00    -0.141 C 
HETATM   12  C12 UNL     1      27.435  -0.659  52.896  1.00  0.00     0.087 C 
HETATM   13  C13 UNL     1      27.629  -0.246  54.123  1.00  0.00     0.117 C 
HETATM   14  N2  UNL     1      26.608  -0.024  54.878  1.00  0.00    -0.146 NA
HETATM   15  N3  UNL     1      25.379   0.062  54.179  1.00  0.00    -0.143 NA
HETATM   16  C14 UNL     1      24.509  -0.858  54.473  1.00  0.00     0.256 C 
HETATM   17  N4  UNL     1      23.239  -0.894  53.849  1.00  0.00    -0.255 NA
HETATM   18  C15 UNL     1      22.260  -0.160  54.244  1.00  0.00     0.120 C 
HETATM   19  C16 UNL     1      21.133  -0.504  53.334  1.00  0.00     0.316 C 
HETATM   20  N5  UNL     1      21.533  -0.272  51.962  1.00  0.00     0.089 N 
HETATM   21  C17 UNL     1      21.680   1.176  51.813  1.00  0.00     0.292 C 
HETATM   22  C18 UNL     1      22.109   1.546  50.420  1.00  0.00     0.148 C 
HETATM   23 CL1  UNL     1      20.852   0.979  49.284  1.00  0.00    -0.120 Cl
HETATM   24  H17 UNL     1      22.476  -0.750  51.855  1.00  0.00     0.316 HD
ENDROOT
BRANCH   2  25
HETATM   25  N1  UNL     1      20.969   3.623  50.456  1.00  0.00     0.089 N 
HETATM   26  H4  UNL     1      20.304   2.808  50.439  1.00  0.00     0.313 HD
HETATM   27  H5  UNL     1      20.746   4.344  49.743  1.00  0.00     0.313 HD
ENDBRANCH   2  25
TORSDOF 2
ENDMDL
MODEL 3
REMARK VINA RESULT:      -8.9      1.978      5.176
REMARK  2 active torsions:
REMARK  status: ('A' for Active; 'I' for Inactive)
REMARK    1  A    between atoms: C2_2  and  N1_3 
REMARK    2  A    between atoms: C8_9  and  C9_10 
ROOT
HETATM    1  C1  UNL     1      26.538   0.634  51.779  1.00  0.00     0.050 C 
HETATM    2  C2  UNL     1      25.880   1.992  52.017  1.00  0.00     0.171 C 
HETATM    3  C3  UNL     1      24.942   1.869  53.183  1.00  0.00     0.056 C 
HETATM    4  C4  UNL     1      23.923   0.821  53.037  1.00  0.00    -0.011 A 
HETATM    5  C5  UNL     1      24.244  -0.412  53.546  1.00  0.00    -0.036 A 
HETATM    6  C6  UNL     1      22.999  -0.542  53.036  1.00  0.00     0.027 A 
HETATM    7  C7  UNL     1      22.638   0.705  52.506  1.00  0.00    -0.001 A 
HETATM    8  C8  UNL     1      21.748  -0.175  52.376  1.00  0.00     0.027 A 
HETATM    9  C9  UNL     1      22.719   0.988  52.457  1.00  0.00     0.030 A 
HETATM   10  C10 UNL     1      21.317   1.043  51.827  1.00  0.00     0.036 A 
HETATM   11  C11 UNL     1      20.333   1.288  51.344  1.00  0.00    -0.141 C 
HETATM   12  C12 UNL     1      19.142   1.561  50.759  1.00  0.00     0.087 C 
HETATM   13  C13 UNL     1      18.511   2.219  51.699  1.00  0.00     0.117 C 
HETATM   14  N2  UNL     1      18.969   3.364  52.076  1.00  0.00    -0.146 NA
HETATM   15  N3  UNL     1      20.296   3.624  51.655  1.00  0.00    -0.143 NA
HETATM   16  C14 UNL     1      20.432   4.629  50.843  1.00  0.00     0.256 C 
HETATM   17  N4  UNL     1      21.702   5.002  50.341  1.00  0.00    -0.255 NA
HETATM   18  C15 UNL     1      22.519   5.729  51.016  1.00  0.00     0.120 C 
HETATM   19  C16 UNL     1      23.712   5.881  50.138  1.00  0.00     0.316 C 
HETATM   20  N5  UNL     1      24.226   4.572  49.792  1.00  0.00     0.089 N 
HETATM   21  C17 UNL     1      24.766   4.001  51.027  1.00  0.00     0.292 C 
HETATM   22  C18 UNL     1      25.325   2.623  50.799  1.00  0.00     0.148 C 
HETATM   23 CL1  UNL     1      26.646   2.752  49.602  1.00  0.00    -0.120 Cl
HETATM   24  H17 UNL     1      23.384   4.012  49.465  1.00  0.00     0.316 HD
ENDROOT
BRANCH   2  25
HETATM   25  N1  UNL     1      26.983   2.852  52.476  1.00  0.00     0.089 N 
HETATM   26  H4  UNL     1      26.547   3.808  52.519  1.00  0.00     0.313 HD
HETATM   27  H5  UNL     1      27.799   2.806  51.835  1.00  0.00     0.313 HD
ENDBRANCH   2  25
TORSDOF 2
ENDMDL
MODEL 4
REMARK VINA RESULT:      -8.3      2.263      5.036
REMARK  2 active torsions:
REMARK  status: ('A' for Active; 'I' for Inactive)
REMARK    1  A    between atoms: C2_2  and  N1_3 
REMARK    2  A    between atoms: C8_9  and  C9_10 
ROOT
HETATM    1  C1  UNL     1      25.360  -0.669  53.858  1.00  0.00     0.050 C 
HETATM    2  C2  UNL     1      25.381   0.796  53.426  1.00  0.00     0.171 C 
HETATM    3  C3  UNL     1      24.037   1.397  53.719  1.00  0.00     0.056 C 
HETATM    4  C4  UNL     1      22.905   0.694  53.100  1.00  0.00    -0.011 A 
HETATM    5  C5  UNL     1      22.306  -0.278  53.861  1.00  0.00    -0.036 A 
HETATM    6  C6  UNL     1      21.623  -0.256  52.695  1.00  0.00     0.027 A 
HETATM    7  C7  UNL     1      22.212   0.730  51.891  1.00  0.00    -0.001 A 
HETATM    8  C8  UNL     1      21.242   0.145  51.343  1.00  0.00     0.027 A 
HETATM    9  C9  UNL     1      22.424   0.938  51.866  1.00  0.00     0.030 A 
HETATM   10  C10 UNL     1      21.776   1.118  50.484  1.00  0.00     0.036 A 
HETATM   11  C11 UNL     1      21.436   1.409  49.454  1.00  0.00    -0.141 C 
HETATM   12  C12 UNL     1      21.015   1.741  48.209  1.00  0.00     0.087 C 
HETATM   13  C13 UNL     1      20.366   2.858  48.421  1.00  0.00     0.117 C 
HETATM   14  N2  UNL     1      21.017   3.890  48.841  1.00  0.00    -0.146 NA
HETATM   15  N3  UNL     1      22.308   3.596  49.340  1.00  0.00    -0.143 NA
HETATM   16  C14 UNL     1      23.292   4.125  48.675  1.00  0.00     0.256 C 
HETATM   17  N4  UNL     1      24.638   3.914  49.061  1.00  0.00    -0.255 NA
HETATM   18  C15 UNL     1      25.198   4.597  49.994  1.00  0.00     0.120 C 
HETATM   19  C16 UNL     1      26.587   4.064  50.077  1.00  0.00     0.316 C 
HETATM   20  N5  UNL     1      26.542   2.640  50.329  1.00  0.00     0.089 N 
HETATM   21  C17 UNL     1      26.018   2.475  51.685  1.00  0.00     0.292 C 
HETATM   22  C18 UNL     1      25.913   1.024  52.063  1.00  0.00     0.148 C 
HETATM   23 CL1  UNL     1      27.550   0.312  51.993  1.00  0.00    -0.120 Cl
HETATM   24  H17 UNL     1      25.856   2.245  49.619  1.00  0.00     0.316 HD
ENDROOT
BRANCH   2  25
HETATM   25  N1  UNL     1      26.322   1.435  54.361  1.00  0.00     0.089 N 
HETATM   26  H4  UNL     1      26.577   2.333  53.877  1.00  0.00     0.313 HD
HETATM   27  H5  UNL     1      27.143   0.830  54.553  1.00  0.00     0.313 HD
ENDBRANCH   2  25
TORSDOF 2
ENDMDL
MODEL 5
REMARK VINA RESULT:      -8.1      1.606      2.173
REMARK  2 active torsions:
REMARK  status: ('A' for Active; 'I' for Inactive)
REMARK    1  A    between atoms: C2_2  and  N1_3 
REMARK    2  A    between atoms: C8_9  and  C9_10 
ROOT
HETATM    1  C1  UNL     1      19.063   1.214  51.734  1.00  0.00     0.050 C 
HETATM    2  C2  UNL     1      20.093   1.603  50.674  1.00  0.00     0.171 C 
HETATM    3  C3  UNL     1      21.106   0.500  50.567  1.00  0.00     0.056 C 
HETATM    4  C4  UNL     1      21.772   0.159  51.831  1.00  0.00    -0.011 A 
HETATM    5  C5  UNL     1      21.196  -0.845  52.568  1.00  0.00    -0.036 A 
HETATM    6  C6  UNL     1      22.280  -0.452  53.273  1.00  0.00     0.027 A 
HETATM    7  C7  UNL     1      22.895   0.577  52.544  1.00  0.00    -0.001 A 
HETATM    8  C8  UNL     1      23.485   0.297  53.620  1.00  0.00     0.027 A 
HETATM    9  C9  UNL     1      22.889   0.747  52.300  1.00  0.00     0.030 A 
HETATM   10  C10 UNL     1      24.157   1.329  52.945  1.00  0.00     0.036 A 
HETATM   11  C11 UNL     1      25.098   1.866  53.241  1.00  0.00    -0.141 C 
HETATM   12  C12 UNL     1      26.231   2.506  53.618  1.00  0.00     0.087 C 
HETATM   13  C13 UNL     1      27.135   1.955  52.848  1.00  0.00     0.117 C 
HETATM   14  N2  UNL     1      27.061   2.130  51.572  1.00  0.00    -0.146 NA
HETATM   15  N3  UNL     1      25.813   2.628  51.128  1.00  0.00    -0.143 NA
HETATM   16  C14 UNL     1      25.851   3.805  50.576  1.00  0.00     0.256 C 
HETATM   17  N4  UNL     1      24.677   4.426  50.087  1.00  0.00    -0.255 NA
HETATM   18  C15 UNL     1      24.185   4.149  48.932  1.00  0.00     0.120 C 
HETATM   19  C16 UNL     1      22.974   5.008  48.815  1.00  0.00     0.316 C 
HETATM   20  N5  UNL     1      22.082   4.737  49.922  1.00  0.00     0.089 N 
HETATM   21  C17 UNL     1      21.573   3.380  49.720  1.00  0.00     0.292 C 
HETATM   22  C18 UNL     1      20.634   2.973  50.822  1.00  0.00     0.148 C 
HETATM   23 CL1  UNL     1      19.254   4.107  50.822  1.00  0.00    -0.120 Cl
HETATM   24  H17 UNL     1      22.688   4.776  50.794  1.00  0.00     0.316 HD
ENDROOT
BRANCH   2  25
HETATM   25  N1  UNL     1      19.336   1.580  49.410  1.00  0.00     0.089 N 
HETATM   26  H4  UNL     1      19.703   2.418  48.891  1.00  0.00     0.313 HD
HETATM   27  H5  UNL     1      18.312   1.621  49.575  1.00  0.00     0.313 HD
ENDBRANCH   2  25
TORSDOF 2
ENDMDL
MODEL 6
REMARK VINA RESULT:      -8.1      2.942      5.729
REMARK  2 active torsions:
REMARK  status: ('A' for Active; 'I' for Inactive)
REMARK    1  A    between atoms: C2_2  and  N1_3 
REMARK    2  A    between atoms: C8_9  and  C9_10 
ROOT
HETATM    1  C1  UNL     1      24.628   0.864  52.287  1.00  0.00     0.050 C 
HETATM    2  C2  UNL     1      24.384   2.362  52.110  1.00  0.00     0.171 C 
HETATM    3  C3  UNL     1      22.908   2.589  51.955  1.00  0.00     0.056 C 
HETATM    4  C4  UNL     1      22.287   1.834  50.858  1.00  0.00    -0.011 A 
HETATM    5  C5  UNL     1      21.763   0.610  51.187  1.00  0.00    -0.036 A 
HETATM    6  C6  UNL     1      21.527   0.764  49.865  1.00  0.00     0.027 A 
HETATM    7  C7  UNL     1      22.051   2.011  49.495  1.00  0.00    -0.001 A 
HETATM    8  C8  UNL     1      21.519   1.384  48.542  1.00  0.00     0.027 A 
HETATM    9  C9  UNL     1      22.193   2.257  49.583  1.00  0.00     0.030 A 
HETATM   10  C10 UNL     1      22.017   2.620  48.099  1.00  0.00     0.036 A 
HETATM   11  C11 UNL     1      21.971   3.069  47.071  1.00  0.00    -0.141 C 
HETATM   12  C12 UNL     1      21.911   3.590  45.821  1.00  0.00     0.087 C 
HETATM   13  C13 UNL     1      20.947   4.469  45.930  1.00  0.00     0.117 C 
HETATM   14  N2  UNL     1      21.110   5.483  46.709  1.00  0.00    -0.146 NA
HETATM   15  N3  UNL     1      22.191   5.352  47.613  1.00  0.00    -0.143 NA
HETATM   16  C14 UNL     1      23.153   6.212  47.454  1.00  0.00     0.256 C 
HETATM   17  N4  UNL     1      24.297   6.197  48.287  1.00  0.00    -0.255 NA
HETATM   18  C15 UNL     1      24.305   6.742  49.451  1.00  0.00     0.120 C 
HETATM   19  C16 UNL     1      25.677   6.501  49.978  1.00  0.00     0.316 C 
HETATM   20  N5  UNL     1      25.948   5.079  49.986  1.00  0.00     0.089 N 
HETATM   21  C17 UNL     1      25.071   4.497  51.003  1.00  0.00     0.292 C 
HETATM   22  C18 UNL     1      25.252   3.008  51.100  1.00  0.00     0.148 C 
HETATM   23 CL1  UNL     1      26.949   2.683  51.554  1.00  0.00    -0.120 Cl
HETATM   24  H17 UNL     1      25.672   4.730  49.020  1.00  0.00     0.316 HD
ENDROOT
BRANCH   2  25
HETATM   25  N1  UNL     1      24.746   2.943  53.414  1.00  0.00     0.089 N 
HETATM   26  H4  UNL     1      25.513   3.622  53.175  1.00  0.00     0.313 HD
HETATM   27  H5  UNL     1      25.045   2.213  54.090  1.00  0.00     0.313 HD
ENDBRANCH   2  25
TORSDOF 2
ENDMDL
MODEL 7
REMARK VINA RESULT:      -8.1      3.610      7.002
REMARK  2 active torsions:
REMARK  status: ('A' for Active; 'I' for Inactive)
REMARK    1  A    between atoms: C2_2  and  N1_3 
REMARK    2  A    between atoms: C8_9  and  C9_10 
ROOT
HETATM    1  C1  UNL     1      26.555   8.109  46.238  1.00  0.00     0.050 C 
HETATM    2  C2  UNL     1      25.707   8.370  47.482  1.00  0.00     0.171 C 
HETATM    3  C3  UNL     1      26.510   7.990  48.693  1.00  0.00     0.056 C 
HETATM    4  C4  UNL     1      27.004   6.606  48.687  1.00  0.00    -0.011 A 
HETATM    5  C5  UNL     1      28.257   6.412  48.163  1.00  0.00    -0.036 A 
HETATM    6  C6  UNL     1      27.830   5.189  48.548  1.00  0.00     0.027 A 
HETATM    7  C7  UNL     1      26.547   5.352  49.091  1.00  0.00    -0.001 A 
HETATM    8  C8  UNL     1      26.953   4.161  49.102  1.00  0.00     0.027 A 
HETATM    9  C9  UNL     1      26.328   5.541  49.158  1.00  0.00     0.030 A 
HETATM   10  C10 UNL     1      25.668   4.247  49.662  1.00  0.00     0.036 A 
HETATM   11  C11 UNL     1      25.035   3.428  50.097  1.00  0.00    -0.141 C 
HETATM   12  C12 UNL     1      24.283   2.425  50.611  1.00  0.00     0.087 C 
HETATM   13  C13 UNL     1      24.423   2.602  51.901  1.00  0.00     0.117 C 
HETATM   14  N2  UNL     1      23.958   3.678  52.439  1.00  0.00    -0.146 NA
HETATM   15  N3  UNL     1      23.641   4.699  51.510  1.00  0.00    -0.143 NA
HETATM   16  C14 UNL     1      22.384   5.026  51.456  1.00  0.00     0.256 C 
HETATM   17  N4  UNL     1      21.924   6.031  50.571  1.00  0.00    -0.255 NA
HETATM   18  C15 UNL     1      22.005   7.282  50.854  1.00  0.00     0.120 C 
HETATM   19  C16 UNL     1      21.419   7.980  49.675  1.00  0.00     0.316 C 
HETATM   20  N5  UNL     1      22.138   7.593  48.480  1.00  0.00     0.089 N 
HETATM   21  C17 UNL     1      23.479   8.166  48.599  1.00  0.00     0.292 C 
HETATM   22  C18 UNL     1      24.335   7.821  47.412  1.00  0.00     0.148 C 
HETATM   23 CL1  UNL     1      23.554   8.493  45.952  1.00  0.00    -0.120 Cl
HETATM   24  H17 UNL     1      22.188   6.531  48.507  1.00  0.00     0.316 HD
ENDROOT
BRANCH   2  25
HETATM   25  N1  UNL     1      25.577   9.836  47.529  1.00  0.00     0.089 N 
HETATM   26  H4  UNL     1      25.625  10.118  46.517  1.00  0.00     0.313 HD
HETATM   27  H5  UNL     1      26.321  10.270  48.108  1.00  0.00     0.313 HD
ENDBRANCH   2  25
TORSDOF 2
ENDMDL
MODEL 8
REMARK VINA RESULT:      -8.0      2.924      4.345
REMARK  2 active torsions:
REMARK  status: ('A' for Active; 'I' for Inactive)
REMARK    1  A    between atoms: C2_2  and  N1_3 
REMARK    2  A    between atoms: C8_9  and  C9_10 
ROOT
HETATM    1  C1  UNL     1      15.457   1.670  51.293  1.00  0.00     0.050 C 
HETATM    2  C2  UNL     1      16.835   1.880  50.667  1.00  0.00     0.171 C 
HETATM    3  C3  UNL     1      17.434   0.535  50.373  1.00  0.00     0.056 C 
HETATM    4  C4  UNL     1      17.527  -0.359  51.535  1.00  0.00    -0.011 A 
HETATM    5  C5  UNL     1      16.466  -1.205  51.735  1.00  0.00    -0.036 A 
HETATM    6  C6  UNL     1      17.337  -1.473  52.732  1.00  0.00     0.027 A 
HETATM    7  C7  UNL     1      18.439  -0.622  52.557  1.00  0.00    -0.001 A 
HETATM    8  C8  UNL     1      18.542  -1.383  53.554  1.00  0.00     0.027 A 
HETATM    9  C9  UNL     1      18.563  -0.407  52.394  1.00  0.00     0.030 A 
HETATM   10  C10 UNL     1      19.678  -0.566  53.441  1.00  0.00     0.036 A 
HETATM   11  C11 UNL     1      20.595  -0.544  54.088  1.00  0.00    -0.141 C 
HETATM   12  C12 UNL     1      21.691  -0.528  54.885  1.00  0.00     0.087 C 
HETATM   13  C13 UNL     1      22.573  -1.172  54.162  1.00  0.00     0.117 C 
HETATM   14  N2  UNL     1      22.963  -0.656  53.046  1.00  0.00    -0.146 NA
HETATM   15  N3  UNL     1      22.139   0.394  52.574  1.00  0.00    -0.143 NA
HETATM   16  C14 UNL     1      22.714   1.557  52.499  1.00  0.00     0.256 C 
HETATM   17  N4  UNL     1      22.008   2.698  52.045  1.00  0.00    -0.255 NA
HETATM   18  C15 UNL     1      21.845   2.950  50.795  1.00  0.00     0.120 C 
HETATM   19  C16 UNL     1      21.064   4.217  50.759  1.00  0.00     0.316 C 
HETATM   20  N5  UNL     1      19.830   4.044  51.496  1.00  0.00     0.089 N 
HETATM   21  C17 UNL     1      19.015   3.104  50.725  1.00  0.00     0.292 C 
HETATM   22  C18 UNL     1      17.700   2.832  51.401  1.00  0.00     0.148 C 
HETATM   23 CL1  UNL     1      16.815   4.378  51.536  1.00  0.00    -0.120 Cl
HETATM   24  H17 UNL     1      20.111   3.611  52.425  1.00  0.00     0.316 HD
ENDROOT
BRANCH   2  25
HETATM   25  N1  UNL     1      16.548   2.490  49.358  1.00  0.00     0.089 N 
HETATM   26  H4  UNL     1      16.421   3.509  49.585  1.00  0.00     0.313 HD
HETATM   27  H5  UNL     1      15.712   2.065  48.912  1.00  0.00     0.313 HD
ENDBRANCH   2  25
TORSDOF 2
ENDMDL
MODEL 9
REMARK VINA RESULT:      -8.0      2.592      5.686
REMARK  2 active torsions:
REMARK  status: ('A' for Active; 'I' for Inactive)
REMARK    1  A    between atoms: C2_2  and  N1_3 
REMARK    2  A    between atoms: C8_9  and  C9_10 
ROOT
HETATM    1  C1  UNL     1      23.869   7.082  46.812  1.00  0.00     0.050 C 
HETATM    2  C2  UNL     1      23.343   6.873  48.231  1.00  0.00     0.171 C 
HETATM    3  C3  UNL     1      24.462   7.131  49.197  1.00  0.00     0.056 C 
HETATM    4  C4  UNL     1      25.665   6.319  48.969  1.00  0.00    -0.011 A 
HETATM    5  C5  UNL     1      26.627   6.875  48.165  1.00  0.00    -0.036 A 
HETATM    6  C6  UNL     1      27.113   5.669  48.535  1.00  0.00     0.027 A 
HETATM    7  C7  UNL     1      26.150   5.072  49.361  1.00  0.00    -0.001 A 
HETATM    8  C8  UNL     1      27.174   4.362  49.184  1.00  0.00     0.027 A 
HETATM    9  C9  UNL     1      25.883   5.097  49.491  1.00  0.00     0.030 A 
HETATM   10  C10 UNL     1      26.259   3.704  50.022  1.00  0.00     0.036 A 
HETATM   11  C11 UNL     1      26.356   2.702  50.519  1.00  0.00    -0.141 C 
HETATM   12  C12 UNL     1      26.490   1.487  51.105  1.00  0.00     0.087 C 
HETATM   13  C13 UNL     1      26.785   1.802  52.341  1.00  0.00     0.117 C 
HETATM   14  N2  UNL     1      25.908   2.423  53.054  1.00  0.00    -0.146 NA
HETATM   15  N3  UNL     1      24.846   2.985  52.306  1.00  0.00    -0.143 NA
HETATM   16  C14 UNL     1      23.669   2.494  52.560  1.00  0.00     0.256 C 
HETATM   17  N4  UNL     1      22.516   2.961  51.884  1.00  0.00    -0.255 NA
HETATM   18  C15 UNL     1      21.898   4.030  52.243  1.00  0.00     0.120 C 
HETATM   19  C16 UNL     1      20.764   4.156  51.285  1.00  0.00     0.316 C 
HETATM   20  N5  UNL     1      21.278   4.192  49.932  1.00  0.00     0.089 N 
HETATM   21  C17 UNL     1      21.999   5.458  49.796  1.00  0.00     0.292 C 
HETATM   22  C18 UNL     1      22.594   5.610  48.424  1.00  0.00     0.148 C 
HETATM   23 CL1  UNL     1      21.261   5.580  47.235  1.00  0.00    -0.120 Cl
HETATM   24  H17 UNL     1      21.955   3.375  49.862  1.00  0.00     0.316 HD
ENDROOT
BRANCH   2  25
HETATM   25  N1  UNL     1      22.380   7.970  48.425  1.00  0.00     0.089 N 
HETATM   26  H4  UNL     1      21.666   7.558  49.078  1.00  0.00     0.313 HD
HETATM   27  H5  UNL     1      21.971   8.286  47.524  1.00  0.00     0.313 HD
ENDBRANCH   2  25
TORSDOF 2
ENDMDL
