MODEL 1
REMARK VINA RESULT:      -8.4      0.000      0.000
REMARK  6 active torsions:
REMARK  status: ('A' for Active; 'I' for Inactive)
REMARK    1  A    between atoms: N1_2  and  C3_4 
REMARK    2  A    between atoms: C3_4  and  C4_5 
REMARK    3  A    between atoms: C5_6  and  C6_7 
REMARK       I    between atoms: C6_7  and  N2_9 
REMARK    4  A    between atoms: N2_9  and  C7_10 
REMARK    5  A    between atoms: C12_17  and  N5_18 
REMARK    6  A    between atoms: N5_18  and  C13_19 
ROOT
HETATM    1  C7  UNL     1      24.458  -0.337  53.382  1.00  0.00     0.036 A 
HETATM    2  C8  UNL     1      24.972  -0.630  54.617  1.00  0.00     0.032 A 
HETATM    3  C9  UNL     1      26.172  -0.063  54.991  1.00  0.00     0.035 A 
HETATM    4  C10 UNL     1      26.817   0.774  54.120  1.00  0.00     0.072 A 
HETATM    5  N3  UNL     1      27.991   1.297  54.555  1.00  0.00    -0.241 NA
HETATM    6  C11 UNL     1      28.692   2.132  53.766  1.00  0.00     0.236 A 
HETATM    7  N4  UNL     1      28.206   2.428  52.560  1.00  0.00    -0.224 NA
HETATM    8  C12 UNL     1      27.080   1.966  52.063  1.00  0.00     0.142 A 
HETATM    9  C19 UNL     1      26.358   1.112  52.867  1.00  0.00     0.041 A 
HETATM   10  C20 UNL     1      25.157   0.513  52.558  1.00  0.00     0.047 A 
ENDROOT
BRANCH   1  11
HETATM   11  N2  UNL     1      23.203  -0.895  52.938  1.00  0.00    -0.324 N 
HETATM   12  C6  UNL     1      22.206   0.118  53.057  1.00  0.00     0.245 C 
HETATM   13  O1  UNL     1      22.866   1.121  53.520  1.00  0.00    -0.268 OA
HETATM   14  H11 UNL     1      22.987  -1.856  52.582  1.00  0.00     0.169 HD
BRANCH  12  15
HETATM   15  C5  UNL     1      20.818  -0.094  52.696  1.00  0.00     0.072 C 
HETATM   16  C4  UNL     1      19.818   0.441  52.017  1.00  0.00     0.008 C 
BRANCH  16  17
HETATM   17  C3  UNL     1      19.512   1.615  51.191  1.00  0.00     0.299 C 
BRANCH  17  18
HETATM   18  N1  UNL     1      19.395   2.793  52.028  1.00  0.00     0.083 N 
HETATM   19  C1  UNL     1      18.351   3.634  51.445  1.00  0.00     0.309 C 
HETATM   20  C2  UNL     1      20.616   3.561  52.001  1.00  0.00     0.309 C 
ENDBRANCH  17  18
ENDBRANCH  16  17
ENDBRANCH  12  15
ENDBRANCH   1  11
BRANCH   8  21
HETATM   21  N5  UNL     1      26.552   2.271  50.796  1.00  0.00    -0.340 N 
HETATM   22  H15 UNL     1      26.282   1.560  50.119  1.00  0.00     0.167 HD
BRANCH  21  23
HETATM   23  C13 UNL     1      26.287   3.531  50.197  1.00  0.00     0.035 A 
HETATM   24  C14 UNL     1      27.037   4.168  49.239  1.00  0.00     0.029 A 
HETATM   25  C15 UNL     1      26.759   5.383  48.671  1.00  0.00     0.004 A 
HETATM   26  C16 UNL     1      25.636   6.051  49.073  1.00  0.00     0.019 A 
HETATM   27  C17 UNL     1      24.841   5.469  50.029  1.00  0.00     0.013 A 
HETATM   28 BR1  UNL     1      23.294   6.486  50.518  1.00  0.00    -0.051 Br
HETATM   29  C18 UNL     1      25.160   4.241  50.575  1.00  0.00     0.048 A 
ENDBRANCH  21  23
ENDBRANCH   8  21
TORSDOF 6
ENDMDL
MODEL 2
REMARK VINA RESULT:      -8.2      1.391      1.762
REMARK  6 active torsions:
REMARK  status: ('A' for Active; 'I' for Inactive)
REMARK    1  A    between atoms: N1_2  and  C3_4 
REMARK    2  A    between atoms: C3_4  and  C4_5 
REMARK    3  A    between atoms: C5_6  and  C6_7 
REMARK       I    between atoms: C6_7  and  N2_9 
REMARK    4  A    between atoms: N2_9  and  C7_10 
REMARK    5  A    between atoms: C12_17  and  N5_18 
REMARK    6  A    between atoms: N5_18  and  C13_19 
ROOT
HETATM    1  C7  UNL     1      24.363  -0.357  53.456  1.00  0.00     0.036 A 
HETATM    2  C8  UNL     1      24.831  -0.567  54.726  1.00  0.00     0.032 A 
HETATM    3  C9  UNL     1      26.033  -0.001  55.096  1.00  0.00     0.035 A 
HETATM    4  C10 UNL     1      26.725   0.755  54.186  1.00  0.00     0.072 A 
HETATM    5  N3  UNL     1      27.897   1.282  54.619  1.00  0.00    -0.241 NA
HETATM    6  C11 UNL     1      28.642   2.040  53.793  1.00  0.00     0.236 A 
HETATM    7  N4  UNL     1      28.201   2.255  52.553  1.00  0.00    -0.224 NA
HETATM    8  C12 UNL     1      27.080   1.782  52.056  1.00  0.00     0.142 A 
HETATM    9  C19 UNL     1      26.313   1.007  52.897  1.00  0.00     0.041 A 
HETATM   10  C20 UNL     1      25.107   0.413  52.594  1.00  0.00     0.047 A 
ENDROOT
BRANCH   1  11
HETATM   11  N2  UNL     1      23.109  -0.919  53.015  1.00  0.00    -0.324 N 
HETATM   12  C6  UNL     1      22.145   0.131  52.982  1.00  0.00     0.245 C 
HETATM   13  O1  UNL     1      22.820   1.157  53.369  1.00  0.00    -0.268 OA
HETATM   14  H11 UNL     1      22.874  -1.905  52.750  1.00  0.00     0.169 HD
BRANCH  12  15
HETATM   15  C5  UNL     1      20.767  -0.074  52.581  1.00  0.00     0.072 C 
HETATM   16  C4  UNL     1      19.900   0.209  51.624  1.00  0.00     0.008 C 
BRANCH  16  17
HETATM   17  C3  UNL     1      19.821   0.928  50.347  1.00  0.00     0.299 C 
BRANCH  17  18
HETATM   18  N1  UNL     1      21.107   1.515  50.028  1.00  0.00     0.083 N 
HETATM   19  C1  UNL     1      20.991   2.956  50.250  1.00  0.00     0.309 C 
HETATM   20  C2  UNL     1      21.420   1.330  48.632  1.00  0.00     0.309 C 
ENDBRANCH  17  18
ENDBRANCH  16  17
ENDBRANCH  12  15
ENDBRANCH   1  11
BRANCH   8  21
HETATM   21  N5  UNL     1      26.599   2.003  50.753  1.00  0.00    -0.340 N 
HETATM   22  H15 UNL     1      26.560   1.274  50.043  1.00  0.00     0.167 HD
BRANCH  21  23
HETATM   23  C13 UNL     1      26.093   3.188  50.155  1.00  0.00     0.035 A 
HETATM   24  C14 UNL     1      24.781   3.590  50.093  1.00  0.00     0.029 A 
HETATM   25  C15 UNL     1      24.316   4.742  49.514  1.00  0.00     0.004 A 
HETATM   26  C16 UNL     1      25.218   5.593  48.936  1.00  0.00     0.019 A 
HETATM   27  C17 UNL     1      26.546   5.250  48.964  1.00  0.00     0.013 A 
HETATM   28 BR1  UNL     1      27.722   6.509  48.130  1.00  0.00    -0.051 Br
HETATM   29  C18 UNL     1      26.970   4.077  49.559  1.00  0.00     0.048 A 
ENDBRANCH  21  23
ENDBRANCH   8  21
TORSDOF 6
ENDMDL
MODEL 3
REMARK VINA RESULT:      -8.2      1.509      2.154
REMARK  6 active torsions:
REMARK  status: ('A' for Active; 'I' for Inactive)
REMARK    1  A    between atoms: N1_2  and  C3_4 
REMARK    2  A    between atoms: C3_4  and  C4_5 
REMARK    3  A    between atoms: C5_6  and  C6_7 
REMARK       I    between atoms: C6_7  and  N2_9 
REMARK    4  A    between atoms: N2_9  and  C7_10 
REMARK    5  A    between atoms: C12_17  and  N5_18 
REMARK    6  A    between atoms: N5_18  and  C13_19 
ROOT
HETATM    1  C7  UNL     1      24.365  -0.168  53.314  1.00  0.00     0.036 A 
HETATM    2  C8  UNL     1      24.876  -0.494  54.542  1.00  0.00     0.032 A 
HETATM    3  C9  UNL     1      26.102   0.017  54.911  1.00  0.00     0.035 A 
HETATM    4  C10 UNL     1      26.776   0.835  54.042  1.00  0.00     0.072 A 
HETATM    5  N3  UNL     1      27.974   1.303  54.471  1.00  0.00    -0.241 NA
HETATM    6  C11 UNL     1      28.704   2.115  53.684  1.00  0.00     0.236 A 
HETATM    7  N4  UNL     1      28.220   2.443  52.485  1.00  0.00    -0.224 NA
HETATM    8  C12 UNL     1      27.072   2.034  51.994  1.00  0.00     0.142 A 
HETATM    9  C19 UNL     1      26.321   1.204  52.796  1.00  0.00     0.041 A 
HETATM   10  C20 UNL     1      25.093   0.659  52.491  1.00  0.00     0.047 A 
ENDROOT
BRANCH   1  11
HETATM   11  N2  UNL     1      23.084  -0.668  52.876  1.00  0.00    -0.324 N 
HETATM   12  C6  UNL     1      22.153   0.411  52.920  1.00  0.00     0.245 C 
HETATM   13  O1  UNL     1      22.869   1.394  53.341  1.00  0.00    -0.268 OA
HETATM   14  H11 UNL     1      22.812  -1.631  52.568  1.00  0.00     0.169 HD
BRANCH  12  15
HETATM   15  C5  UNL     1      20.760   0.269  52.544  1.00  0.00     0.072 C 
HETATM   16  C4  UNL     1      19.667  -0.422  52.814  1.00  0.00     0.008 C 
BRANCH  16  17
HETATM   17  C3  UNL     1      19.199  -1.501  53.692  1.00  0.00     0.299 C 
BRANCH  17  18
HETATM   18  N1  UNL     1      17.757  -1.622  53.603  1.00  0.00     0.083 N 
HETATM   19  C1  UNL     1      17.448  -3.049  53.528  1.00  0.00     0.309 C 
HETATM   20  C2  UNL     1      17.269  -1.022  52.386  1.00  0.00     0.309 C 
ENDBRANCH  17  18
ENDBRANCH  16  17
ENDBRANCH  12  15
ENDBRANCH   1  11
BRANCH   8  21
HETATM   21  N5  UNL     1      26.547   2.373  50.734  1.00  0.00    -0.340 N 
HETATM   22  H15 UNL     1      26.229   1.681  50.058  1.00  0.00     0.167 HD
BRANCH  21  23
HETATM   23  C13 UNL     1      26.347   3.648  50.141  1.00  0.00     0.035 A 
HETATM   24  C14 UNL     1      27.133   4.252  49.191  1.00  0.00     0.029 A 
HETATM   25  C15 UNL     1      26.918   5.484  48.629  1.00  0.00     0.004 A 
HETATM   26  C16 UNL     1      25.828   6.204  49.030  1.00  0.00     0.019 A 
HETATM   27  C17 UNL     1      25.000   5.656  49.978  1.00  0.00     0.013 A 
HETATM   28 BR1  UNL     1      23.503   6.745  50.467  1.00  0.00    -0.051 Br
HETATM   29  C18 UNL     1      25.255   4.411  50.518  1.00  0.00     0.048 A 
ENDBRANCH  21  23
ENDBRANCH   8  21
TORSDOF 6
ENDMDL
MODEL 4
REMARK VINA RESULT:      -8.0      3.383      7.426
REMARK  6 active torsions:
REMARK  status: ('A' for Active; 'I' for Inactive)
REMARK    1  A    between atoms: N1_2  and  C3_4 
REMARK    2  A    between atoms: C3_4  and  C4_5 
REMARK    3  A    between atoms: C5_6  and  C6_7 
REMARK       I    between atoms: C6_7  and  N2_9 
REMARK    4  A    between atoms: N2_9  and  C7_10 
REMARK    5  A    between atoms: C12_17  and  N5_18 
REMARK    6  A    between atoms: N5_18  and  C13_19 
ROOT
HETATM    1  C7  UNL     1      25.200   4.065  50.018  1.00  0.00     0.036 A 
HETATM    2  C8  UNL     1      24.106   3.788  49.243  1.00  0.00     0.032 A 
HETATM    3  C9  UNL     1      23.231   2.803  49.652  1.00  0.00     0.035 A 
HETATM    4  C10 UNL     1      23.480   2.130  50.820  1.00  0.00     0.072 A 
HETATM    5  N3  UNL     1      22.578   1.176  51.162  1.00  0.00    -0.241 NA
HETATM    6  C11 UNL     1      22.741   0.467  52.293  1.00  0.00     0.236 A 
HETATM    7  N4  UNL     1      23.802   0.725  53.060  1.00  0.00    -0.224 NA
HETATM    8  C12 UNL     1      24.721   1.628  52.802  1.00  0.00     0.142 A 
HETATM    9  C19 UNL     1      24.558   2.358  51.645  1.00  0.00     0.041 A 
HETATM   10  C20 UNL     1      25.389   3.352  51.178  1.00  0.00     0.047 A 
ENDROOT
BRANCH   1  11
HETATM   11  N2  UNL     1      26.146   5.089  49.643  1.00  0.00    -0.324 N 
HETATM   12  C6  UNL     1      27.250   4.452  49.002  1.00  0.00     0.245 C 
HETATM   13  O1  UNL     1      26.924   3.207  49.032  1.00  0.00    -0.268 OA
HETATM   14  H11 UNL     1      26.100   6.125  49.783  1.00  0.00     0.169 HD
BRANCH  12  15
HETATM   15  C5  UNL     1      28.394   5.181  48.490  1.00  0.00     0.072 C 
HETATM   16  C4  UNL     1      28.757   6.355  48.003  1.00  0.00     0.008 C 
BRANCH  16  17
HETATM   17  C3  UNL     1      28.190   7.669  47.680  1.00  0.00     0.299 C 
BRANCH  17  18
HETATM   18  N1  UNL     1      27.555   8.236  48.854  1.00  0.00     0.083 N 
HETATM   19  C1  UNL     1      26.330   8.896  48.403  1.00  0.00     0.309 C 
HETATM   20  C2  UNL     1      28.388   9.257  49.442  1.00  0.00     0.309 C 
ENDBRANCH  17  18
ENDBRANCH  16  17
ENDBRANCH  12  15
ENDBRANCH   1  11
BRANCH   8  21
HETATM   21  N5  UNL     1      25.842   1.915  53.601  1.00  0.00    -0.340 N 
HETATM   22  H15 UNL     1      25.854   2.655  54.300  1.00  0.00     0.167 HD
BRANCH  21  23
HETATM   23  C13 UNL     1      27.122   1.301  53.630  1.00  0.00     0.035 A 
HETATM   24  C14 UNL     1      28.327   1.908  53.888  1.00  0.00     0.029 A 
HETATM   25  C15 UNL     1      29.552   1.293  53.916  1.00  0.00     0.004 A 
HETATM   26  C16 UNL     1      29.615  -0.050  53.669  1.00  0.00     0.019 A 
HETATM   27  C17 UNL     1      28.445  -0.718  53.403  1.00  0.00     0.013 A 
HETATM   28 BR1  UNL     1      28.645  -2.592  53.072  1.00  0.00    -0.051 Br
HETATM   29  C18 UNL     1      27.232  -0.057  53.385  1.00  0.00     0.048 A 
ENDBRANCH  21  23
ENDBRANCH   8  21
TORSDOF 6
ENDMDL
MODEL 5
REMARK VINA RESULT:      -7.7      3.086      5.447
REMARK  6 active torsions:
REMARK  status: ('A' for Active; 'I' for Inactive)
REMARK    1  A    between atoms: N1_2  and  C3_4 
REMARK    2  A    between atoms: C3_4  and  C4_5 
REMARK    3  A    between atoms: C5_6  and  C6_7 
REMARK       I    between atoms: C6_7  and  N2_9 
REMARK    4  A    between atoms: N2_9  and  C7_10 
REMARK    5  A    between atoms: C12_17  and  N5_18 
REMARK    6  A    between atoms: N5_18  and  C13_19 
ROOT
HETATM    1  C7  UNL     1      20.642   0.917  51.993  1.00  0.00     0.036 A 
HETATM    2  C8  UNL     1      19.725   0.266  52.775  1.00  0.00     0.032 A 
HETATM    3  C9  UNL     1      20.173  -0.511  53.822  1.00  0.00     0.035 A 
HETATM    4  C10 UNL     1      21.520  -0.612  54.052  1.00  0.00     0.072 A 
HETATM    5  N3  UNL     1      21.889  -1.392  55.099  1.00  0.00    -0.241 NA
HETATM    6  C11 UNL     1      23.191  -1.546  55.400  1.00  0.00     0.236 A 
HETATM    7  N4  UNL     1      24.098  -0.918  54.649  1.00  0.00    -0.224 NA
HETATM    8  C12 UNL     1      23.826  -0.148  53.620  1.00  0.00     0.142 A 
HETATM    9  C19 UNL     1      22.495   0.015  53.308  1.00  0.00     0.041 A 
HETATM   10  C20 UNL     1      21.978   0.774  52.280  1.00  0.00     0.047 A 
ENDROOT
BRANCH   1  11
HETATM   11  N2  UNL     1      20.232   1.749  50.888  1.00  0.00    -0.324 N 
HETATM   12  C6  UNL     1      19.882   3.030  51.409  1.00  0.00     0.245 C 
HETATM   13  O1  UNL     1      20.087   2.894  52.672  1.00  0.00    -0.268 OA
HETATM   14  H11 UNL     1      20.174   1.524  49.867  1.00  0.00     0.169 HD
BRANCH  12  15
HETATM   15  C5  UNL     1      19.422   4.123  50.576  1.00  0.00     0.072 C 
HETATM   16  C4  UNL     1      19.823   5.244  50.002  1.00  0.00     0.008 C 
BRANCH  16  17
HETATM   17  C3  UNL     1      21.023   6.078  49.864  1.00  0.00     0.299 C 
BRANCH  17  18
HETATM   18  N1  UNL     1      22.166   5.400  50.444  1.00  0.00     0.083 N 
HETATM   19  C1  UNL     1      23.069   6.434  50.950  1.00  0.00     0.309 C 
HETATM   20  C2  UNL     1      22.891   4.668  49.434  1.00  0.00     0.309 C 
ENDBRANCH  17  18
ENDBRANCH  16  17
ENDBRANCH  12  15
ENDBRANCH   1  11
BRANCH   8  21
HETATM   21  N5  UNL     1      24.769   0.524  52.821  1.00  0.00    -0.340 N 
HETATM   22  H15 UNL     1      24.548   0.911  51.905  1.00  0.00     0.167 HD
BRANCH  21  23
HETATM   23  C13 UNL     1      26.139   0.804  53.067  1.00  0.00     0.035 A 
HETATM   24  C14 UNL     1      26.709   2.036  53.273  1.00  0.00     0.029 A 
HETATM   25  C15 UNL     1      28.036   2.283  53.515  1.00  0.00     0.004 A 
HETATM   26  C16 UNL     1      28.899   1.223  53.561  1.00  0.00     0.019 A 
HETATM   27  C17 UNL     1      28.393  -0.037  53.364  1.00  0.00     0.013 A 
HETATM   28 BR1  UNL     1      29.685  -1.447  53.452  1.00  0.00    -0.051 Br
HETATM   29  C18 UNL     1      27.048  -0.239  53.123  1.00  0.00     0.048 A 
ENDBRANCH  21  23
ENDBRANCH   8  21
TORSDOF 6
ENDMDL
MODEL 6
REMARK VINA RESULT:      -7.7      2.885      6.426
REMARK  6 active torsions:
REMARK  status: ('A' for Active; 'I' for Inactive)
REMARK    1  A    between atoms: N1_2  and  C3_4 
REMARK    2  A    between atoms: C3_4  and  C4_5 
REMARK    3  A    between atoms: C5_6  and  C6_7 
REMARK       I    between atoms: C6_7  and  N2_9 
REMARK    4  A    between atoms: N2_9  and  C7_10 
REMARK    5  A    between atoms: C12_17  and  N5_18 
REMARK    6  A    between atoms: N5_18  and  C13_19 
ROOT
HETATM    1  C7  UNL     1      23.197   3.387  52.366  1.00  0.00     0.036 A 
HETATM    2  C8  UNL     1      21.867   3.113  52.190  1.00  0.00     0.032 A 
HETATM    3  C9  UNL     1      21.061   4.068  51.607  1.00  0.00     0.035 A 
HETATM    4  C10 UNL     1      21.610   5.262  51.221  1.00  0.00     0.072 A 
HETATM    5  N3  UNL     1      20.759   6.154  50.654  1.00  0.00    -0.241 NA
HETATM    6  C11 UNL     1      21.212   7.352  50.243  1.00  0.00     0.236 A 
HETATM    7  N4  UNL     1      22.505   7.635  50.407  1.00  0.00    -0.224 NA
HETATM    8  C12 UNL     1      23.394   6.831  50.946  1.00  0.00     0.142 A 
HETATM    9  C19 UNL     1      22.936   5.603  51.368  1.00  0.00     0.041 A 
HETATM   10  C20 UNL     1      23.683   4.605  51.956  1.00  0.00     0.047 A 
ENDROOT
BRANCH   1  11
HETATM   11  N2  UNL     1      24.090   2.424  52.965  1.00  0.00    -0.324 N 
HETATM   12  C6  UNL     1      24.717   1.694  51.913  1.00  0.00     0.245 C 
HETATM   13  O1  UNL     1      24.207   2.217  50.853  1.00  0.00    -0.268 OA
HETATM   14  H11 UNL     1      24.292   2.237  53.975  1.00  0.00     0.169 HD
BRANCH  12  15
HETATM   15  C5  UNL     1      25.682   0.638  52.149  1.00  0.00     0.072 C 
HETATM   16  C4  UNL     1      26.526   0.173  53.053  1.00  0.00     0.008 C 
BRANCH  16  17
HETATM   17  C3  UNL     1      27.003   0.464  54.410  1.00  0.00     0.299 C 
BRANCH  17  18
HETATM   18  N1  UNL     1      28.394   0.076  54.540  1.00  0.00     0.083 N 
HETATM   19  C1  UNL     1      29.199   1.274  54.303  1.00  0.00     0.309 C 
HETATM   20  C2  UNL     1      28.755  -0.879  53.521  1.00  0.00     0.309 C 
ENDBRANCH  17  18
ENDBRANCH  16  17
ENDBRANCH  12  15
ENDBRANCH   1  11
BRANCH   8  21
HETATM   21  N5  UNL     1      24.760   7.113  51.123  1.00  0.00    -0.340 N 
HETATM   22  H15 UNL     1      25.163   7.377  52.020  1.00  0.00     0.167 HD
BRANCH  21  23
HETATM   23  C13 UNL     1      25.824   7.102  50.182  1.00  0.00     0.035 A 
HETATM   24  C14 UNL     1      26.186   6.068  49.353  1.00  0.00     0.029 A 
HETATM   25  C15 UNL     1      27.215   6.082  48.447  1.00  0.00     0.004 A 
HETATM   26  C16 UNL     1      27.969   7.216  48.333  1.00  0.00     0.019 A 
HETATM   27  C17 UNL     1      27.659   8.288  49.133  1.00  0.00     0.013 A 
HETATM   28 BR1  UNL     1      28.776   9.823  48.892  1.00  0.00    -0.051 Br
HETATM   29  C18 UNL     1      26.613   8.229  50.033  1.00  0.00     0.048 A 
ENDBRANCH  21  23
ENDBRANCH   8  21
TORSDOF 6
ENDMDL
MODEL 7
REMARK VINA RESULT:      -7.6      2.769      6.259
REMARK  6 active torsions:
REMARK  status: ('A' for Active; 'I' for Inactive)
REMARK    1  A    between atoms: N1_2  and  C3_4 
REMARK    2  A    between atoms: C3_4  and  C4_5 
REMARK    3  A    between atoms: C5_6  and  C6_7 
REMARK       I    between atoms: C6_7  and  N2_9 
REMARK    4  A    between atoms: N2_9  and  C7_10 
REMARK    5  A    between atoms: C12_17  and  N5_18 
REMARK    6  A    between atoms: N5_18  and  C13_19 
ROOT
HETATM    1  C7  UNL     1      22.764   1.684  51.692  1.00  0.00     0.036 A 
HETATM    2  C8  UNL     1      21.888   0.763  51.182  1.00  0.00     0.032 A 
HETATM    3  C9  UNL     1      21.380   0.956  49.916  1.00  0.00     0.035 A 
HETATM    4  C10 UNL     1      21.763   2.061  49.202  1.00  0.00     0.072 A 
HETATM    5  N3  UNL     1      21.225   2.187  47.963  1.00  0.00    -0.241 NA
HETATM    6  C11 UNL     1      21.547   3.240  47.190  1.00  0.00     0.236 A 
HETATM    7  N4  UNL     1      22.400   4.146  47.671  1.00  0.00    -0.224 NA
HETATM    8  C12 UNL     1      22.963   4.100  48.857  1.00  0.00     0.142 A 
HETATM    9  C19 UNL     1      22.638   3.024  49.651  1.00  0.00     0.041 A 
HETATM   10  C20 UNL     1      23.107   2.770  50.922  1.00  0.00     0.047 A 
ENDROOT
BRANCH   1  11
HETATM   11  N2  UNL     1      23.333   1.532  53.010  1.00  0.00    -0.324 N 
HETATM   12  C6  UNL     1      24.647   0.996  52.861  1.00  0.00     0.245 C 
HETATM   13  O1  UNL     1      24.767   0.875  51.585  1.00  0.00    -0.268 OA
HETATM   14  H11 UNL     1      22.920   1.751  53.946  1.00  0.00     0.169 HD
BRANCH  12  15
HETATM   15  C5  UNL     1      25.517   0.713  53.985  1.00  0.00     0.072 C 
HETATM   16  C4  UNL     1      26.662   0.136  54.305  1.00  0.00     0.008 C 
BRANCH  16  17
HETATM   17  C3  UNL     1      27.775  -0.590  53.683  1.00  0.00     0.299 C 
BRANCH  17  18
HETATM   18  N1  UNL     1      29.021  -0.244  54.340  1.00  0.00     0.083 N 
HETATM   19  C1  UNL     1      29.145   1.212  54.289  1.00  0.00     0.309 C 
HETATM   20  C2  UNL     1      30.146  -0.786  53.618  1.00  0.00     0.309 C 
ENDBRANCH  17  18
ENDBRANCH  16  17
ENDBRANCH  12  15
ENDBRANCH   1  11
BRANCH   8  21
HETATM   21  N5  UNL     1      23.866   5.045  49.377  1.00  0.00    -0.340 N 
HETATM   22  H15 UNL     1      23.617   5.711  50.106  1.00  0.00     0.167 HD
BRANCH  21  23
HETATM   23  C13 UNL     1      25.226   5.287  49.046  1.00  0.00     0.035 A 
HETATM   24  C14 UNL     1      26.277   4.412  49.170  1.00  0.00     0.029 A 
HETATM   25  C15 UNL     1      27.583   4.666  48.839  1.00  0.00     0.004 A 
HETATM   26  C16 UNL     1      27.902   5.895  48.333  1.00  0.00     0.019 A 
HETATM   27  C17 UNL     1      26.896   6.817  48.183  1.00  0.00     0.013 A 
HETATM   28 BR1  UNL     1      27.449   8.504  47.467  1.00  0.00    -0.051 Br
HETATM   29  C18 UNL     1      25.593   6.518  48.531  1.00  0.00     0.048 A 
ENDBRANCH  21  23
ENDBRANCH   8  21
TORSDOF 6
ENDMDL
MODEL 8
REMARK VINA RESULT:      -7.6      2.302      5.643
REMARK  6 active torsions:
REMARK  status: ('A' for Active; 'I' for Inactive)
REMARK    1  A    between atoms: N1_2  and  C3_4 
REMARK    2  A    between atoms: C3_4  and  C4_5 
REMARK    3  A    between atoms: C5_6  and  C6_7 
REMARK       I    between atoms: C6_7  and  N2_9 
REMARK    4  A    between atoms: N2_9  and  C7_10 
REMARK    5  A    between atoms: C12_17  and  N5_18 
REMARK    6  A    between atoms: N5_18  and  C13_19 
ROOT
HETATM    1  C7  UNL     1      26.306   0.722  52.290  1.00  0.00     0.036 A 
HETATM    2  C8  UNL     1      27.138   0.506  53.356  1.00  0.00     0.032 A 
HETATM    3  C9  UNL     1      26.631  -0.107  54.483  1.00  0.00     0.035 A 
HETATM    4  C10 UNL     1      25.314  -0.481  54.507  1.00  0.00     0.072 A 
HETATM    5  N3  UNL     1      24.884  -1.079  55.645  1.00  0.00    -0.241 NA
HETATM    6  C11 UNL     1      23.605  -1.482  55.756  1.00  0.00     0.236 A 
HETATM    7  N4  UNL     1      22.782  -1.279  54.726  1.00  0.00    -0.224 NA
HETATM    8  C12 UNL     1      23.116  -0.708  53.591  1.00  0.00     0.142 A 
HETATM    9  C19 UNL     1      24.424  -0.295  53.472  1.00  0.00     0.041 A 
HETATM   10  C20 UNL     1      24.995   0.321  52.380  1.00  0.00     0.047 A 
ENDROOT
BRANCH   1  11
HETATM   11  N2  UNL     1      26.782   1.353  51.082  1.00  0.00    -0.324 N 
HETATM   12  C6  UNL     1      26.312   2.700  51.077  1.00  0.00     0.245 C 
HETATM   13  O1  UNL     1      25.648   2.780  52.177  1.00  0.00    -0.268 OA
HETATM   14  H11 UNL     1      27.367   0.961  50.308  1.00  0.00     0.169 HD
BRANCH  12  15
HETATM   15  C5  UNL     1      26.602   3.634  50.007  1.00  0.00     0.072 C 
HETATM   16  C4  UNL     1      26.067   4.608  49.291  1.00  0.00     0.008 C 
BRANCH  16  17
HETATM   17  C3  UNL     1      24.807   5.348  49.152  1.00  0.00     0.299 C 
BRANCH  17  18
HETATM   18  N1  UNL     1      23.713   4.424  48.927  1.00  0.00     0.083 N 
HETATM   19  C1  UNL     1      22.848   5.021  47.909  1.00  0.00     0.309 C 
HETATM   20  C2  UNL     1      22.915   4.278  50.120  1.00  0.00     0.309 C 
ENDBRANCH  17  18
ENDBRANCH  16  17
ENDBRANCH  12  15
ENDBRANCH   1  11
BRANCH   8  21
HETATM   21  N5  UNL     1      22.262  -0.490  52.495  1.00  0.00    -0.340 N 
HETATM   22  H15 UNL     1      22.258  -1.081  51.666  1.00  0.00     0.167 HD
BRANCH  21  23
HETATM   23  C13 UNL     1      21.281   0.516  52.289  1.00  0.00     0.035 A 
HETATM   24  C14 UNL     1      21.341   1.827  52.694  1.00  0.00     0.029 A 
HETATM   25  C15 UNL     1      20.383   2.784  52.479  1.00  0.00     0.004 A 
HETATM   26  C16 UNL     1      19.250   2.432  51.799  1.00  0.00     0.019 A 
HETATM   27  C17 UNL     1      19.127   1.136  51.365  1.00  0.00     0.013 A 
HETATM   28 BR1  UNL     1      17.505   0.751  50.425  1.00  0.00    -0.051 Br
HETATM   29  C18 UNL     1      20.119   0.204  51.605  1.00  0.00     0.048 A 
ENDBRANCH  21  23
ENDBRANCH   8  21
TORSDOF 6
ENDMDL
MODEL 9
REMARK VINA RESULT:      -7.5      3.499      8.454
REMARK  6 active torsions:
REMARK  status: ('A' for Active; 'I' for Inactive)
REMARK    1  A    between atoms: N1_2  and  C3_4 
REMARK    2  A    between atoms: C3_4  and  C4_5 
REMARK    3  A    between atoms: C5_6  and  C6_7 
REMARK       I    between atoms: C6_7  and  N2_9 
REMARK    4  A    between atoms: N2_9  and  C7_10 
REMARK    5  A    between atoms: C12_17  and  N5_18 
REMARK    6  A    between atoms: N5_18  and  C13_19 
ROOT
HETATM    1  C7  UNL     1      24.882   6.368  50.416  1.00  0.00     0.036 A 
HETATM    2  C8  UNL     1      23.928   7.344  50.533  1.00  0.00     0.032 A 
HETATM    3  C9  UNL     1      22.624   6.974  50.786  1.00  0.00     0.035 A 
HETATM    4  C10 UNL     1      22.318   5.645  50.914  1.00  0.00     0.072 A 
HETATM    5  N3  UNL     1      21.017   5.353  51.165  1.00  0.00    -0.241 NA
HETATM    6  C11 UNL     1      20.626   4.074  51.308  1.00  0.00     0.236 A 
HETATM    7  N4  UNL     1      21.544   3.111  51.198  1.00  0.00    -0.224 NA
HETATM    8  C12 UNL     1      22.820   3.307  50.957  1.00  0.00     0.142 A 
HETATM    9  C19 UNL     1      23.226   4.614  50.811  1.00  0.00     0.041 A 
HETATM   10  C20 UNL     1      24.507   5.054  50.557  1.00  0.00     0.047 A 
ENDROOT
BRANCH   1  11
HETATM   11  N2  UNL     1      26.264   6.696  50.157  1.00  0.00    -0.324 N 
HETATM   12  C6  UNL     1      26.437   6.778  48.744  1.00  0.00     0.245 C 
HETATM   13  O1  UNL     1      25.260   6.519  48.292  1.00  0.00    -0.268 OA
HETATM   14  H11 UNL     1      27.050   6.858  50.829  1.00  0.00     0.169 HD
BRANCH  12  15
HETATM   15  C5  UNL     1      27.708   7.092  48.121  1.00  0.00     0.072 C 
HETATM   16  C4  UNL     1      28.908   6.594  47.878  1.00  0.00     0.008 C 
BRANCH  16  17
HETATM   17  C3  UNL     1      29.694   5.376  48.106  1.00  0.00     0.299 C 
BRANCH  17  18
HETATM   18  N1  UNL     1      31.110   5.677  48.020  1.00  0.00     0.083 N 
HETATM   19  C1  UNL     1      31.774   4.482  47.502  1.00  0.00     0.309 C 
HETATM   20  C2  UNL     1      31.659   5.927  49.331  1.00  0.00     0.309 C 
ENDBRANCH  17  18
ENDBRANCH  16  17
ENDBRANCH  12  15
ENDBRANCH   1  11
BRANCH   8  21
HETATM   21  N5  UNL     1      23.800   2.304  50.842  1.00  0.00    -0.340 N 
HETATM   22  H15 UNL     1      24.327   2.135  49.987  1.00  0.00     0.167 HD
BRANCH  21  23
HETATM   23  C13 UNL     1      24.258   1.362  51.801  1.00  0.00     0.035 A 
HETATM   24  C14 UNL     1      25.559   0.993  52.045  1.00  0.00     0.029 A 
HETATM   25  C15 UNL     1      25.978   0.083  52.980  1.00  0.00     0.004 A 
HETATM   26  C16 UNL     1      25.039  -0.532  53.760  1.00  0.00     0.019 A 
HETATM   27  C17 UNL     1      23.720  -0.208  53.568  1.00  0.00     0.013 A 
HETATM   28 BR1  UNL     1      22.489  -1.125  54.712  1.00  0.00    -0.051 Br
HETATM   29  C18 UNL     1      23.342   0.715  52.612  1.00  0.00     0.048 A 
ENDBRANCH  21  23
ENDBRANCH   8  21
TORSDOF 6
ENDMDL
