MODEL 1
REMARK VINA RESULT:      -9.2      0.000      0.000
REMARK  5 active torsions:
REMARK  status: ('A' for Active; 'I' for Inactive)
REMARK    1  A    between atoms: C2_2  and  C3_3 
REMARK    2  A    between atoms: C2_2  and  C8_10 
REMARK    3  A    between atoms: C3_3  and  N1_4 
REMARK    4  A    between atoms: C14_18  and  N4_19 
REMARK    5  A    between atoms: N4_19  and  C15_20 
ROOT
HETATM    1  C8  UNL     1      24.020   0.307  53.451  1.00  0.00    -0.040 A 
HETATM    2  C9  UNL     1      22.766   0.195  53.089  1.00  0.00    -0.005 A 
HETATM    3  C10 UNL     1      22.283   1.264  52.507  1.00  0.00     0.012 A 
HETATM    4  C11 UNL     1      21.031   1.526  51.999  1.00  0.00     0.074 A 
HETATM    5  C12 UNL     1      19.954   0.578  52.030  1.00  0.00     0.102 C 
HETATM    6  N2  UNL     1      19.075  -0.169  52.060  1.00  0.00    -0.191 NA
HETATM    7  C13 UNL     1      20.868   2.775  51.448  1.00  0.00     0.142 A 
HETATM    8  N3  UNL     1      21.855   3.682  51.404  1.00  0.00    -0.241 NA
HETATM    9  C14 UNL     1      23.085   3.468  51.886  1.00  0.00     0.139 A 
HETATM   10  C21 UNL     1      23.269   2.221  52.443  1.00  0.00     0.023 A 
HETATM   11  C22 UNL     1      24.351   1.659  53.015  1.00  0.00     0.024 A 
ENDROOT
BRANCH   1  12
HETATM   12  C2  UNL     1      24.886  -0.715  54.143  1.00  0.00     0.033 C 
HETATM   13  C1  UNL     1      24.149  -1.144  55.399  1.00  0.00     0.017 C 
BRANCH  12  14
HETATM   14  C3  UNL     1      26.180  -0.070  54.614  1.00  0.00     0.126 C 
BRANCH  14  15
HETATM   15  N1  UNL     1      27.276  -0.480  53.867  1.00  0.00    -0.408 N 
HETATM   16  C4  UNL     1      27.100  -1.255  52.716  1.00  0.00     0.143 C 
HETATM   17  C5  UNL     1      27.939  -2.499  52.783  1.00  0.00     0.187 C 
HETATM   18  O1  UNL     1      29.100  -2.352  53.501  1.00  0.00    -0.388 OA
HETATM   19  C6  UNL     1      29.568  -1.068  53.633  1.00  0.00     0.187 C 
HETATM   20  C7  UNL     1      28.576  -0.129  54.293  1.00  0.00     0.143 C 
ENDBRANCH  14  15
ENDBRANCH  12  14
ENDBRANCH   1  12
BRANCH   9  21
HETATM   21  N4  UNL     1      24.167   4.382  51.871  1.00  0.00    -0.340 N 
HETATM   22  H16 UNL     1      24.333   4.948  52.733  1.00  0.00     0.167 HD
BRANCH  21  23
HETATM   23  C15 UNL     1      25.067   4.626  50.806  1.00  0.00     0.035 A 
HETATM   24  C16 UNL     1      25.974   3.664  50.415  1.00  0.00     0.029 A 
HETATM   25  C17 UNL     1      26.896   3.780  49.404  1.00  0.00     0.004 A 
HETATM   26  C18 UNL     1      26.923   4.974  48.706  1.00  0.00     0.019 A 
HETATM   27  C19 UNL     1      26.052   5.971  49.041  1.00  0.00     0.013 A 
HETATM   28 BR1  UNL     1      26.088   7.633  48.072  1.00  0.00    -0.051 Br
HETATM   29  C20 UNL     1      25.153   5.786  50.067  1.00  0.00     0.048 A 
ENDBRANCH  21  23
ENDBRANCH   9  21
TORSDOF 5
ENDMDL
MODEL 2
REMARK VINA RESULT:      -8.9      2.949      6.086
REMARK  5 active torsions:
REMARK  status: ('A' for Active; 'I' for Inactive)
REMARK    1  A    between atoms: C2_2  and  C3_3 
REMARK    2  A    between atoms: C2_2  and  C8_10 
REMARK    3  A    between atoms: C3_3  and  N1_4 
REMARK    4  A    between atoms: C14_18  and  N4_19 
REMARK    5  A    between atoms: N4_19  and  C15_20 
ROOT
HETATM    1  C8  UNL     1      22.994   1.186  52.338  1.00  0.00    -0.040 A 
HETATM    2  C9  UNL     1      23.997   0.819  53.097  1.00  0.00    -0.005 A 
HETATM    3  C10 UNL     1      25.156   1.287  52.710  1.00  0.00     0.012 A 
HETATM    4  C11 UNL     1      26.416   1.125  53.239  1.00  0.00     0.074 A 
HETATM    5  C12 UNL     1      26.684   0.340  54.410  1.00  0.00     0.102 C 
HETATM    6  N2  UNL     1      26.916  -0.299  55.343  1.00  0.00    -0.191 NA
HETATM    7  C13 UNL     1      27.425   1.772  52.566  1.00  0.00     0.142 A 
HETATM    8  N3  UNL     1      27.208   2.512  51.470  1.00  0.00    -0.241 NA
HETATM    9  C14 UNL     1      25.999   2.696  50.923  1.00  0.00     0.139 A 
HETATM   10  C21 UNL     1      24.973   2.055  51.584  1.00  0.00     0.023 A 
HETATM   11  C22 UNL     1      23.651   2.012  51.332  1.00  0.00     0.024 A 
ENDROOT
BRANCH   1  12
HETATM   12  C2  UNL     1      21.535   0.832  52.483  1.00  0.00     0.033 C 
HETATM   13  C1  UNL     1      21.474  -0.552  53.105  1.00  0.00     0.017 C 
BRANCH  12  14
HETATM   14  C3  UNL     1      20.890   0.706  51.112  1.00  0.00     0.126 C 
BRANCH  14  15
HETATM   15  N1  UNL     1      19.868   1.628  50.923  1.00  0.00    -0.408 N 
HETATM   16  C4  UNL     1      20.141   2.884  50.371  1.00  0.00     0.143 C 
HETATM   17  C5  UNL     1      19.611   3.976  51.256  1.00  0.00     0.187 C 
HETATM   18  O1  UNL     1      18.497   3.622  51.974  1.00  0.00    -0.388 OA
HETATM   19  C6  UNL     1      17.759   2.580  51.468  1.00  0.00     0.187 C 
HETATM   20  C7  UNL     1      18.554   1.297  51.316  1.00  0.00     0.143 C 
ENDBRANCH  14  15
ENDBRANCH  12  14
ENDBRANCH   1  12
BRANCH   9  21
HETATM   21  N4  UNL     1      25.704   3.462  49.769  1.00  0.00    -0.340 N 
HETATM   22  H16 UNL     1      24.983   3.089  49.113  1.00  0.00     0.167 HD
BRANCH  21  23
HETATM   23  C15 UNL     1      26.282   4.698  49.392  1.00  0.00     0.035 A 
HETATM   24  C16 UNL     1      27.479   4.738  48.709  1.00  0.00     0.029 A 
HETATM   25  C17 UNL     1      28.139   5.867  48.292  1.00  0.00     0.004 A 
HETATM   26  C18 UNL     1      27.553   7.087  48.582  1.00  0.00     0.019 A 
HETATM   27  C19 UNL     1      26.367   7.121  49.258  1.00  0.00     0.013 A 
HETATM   28 BR1  UNL     1      25.549   8.815  49.663  1.00  0.00    -0.051 Br
HETATM   29  C20 UNL     1      25.759   5.948  49.646  1.00  0.00     0.048 A 
ENDBRANCH  21  23
ENDBRANCH   9  21
TORSDOF 5
ENDMDL
MODEL 3
REMARK VINA RESULT:      -8.9      3.867      6.910
REMARK  5 active torsions:
REMARK  status: ('A' for Active; 'I' for Inactive)
REMARK    1  A    between atoms: C2_2  and  C3_3 
REMARK    2  A    between atoms: C2_2  and  C8_10 
REMARK    3  A    between atoms: C3_3  and  N1_4 
REMARK    4  A    between atoms: C14_18  and  N4_19 
REMARK    5  A    between atoms: N4_19  and  C15_20 
ROOT
HETATM    1  C8  UNL     1      23.302  -0.533  53.570  1.00  0.00    -0.040 A 
HETATM    2  C9  UNL     1      23.226   0.257  52.527  1.00  0.00    -0.005 A 
HETATM    3  C10 UNL     1      22.002   0.494  52.128  1.00  0.00     0.012 A 
HETATM    4  C11 UNL     1      21.526   1.259  51.088  1.00  0.00     0.074 A 
HETATM    5  C12 UNL     1      22.377   1.986  50.190  1.00  0.00     0.102 C 
HETATM    6  N2  UNL     1      23.051   2.566  49.453  1.00  0.00    -0.191 NA
HETATM    7  C13 UNL     1      20.158   1.287  50.955  1.00  0.00     0.142 A 
HETATM    8  N3  UNL     1      19.336   0.619  51.777  1.00  0.00    -0.241 NA
HETATM    9  C14 UNL     1      19.757  -0.136  52.800  1.00  0.00     0.139 A 
HETATM   10  C21 UNL     1      21.127  -0.177  52.950  1.00  0.00     0.023 A 
HETATM   11  C22 UNL     1      21.898  -0.817  53.849  1.00  0.00     0.024 A 
ENDROOT
BRANCH   1  12
HETATM   12  C2  UNL     1      24.537  -1.017  54.287  1.00  0.00     0.033 C 
HETATM   13  C1  UNL     1      24.167  -1.178  55.750  1.00  0.00     0.017 C 
BRANCH  12  14
HETATM   14  C3  UNL     1      25.619   0.051  54.242  1.00  0.00     0.126 C 
BRANCH  14  15
HETATM   15  N1  UNL     1      26.762  -0.384  53.585  1.00  0.00    -0.408 N 
HETATM   16  C4  UNL     1      26.663  -1.216  52.464  1.00  0.00     0.143 C 
HETATM   17  C5  UNL     1      27.504  -2.447  52.643  1.00  0.00     0.187 C 
HETATM   18  O1  UNL     1      28.617  -2.254  53.423  1.00  0.00    -0.388 OA
HETATM   19  C6  UNL     1      29.068  -0.961  53.522  1.00  0.00     0.187 C 
HETATM   20  C7  UNL     1      28.030  -0.001  54.072  1.00  0.00     0.143 C 
ENDBRANCH  14  15
ENDBRANCH  12  14
ENDBRANCH   1  12
BRANCH   9  21
HETATM   21  N4  UNL     1      18.943  -0.865  53.700  1.00  0.00    -0.340 N 
HETATM   22  H16 UNL     1      19.139  -0.763  54.721  1.00  0.00     0.167 HD
BRANCH  21  23
HETATM   23  C15 UNL     1      17.874  -1.734  53.375  1.00  0.00     0.035 A 
HETATM   24  C16 UNL     1      17.875  -3.045  53.801  1.00  0.00     0.029 A 
HETATM   25  C17 UNL     1      16.904  -3.982  53.550  1.00  0.00     0.004 A 
HETATM   26  C18 UNL     1      15.814  -3.579  52.797  1.00  0.00     0.019 A 
HETATM   27  C19 UNL     1      15.749  -2.293  52.342  1.00  0.00     0.013 A 
HETATM   28 BR1  UNL     1      14.236  -1.730  51.296  1.00  0.00    -0.051 Br
HETATM   29  C20 UNL     1      16.760  -1.405  52.632  1.00  0.00     0.048 A 
ENDBRANCH  21  23
ENDBRANCH   9  21
TORSDOF 5
ENDMDL
MODEL 4
REMARK VINA RESULT:      -8.8      3.259      7.493
REMARK  5 active torsions:
REMARK  status: ('A' for Active; 'I' for Inactive)
REMARK    1  A    between atoms: C2_2  and  C3_3 
REMARK    2  A    between atoms: C2_2  and  C8_10 
REMARK    3  A    between atoms: C3_3  and  N1_4 
REMARK    4  A    between atoms: C14_18  and  N4_19 
REMARK    5  A    between atoms: N4_19  and  C15_20 
ROOT
HETATM    1  C8  UNL     1      25.731   2.523  51.126  1.00  0.00    -0.040 A 
HETATM    2  C9  UNL     1      26.721   2.486  51.983  1.00  0.00    -0.005 A 
HETATM    3  C10 UNL     1      26.634   1.513  52.854  1.00  0.00     0.012 A 
HETATM    4  C11 UNL     1      27.465   1.155  53.892  1.00  0.00     0.074 A 
HETATM    5  C12 UNL     1      28.672   1.861  54.214  1.00  0.00     0.102 C 
HETATM    6  N2  UNL     1      29.639   2.428  54.493  1.00  0.00    -0.191 NA
HETATM    7  C13 UNL     1      27.063   0.059  54.617  1.00  0.00     0.142 A 
HETATM    8  N3  UNL     1      25.941  -0.621  54.341  1.00  0.00    -0.241 NA
HETATM    9  C14 UNL     1      25.106  -0.308  53.342  1.00  0.00     0.139 A 
HETATM   10  C21 UNL     1      25.492   0.790  52.602  1.00  0.00     0.023 A 
HETATM   11  C22 UNL     1      24.916   1.387  51.542  1.00  0.00     0.024 A 
ENDROOT
BRANCH   1  12
HETATM   12  C2  UNL     1      25.507   3.501  49.999  1.00  0.00     0.033 C 
HETATM   13  C1  UNL     1      26.870   3.819  49.410  1.00  0.00     0.017 C 
BRANCH  12  14
HETATM   14  C3  UNL     1      24.969   4.813  50.547  1.00  0.00     0.126 C 
BRANCH  14  15
HETATM   15  N1  UNL     1      23.589   4.796  50.695  1.00  0.00    -0.408 N 
HETATM   16  C4  UNL     1      23.012   4.849  51.969  1.00  0.00     0.143 C 
HETATM   17  C5  UNL     1      22.046   3.715  52.158  1.00  0.00     0.187 C 
HETATM   18  O1  UNL     1      21.437   3.300  51.000  1.00  0.00    -0.388 OA
HETATM   19  C6  UNL     1      21.397   4.216  49.977  1.00  0.00     0.187 C 
HETATM   20  C7  UNL     1      22.770   4.702  49.549  1.00  0.00     0.143 C 
ENDBRANCH  14  15
ENDBRANCH  12  14
ENDBRANCH   1  12
BRANCH   9  21
HETATM   21  N4  UNL     1      23.909  -0.983  53.001  1.00  0.00    -0.340 N 
HETATM   22  H16 UNL     1      23.995  -1.922  52.553  1.00  0.00     0.167 HD
BRANCH  21  23
HETATM   23  C15 UNL     1      22.584  -0.527  53.198  1.00  0.00     0.035 A 
HETATM   24  C16 UNL     1      22.090  -0.322  54.469  1.00  0.00     0.029 A 
HETATM   25  C17 UNL     1      20.828   0.113  54.789  1.00  0.00     0.004 A 
HETATM   26  C18 UNL     1      19.962   0.374  53.741  1.00  0.00     0.019 A 
HETATM   27  C19 UNL     1      20.386   0.192  52.456  1.00  0.00     0.013 A 
HETATM   28 BR1  UNL     1      19.186   0.554  50.997  1.00  0.00    -0.051 Br
HETATM   29  C20 UNL     1      21.667  -0.247  52.207  1.00  0.00     0.048 A 
ENDBRANCH  21  23
ENDBRANCH   9  21
TORSDOF 5
ENDMDL
MODEL 5
REMARK VINA RESULT:      -8.7      2.676      5.488
REMARK  5 active torsions:
REMARK  status: ('A' for Active; 'I' for Inactive)
REMARK    1  A    between atoms: C2_2  and  C3_3 
REMARK    2  A    between atoms: C2_2  and  C8_10 
REMARK    3  A    between atoms: C3_3  and  N1_4 
REMARK    4  A    between atoms: C14_18  and  N4_19 
REMARK    5  A    between atoms: N4_19  and  C15_20 
ROOT
HETATM    1  C8  UNL     1      22.722   1.371  51.242  1.00  0.00    -0.040 A 
HETATM    2  C9  UNL     1      23.613   0.937  52.099  1.00  0.00    -0.005 A 
HETATM    3  C10 UNL     1      24.802   1.463  51.941  1.00  0.00     0.012 A 
HETATM    4  C11 UNL     1      25.975   1.262  52.632  1.00  0.00     0.074 A 
HETATM    5  C12 UNL     1      26.092   0.355  53.739  1.00  0.00     0.102 C 
HETATM    6  N2  UNL     1      26.204  -0.380  54.622  1.00  0.00    -0.191 NA
HETATM    7  C13 UNL     1      27.051   1.995  52.192  1.00  0.00     0.142 A 
HETATM    8  N3  UNL     1      26.973   2.849  51.161  1.00  0.00    -0.241 NA
HETATM    9  C14 UNL     1      25.853   3.074  50.463  1.00  0.00     0.139 A 
HETATM   10  C21 UNL     1      24.762   2.349  50.890  1.00  0.00     0.023 A 
HETATM   11  C22 UNL     1      23.493   2.315  50.441  1.00  0.00     0.024 A 
ENDROOT
BRANCH   1  12
HETATM   12  C2  UNL     1      21.269   0.982  51.129  1.00  0.00     0.033 C 
HETATM   13  C1  UNL     1      20.721   1.669  49.890  1.00  0.00     0.017 C 
BRANCH  12  14
HETATM   14  C3  UNL     1      20.485   1.544  52.304  1.00  0.00     0.126 C 
BRANCH  14  15
HETATM   15  N1  UNL     1      20.164   0.569  53.239  1.00  0.00    -0.408 N 
HETATM   16  C4  UNL     1      20.800   0.547  54.485  1.00  0.00     0.143 C 
HETATM   17  C5  UNL     1      21.392  -0.807  54.752  1.00  0.00     0.187 C 
HETATM   18  O1  UNL     1      20.709  -1.841  54.163  1.00  0.00    -0.388 OA
HETATM   19  C6  UNL     1      19.394  -1.595  53.850  1.00  0.00     0.187 C 
HETATM   20  C7  UNL     1      19.208  -0.416  52.914  1.00  0.00     0.143 C 
ENDBRANCH  14  15
ENDBRANCH  12  14
ENDBRANCH   1  12
BRANCH   9  21
HETATM   21  N4  UNL     1      25.707   3.960  49.368  1.00  0.00    -0.340 N 
HETATM   22  H16 UNL     1      24.859   3.850  48.768  1.00  0.00     0.167 HD
BRANCH  21  23
HETATM   23  C15 UNL     1      26.591   4.996  48.981  1.00  0.00     0.035 A 
HETATM   24  C16 UNL     1      26.158   6.303  48.911  1.00  0.00     0.029 A 
HETATM   25  C17 UNL     1      26.913   7.390  48.549  1.00  0.00     0.004 A 
HETATM   26  C18 UNL     1      28.238   7.161  48.221  1.00  0.00     0.019 A 
HETATM   27  C19 UNL     1      28.733   5.889  48.268  1.00  0.00     0.013 A 
HETATM   28 BR1  UNL     1      30.574   5.566  47.812  1.00  0.00    -0.051 Br
HETATM   29  C20 UNL     1      27.918   4.844  48.641  1.00  0.00     0.048 A 
ENDBRANCH  21  23
ENDBRANCH   9  21
TORSDOF 5
ENDMDL
MODEL 6
REMARK VINA RESULT:      -8.4      4.825      8.349
REMARK  5 active torsions:
REMARK  status: ('A' for Active; 'I' for Inactive)
REMARK    1  A    between atoms: C2_2  and  C3_3 
REMARK    2  A    between atoms: C2_2  and  C8_10 
REMARK    3  A    between atoms: C3_3  and  N1_4 
REMARK    4  A    between atoms: C14_18  and  N4_19 
REMARK    5  A    between atoms: N4_19  and  C15_20 
ROOT
HETATM    1  C8  UNL     1      28.926   6.164  48.142  1.00  0.00    -0.040 A 
HETATM    2  C9  UNL     1      27.977   7.039  47.913  1.00  0.00    -0.005 A 
HETATM    3  C10 UNL     1      26.778   6.616  48.226  1.00  0.00     0.012 A 
HETATM    4  C11 UNL     1      25.552   7.234  48.131  1.00  0.00     0.074 A 
HETATM    5  C12 UNL     1      25.377   8.566  47.624  1.00  0.00     0.102 C 
HETATM    6  N2  UNL     1      25.221   9.630  47.206  1.00  0.00    -0.191 NA
HETATM    7  C13 UNL     1      24.481   6.486  48.559  1.00  0.00     0.142 A 
HETATM    8  N3  UNL     1      24.612   5.241  49.038  1.00  0.00    -0.241 NA
HETATM    9  C14 UNL     1      25.784   4.604  49.148  1.00  0.00     0.139 A 
HETATM   10  C21 UNL     1      26.872   5.338  48.723  1.00  0.00     0.023 A 
HETATM   11  C22 UNL     1      28.182   5.033  48.685  1.00  0.00     0.024 A 
ENDROOT
BRANCH   1  12
HETATM   12  C2  UNL     1      30.408   6.309  47.899  1.00  0.00     0.033 C 
HETATM   13  C1  UNL     1      30.572   7.170  46.659  1.00  0.00     0.017 C 
BRANCH  12  14
HETATM   14  C3  UNL     1      31.014   4.958  47.555  1.00  0.00     0.126 C 
BRANCH  14  15
HETATM   15  N1  UNL     1      32.297   4.810  48.067  1.00  0.00    -0.408 N 
HETATM   16  C4  UNL     1      32.795   5.722  49.004  1.00  0.00     0.143 C 
HETATM   17  C5  UNL     1      34.115   6.276  48.552  1.00  0.00     0.187 C 
HETATM   18  O1  UNL     1      34.851   5.409  47.782  1.00  0.00    -0.388 OA
HETATM   19  C6  UNL     1      34.553   4.076  47.924  1.00  0.00     0.187 C 
HETATM   20  C7  UNL     1      33.105   3.745  47.616  1.00  0.00     0.143 C 
ENDBRANCH  14  15
ENDBRANCH  12  14
ENDBRANCH   1  12
BRANCH   9  21
HETATM   21  N4  UNL     1      25.988   3.293  49.642  1.00  0.00    -0.340 N 
HETATM   22  H16 UNL     1      26.159   2.534  48.944  1.00  0.00     0.167 HD
BRANCH  21  23
HETATM   23  C15 UNL     1      25.988   2.879  50.996  1.00  0.00     0.035 A 
HETATM   24  C16 UNL     1      24.853   2.995  51.769  1.00  0.00     0.029 A 
HETATM   25  C17 UNL     1      24.727   2.634  53.087  1.00  0.00     0.004 A 
HETATM   26  C18 UNL     1      25.845   2.101  53.707  1.00  0.00     0.019 A 
HETATM   27  C19 UNL     1      27.004   1.959  53.000  1.00  0.00     0.013 A 
HETATM   28 BR1  UNL     1      28.559   1.220  53.859  1.00  0.00    -0.051 Br
HETATM   29  C20 UNL     1      27.059   2.342  51.679  1.00  0.00     0.048 A 
ENDBRANCH  21  23
ENDBRANCH   9  21
TORSDOF 5
ENDMDL
MODEL 7
REMARK VINA RESULT:      -8.3      2.466      4.160
REMARK  5 active torsions:
REMARK  status: ('A' for Active; 'I' for Inactive)
REMARK    1  A    between atoms: C2_2  and  C3_3 
REMARK    2  A    between atoms: C2_2  and  C8_10 
REMARK    3  A    between atoms: C3_3  and  N1_4 
REMARK    4  A    between atoms: C14_18  and  N4_19 
REMARK    5  A    between atoms: N4_19  and  C15_20 
ROOT
HETATM    1  C8  UNL     1      24.621   1.533  52.358  1.00  0.00    -0.040 A 
HETATM    2  C9  UNL     1      23.979   0.666  53.101  1.00  0.00    -0.005 A 
HETATM    3  C10 UNL     1      22.679   0.816  53.091  1.00  0.00     0.012 A 
HETATM    4  C11 UNL     1      21.686   0.114  53.735  1.00  0.00     0.074 A 
HETATM    5  C12 UNL     1      21.943  -1.000  54.603  1.00  0.00     0.102 C 
HETATM    6  N2  UNL     1      22.137  -1.889  55.313  1.00  0.00    -0.191 NA
HETATM    7  C13 UNL     1      20.405   0.550  53.493  1.00  0.00     0.142 A 
HETATM    8  N3  UNL     1      20.132   1.586  52.688  1.00  0.00    -0.241 NA
HETATM    9  C14 UNL     1      21.067   2.296  52.043  1.00  0.00     0.139 A 
HETATM   10  C21 UNL     1      22.359   1.874  52.273  1.00  0.00     0.023 A 
HETATM   11  C22 UNL     1      23.534   2.334  51.805  1.00  0.00     0.024 A 
ENDROOT
BRANCH   1  12
HETATM   12  C2  UNL     1      26.109   1.657  52.140  1.00  0.00     0.033 C 
HETATM   13  C1  UNL     1      26.305   2.387  50.824  1.00  0.00     0.017 C 
BRANCH  12  14
HETATM   14  C3  UNL     1      26.725   0.279  51.953  1.00  0.00     0.126 C 
BRANCH  14  15
HETATM   15  N1  UNL     1      27.646  -0.025  52.946  1.00  0.00    -0.408 N 
HETATM   16  C4  UNL     1      27.981   0.925  53.918  1.00  0.00     0.143 C 
HETATM   17  C5  UNL     1      29.470   1.110  53.984  1.00  0.00     0.187 C 
HETATM   18  O1  UNL     1      30.188  -0.012  53.654  1.00  0.00    -0.388 OA
HETATM   19  C6  UNL     1      29.530  -1.210  53.785  1.00  0.00     0.187 C 
HETATM   20  C7  UNL     1      28.262  -1.295  52.955  1.00  0.00     0.143 C 
ENDBRANCH  14  15
ENDBRANCH  12  14
ENDBRANCH   1  12
BRANCH   9  21
HETATM   21  N4  UNL     1      20.844   3.398  51.183  1.00  0.00    -0.340 N 
HETATM   22  H16 UNL     1      21.033   4.353  51.562  1.00  0.00     0.167 HD
BRANCH  21  23
HETATM   23  C15 UNL     1      20.387   3.360  49.844  1.00  0.00     0.035 A 
HETATM   24  C16 UNL     1      19.062   3.113  49.557  1.00  0.00     0.029 A 
HETATM   25  C17 UNL     1      18.499   3.048  48.307  1.00  0.00     0.004 A 
HETATM   26  C18 UNL     1      19.338   3.249  47.224  1.00  0.00     0.019 A 
HETATM   27  C19 UNL     1      20.664   3.498  47.435  1.00  0.00     0.013 A 
HETATM   28 BR1  UNL     1      21.831   3.778  45.933  1.00  0.00    -0.051 Br
HETATM   29  C20 UNL     1      21.160   3.550  48.718  1.00  0.00     0.048 A 
ENDBRANCH  21  23
ENDBRANCH   9  21
TORSDOF 5
ENDMDL
MODEL 8
REMARK VINA RESULT:      -8.3      4.003      7.864
REMARK  5 active torsions:
REMARK  status: ('A' for Active; 'I' for Inactive)
REMARK    1  A    between atoms: C2_2  and  C3_3 
REMARK    2  A    between atoms: C2_2  and  C8_10 
REMARK    3  A    between atoms: C3_3  and  N1_4 
REMARK    4  A    between atoms: C14_18  and  N4_19 
REMARK    5  A    between atoms: N4_19  and  C15_20 
ROOT
HETATM    1  C8  UNL     1      24.630   2.357  51.008  1.00  0.00    -0.040 A 
HETATM    2  C9  UNL     1      25.402   1.489  51.613  1.00  0.00    -0.005 A 
HETATM    3  C10 UNL     1      24.791   0.786  52.534  1.00  0.00     0.012 A 
HETATM    4  C11 UNL     1      25.258  -0.203  53.369  1.00  0.00     0.074 A 
HETATM    5  C12 UNL     1      26.617  -0.664  53.364  1.00  0.00     0.102 C 
HETATM    6  N2  UNL     1      27.710  -1.035  53.379  1.00  0.00    -0.191 NA
HETATM    7  C13 UNL     1      24.326  -0.736  54.228  1.00  0.00     0.142 A 
HETATM    8  N3  UNL     1      23.050  -0.327  54.258  1.00  0.00    -0.241 NA
HETATM    9  C14 UNL     1      22.556   0.630  53.463  1.00  0.00     0.139 A 
HETATM   10  C21 UNL     1      23.475   1.178  52.594  1.00  0.00     0.023 A 
HETATM   11  C22 UNL     1      23.345   2.143  51.664  1.00  0.00     0.024 A 
ENDROOT
BRANCH   1  12
HETATM   12  C2  UNL     1      24.996   3.326  49.911  1.00  0.00     0.033 C 
HETATM   13  C1  UNL     1      26.480   3.153  49.643  1.00  0.00     0.017 C 
BRANCH  12  14
HETATM   14  C3  UNL     1      24.820   4.756  50.398  1.00  0.00     0.126 C 
BRANCH  14  15
HETATM   15  N1  UNL     1      23.638   5.326  49.945  1.00  0.00    -0.408 N 
HETATM   16  C4  UNL     1      23.020   6.349  50.673  1.00  0.00     0.143 C 
HETATM   17  C5  UNL     1      21.583   6.008  50.947  1.00  0.00     0.187 C 
HETATM   18  O1  UNL     1      21.001   5.222  49.983  1.00  0.00    -0.388 OA
HETATM   19  C6  UNL     1      21.588   5.256  48.742  1.00  0.00     0.187 C 
HETATM   20  C7  UNL     1      23.049   4.848  48.754  1.00  0.00     0.143 C 
ENDBRANCH  14  15
ENDBRANCH  12  14
ENDBRANCH   1  12
BRANCH   9  21
HETATM   21  N4  UNL     1      21.222   1.107  53.447  1.00  0.00    -0.340 N 
HETATM   22  H16 UNL     1      21.028   2.016  53.923  1.00  0.00     0.167 HD
BRANCH  21  23
HETATM   23  C15 UNL     1      20.099   0.485  52.850  1.00  0.00     0.035 A 
HETATM   24  C16 UNL     1      19.581   0.954  51.662  1.00  0.00     0.029 A 
HETATM   25  C17 UNL     1      18.500   0.442  50.989  1.00  0.00     0.004 A 
HETATM   26  C18 UNL     1      17.863  -0.651  51.551  1.00  0.00     0.019 A 
HETATM   27  C19 UNL     1      18.323  -1.167  52.729  1.00  0.00     0.013 A 
HETATM   28 BR1  UNL     1      17.441  -2.686  53.512  1.00  0.00    -0.051 Br
HETATM   29  C20 UNL     1      19.415  -0.603  53.350  1.00  0.00     0.048 A 
ENDBRANCH  21  23
ENDBRANCH   9  21
TORSDOF 5
ENDMDL
MODEL 9
REMARK VINA RESULT:      -8.2      3.826      7.336
REMARK  5 active torsions:
REMARK  status: ('A' for Active; 'I' for Inactive)
REMARK    1  A    between atoms: C2_2  and  C3_3 
REMARK    2  A    between atoms: C2_2  and  C8_10 
REMARK    3  A    between atoms: C3_3  and  N1_4 
REMARK    4  A    between atoms: C14_18  and  N4_19 
REMARK    5  A    between atoms: N4_19  and  C15_20 
ROOT
HETATM    1  C8  UNL     1      25.385   4.407  49.523  1.00  0.00    -0.040 A 
HETATM    2  C9  UNL     1      24.290   3.742  49.248  1.00  0.00    -0.005 A 
HETATM    3  C10 UNL     1      23.948   2.877  50.169  1.00  0.00     0.012 A 
HETATM    4  C11 UNL     1      22.883   2.008  50.239  1.00  0.00     0.074 A 
HETATM    5  C12 UNL     1      21.884   1.902  49.213  1.00  0.00     0.102 C 
HETATM    6  N2  UNL     1      21.081   1.798  48.391  1.00  0.00    -0.191 NA
HETATM    7  C13 UNL     1      22.830   1.231  51.371  1.00  0.00     0.142 A 
HETATM    8  N3  UNL     1      23.747   1.306  52.346  1.00  0.00    -0.241 NA
HETATM    9  C14 UNL     1      24.797   2.136  52.318  1.00  0.00     0.139 A 
HETATM   10  C21 UNL     1      24.868   2.925  51.190  1.00  0.00     0.023 A 
HETATM   11  C22 UNL     1      25.764   3.860  50.821  1.00  0.00     0.024 A 
ENDROOT
BRANCH   1  12
HETATM   12  C2  UNL     1      26.067   5.467  48.694  1.00  0.00     0.033 C 
HETATM   13  C1  UNL     1      27.536   5.093  48.617  1.00  0.00     0.017 C 
BRANCH  12  14
HETATM   14  C3  UNL     1      26.011   6.806  49.412  1.00  0.00     0.126 C 
BRANCH  14  15
HETATM   15  N1  UNL     1      24.752   7.389  49.342  1.00  0.00    -0.408 N 
HETATM   16  C4  UNL     1      24.168   7.952  50.482  1.00  0.00     0.143 C 
HETATM   17  C5  UNL     1      22.795   7.385  50.706  1.00  0.00     0.187 C 
HETATM   18  O1  UNL     1      22.149   7.013  49.554  1.00  0.00    -0.388 OA
HETATM   19  C6  UNL     1      22.582   7.616  48.398  1.00  0.00     0.187 C 
HETATM   20  C7  UNL     1      24.055   7.389  48.115  1.00  0.00     0.143 C 
ENDBRANCH  14  15
ENDBRANCH  12  14
ENDBRANCH   1  12
BRANCH   9  21
HETATM   21  N4  UNL     1      25.798   2.262  53.312  1.00  0.00    -0.340 N 
HETATM   22  H16 UNL     1      25.671   3.005  54.035  1.00  0.00     0.167 HD
BRANCH  21  23
HETATM   23  C15 UNL     1      26.975   1.486  53.444  1.00  0.00     0.035 A 
HETATM   24  C16 UNL     1      28.157   2.061  53.857  1.00  0.00     0.029 A 
HETATM   25  C17 UNL     1      29.359   1.419  54.021  1.00  0.00     0.004 A 
HETATM   26  C18 UNL     1      29.396   0.063  53.746  1.00  0.00     0.019 A 
HETATM   27  C19 UNL     1      28.260  -0.571  53.332  1.00  0.00     0.013 A 
HETATM   28 BR1  UNL     1      28.307  -2.456  52.950  1.00  0.00    -0.051 Br
HETATM   29  C20 UNL     1      27.087   0.135  53.189  1.00  0.00     0.048 A 
ENDBRANCH  21  23
ENDBRANCH   9  21
TORSDOF 5
ENDMDL
