MODEL 1
REMARK VINA RESULT:      -7.8      0.000      0.000
REMARK  5 active torsions:
REMARK  status: ('A' for Active; 'I' for Inactive)
REMARK    1  A    between atoms: C3_3  and  C4_4 
REMARK    2  A    between atoms: C4_4  and  N1_5 
REMARK    3  A    between atoms: C5_6  and  N2_7 
REMARK    4  A    between atoms: C9_12  and  C10_13 
REMARK    5  A    between atoms: C10_13  and  C11_14 
ROOT
HETATM    1  N1  UNL     1      25.106   1.692  52.324  1.00  0.00    -0.316 N 
HETATM    2  C5  UNL     1      25.506   2.612  51.280  1.00  0.00     0.100 A 
HETATM    3  C6  UNL     1      24.799   3.029  50.254  1.00  0.00     0.041 A 
HETATM    4  C7  UNL     1      23.418   2.577  50.027  1.00  0.00     0.152 A 
HETATM    5  N3  UNL     1      23.052   1.664  51.082  1.00  0.00    -0.373 N 
HETATM    6  C8  UNL     1      23.789   1.205  52.196  1.00  0.00     0.101 A 
HETATM    7  C9  UNL     1      23.294   0.452  53.124  1.00  0.00     0.027 C 
HETATM    8  H11 UNL     1      22.087   1.407  50.844  1.00  0.00     0.161 HD
ENDROOT
BRANCH   1   9
HETATM    9  C4  UNL     1      26.164   1.527  53.232  1.00  0.00     0.167 C 
BRANCH   9  10
HETATM   10  C3  UNL     1      27.087   0.408  53.161  1.00  0.00    -0.056 C 
HETATM   11  C2  UNL     1      28.362   0.659  53.489  1.00  0.00    -0.058 C 
HETATM   12  C1  UNL     1      28.759   2.012  53.889  1.00  0.00     0.048 C 
HETATM   13  C15 UNL     1      29.293  -0.456  53.448  1.00  0.00     0.003 C 
HETATM   14  C14 UNL     1      28.731  -1.569  53.091  1.00  0.00    -0.026 C 
HETATM   15  C13 UNL     1      27.381  -2.026  52.708  1.00  0.00     0.031 C 
HETATM   16  C12 UNL     1      26.452  -0.854  52.635  1.00  0.00     0.040 C 
ENDBRANCH   9  10
ENDBRANCH   1   9
BRANCH   2  17
HETATM   17  N2  UNL     1      26.792   3.233  51.207  1.00  0.00    -0.385 N 
HETATM   18  H6  UNL     1      27.211   3.965  51.808  1.00  0.00     0.157 HD
HETATM   19  H7  UNL     1      27.285   2.793  50.384  1.00  0.00     0.157 HD
ENDBRANCH   2  17
BRANCH   7  20
HETATM   20  C10 UNL     1      22.165  -0.313  53.597  1.00  0.00     0.102 C 
BRANCH  20  21
HETATM   21  C11 UNL     1      22.440  -1.059  54.894  1.00  0.00     0.356 C 
HETATM   22  F1  UNL     1      21.918  -2.327  54.890  1.00  0.00    -0.214 F 
HETATM   23  F2  UNL     1      23.835  -1.116  54.952  1.00  0.00    -0.214 F 
ENDBRANCH  20  21
ENDBRANCH   7  20
TORSDOF 5
ENDMDL
MODEL 2
REMARK VINA RESULT:      -7.6      1.201      2.186
REMARK  5 active torsions:
REMARK  status: ('A' for Active; 'I' for Inactive)
REMARK    1  A    between atoms: C3_3  and  C4_4 
REMARK    2  A    between atoms: C4_4  and  N1_5 
REMARK    3  A    between atoms: C5_6  and  N2_7 
REMARK    4  A    between atoms: C9_12  and  C10_13 
REMARK    5  A    between atoms: C10_13  and  C11_14 
ROOT
HETATM    1  N1  UNL     1      25.224   1.968  51.811  1.00  0.00    -0.316 N 
HETATM    2  C5  UNL     1      25.240   3.299  51.242  1.00  0.00     0.100 A 
HETATM    3  C6  UNL     1      24.285   4.200  51.262  1.00  0.00     0.041 A 
HETATM    4  C7  UNL     1      22.990   3.945  51.911  1.00  0.00     0.152 A 
HETATM    5  N3  UNL     1      23.006   2.614  52.465  1.00  0.00    -0.373 N 
HETATM    6  C8  UNL     1      24.020   1.630  52.463  1.00  0.00     0.101 A 
HETATM    7  C9  UNL     1      23.929   0.502  53.090  1.00  0.00     0.027 C 
HETATM    8  H11 UNL     1      22.076   2.528  52.893  1.00  0.00     0.161 HD
ENDROOT
BRANCH   1   9
HETATM    9  C4  UNL     1      26.457   1.341  51.570  1.00  0.00     0.167 C 
BRANCH   9  10
HETATM   10  C3  UNL     1      27.412   1.061  52.627  1.00  0.00    -0.056 C 
HETATM   11  C2  UNL     1      27.584  -0.226  52.957  1.00  0.00    -0.058 C 
HETATM   12  C1  UNL     1      26.820  -1.264  52.260  1.00  0.00     0.048 C 
HETATM   13  C15 UNL     1      28.555  -0.524  53.996  1.00  0.00     0.003 C 
HETATM   14  C14 UNL     1      29.135   0.537  54.464  1.00  0.00    -0.026 C 
HETATM   15  C13 UNL     1      29.081   1.993  54.229  1.00  0.00     0.031 C 
HETATM   16  C12 UNL     1      27.996   2.307  53.245  1.00  0.00     0.040 C 
ENDBRANCH   9  10
ENDBRANCH   1   9
BRANCH   2  17
HETATM   17  N2  UNL     1      26.354   3.857  50.540  1.00  0.00    -0.385 N 
HETATM   18  H6  UNL     1      27.344   3.948  50.830  1.00  0.00     0.157 HD
HETATM   19  H7  UNL     1      25.981   4.184  49.608  1.00  0.00     0.157 HD
ENDBRANCH   2  17
BRANCH   7  20
HETATM   20  C10 UNL     1      23.109  -0.390  53.873  1.00  0.00     0.102 C 
BRANCH  20  21
HETATM   21  C11 UNL     1      23.904  -1.228  54.865  1.00  0.00     0.356 C 
HETATM   22  F1  UNL     1      25.114  -0.661  55.176  1.00  0.00    -0.214 F 
HETATM   23  F2  UNL     1      23.087  -1.262  55.997  1.00  0.00    -0.214 F 
ENDBRANCH  20  21
ENDBRANCH   7  20
TORSDOF 5
ENDMDL
MODEL 3
REMARK VINA RESULT:      -7.3      2.643      5.337
REMARK  5 active torsions:
REMARK  status: ('A' for Active; 'I' for Inactive)
REMARK    1  A    between atoms: C3_3  and  C4_4 
REMARK    2  A    between atoms: C4_4  and  N1_5 
REMARK    3  A    between atoms: C5_6  and  N2_7 
REMARK    4  A    between atoms: C9_12  and  C10_13 
REMARK    5  A    between atoms: C10_13  and  C11_14 
ROOT
HETATM    1  N1  UNL     1      25.685   0.574  53.259  1.00  0.00    -0.316 N 
HETATM    2  C5  UNL     1      26.961  -0.060  53.515  1.00  0.00     0.100 A 
HETATM    3  C6  UNL     1      28.107   0.514  53.805  1.00  0.00     0.041 A 
HETATM    4  C7  UNL     1      28.238   1.975  53.912  1.00  0.00     0.152 A 
HETATM    5  N3  UNL     1      26.953   2.575  53.651  1.00  0.00    -0.373 N 
HETATM    6  C8  UNL     1      25.708   1.982  53.343  1.00  0.00     0.101 A 
HETATM    7  C9  UNL     1      24.604   2.646  53.227  1.00  0.00     0.027 C 
HETATM    8  H11 UNL     1      27.140   3.580  53.748  1.00  0.00     0.161 HD
ENDROOT
BRANCH   1   9
HETATM    9  C4  UNL     1      24.719  -0.410  52.997  1.00  0.00     0.167 C 
BRANCH   9  10
HETATM   10  C3  UNL     1      23.319  -0.245  53.347  1.00  0.00    -0.056 C 
HETATM   11  C2  UNL     1      22.945  -0.688  54.554  1.00  0.00    -0.058 C 
HETATM   12  C1  UNL     1      23.935  -1.307  55.442  1.00  0.00     0.048 C 
HETATM   13  C15 UNL     1      21.553  -0.508  54.929  1.00  0.00     0.003 C 
HETATM   14  C14 UNL     1      20.855   0.080  54.009  1.00  0.00    -0.026 C 
HETATM   15  C13 UNL     1      21.088   0.629  52.658  1.00  0.00     0.031 C 
HETATM   16  C12 UNL     1      22.491   0.334  52.227  1.00  0.00     0.040 C 
ENDBRANCH   9  10
ENDBRANCH   1   9
BRANCH   2  17
HETATM   17  N2  UNL     1      27.174  -1.473  53.488  1.00  0.00    -0.385 N 
HETATM   18  H6  UNL     1      27.047  -2.149  52.713  1.00  0.00     0.157 HD
HETATM   19  H7  UNL     1      27.507  -1.740  54.453  1.00  0.00     0.157 HD
ENDBRANCH   2  17
BRANCH   7  20
HETATM   20  C10 UNL     1      23.959   3.936  53.205  1.00  0.00     0.102 C 
BRANCH  20  21
HETATM   21  C11 UNL     1      23.052   4.138  51.999  1.00  0.00     0.356 C 
HETATM   22  F1  UNL     1      23.342   3.272  50.976  1.00  0.00    -0.214 F 
HETATM   23  F2  UNL     1      21.775   3.875  52.500  1.00  0.00    -0.214 F 
ENDBRANCH  20  21
ENDBRANCH   7  20
TORSDOF 5
ENDMDL
MODEL 4
REMARK VINA RESULT:      -7.1      2.045      5.114
REMARK  5 active torsions:
REMARK  status: ('A' for Active; 'I' for Inactive)
REMARK    1  A    between atoms: C3_3  and  C4_4 
REMARK    2  A    between atoms: C4_4  and  N1_5 
REMARK    3  A    between atoms: C5_6  and  N2_7 
REMARK    4  A    between atoms: C9_12  and  C10_13 
REMARK    5  A    between atoms: C10_13  and  C11_14 
ROOT
HETATM    1  N1  UNL     1      24.985   0.760  52.590  1.00  0.00    -0.316 N 
HETATM    2  C5  UNL     1      26.374   1.121  52.398  1.00  0.00     0.100 A 
HETATM    3  C6  UNL     1      27.405   0.795  53.143  1.00  0.00     0.041 A 
HETATM    4  C7  UNL     1      27.261  -0.035  54.349  1.00  0.00     0.152 A 
HETATM    5  N3  UNL     1      25.869  -0.375  54.511  1.00  0.00    -0.373 N 
HETATM    6  C8  UNL     1      24.744  -0.043  53.724  1.00  0.00     0.101 A 
HETATM    7  C9  UNL     1      23.555  -0.503  53.939  1.00  0.00     0.027 C 
HETATM    8  H11 UNL     1      25.866  -0.947  55.364  1.00  0.00     0.161 HD
ENDROOT
BRANCH   1   9
HETATM    9  C4  UNL     1      24.212   1.312  51.556  1.00  0.00     0.167 C 
BRANCH   9  10
HETATM   10  C3  UNL     1      23.197   2.323  51.792  1.00  0.00    -0.056 C 
HETATM   11  C2  UNL     1      21.927   1.968  51.556  1.00  0.00    -0.058 C 
HETATM   12  C1  UNL     1      21.627   0.614  51.078  1.00  0.00     0.048 C 
HETATM   13  C15 UNL     1      20.898   2.960  51.811  1.00  0.00     0.003 C 
HETATM   14  C14 UNL     1      21.377   4.082  52.250  1.00  0.00    -0.026 C 
HETATM   15  C13 UNL     1      22.705   4.641  52.569  1.00  0.00     0.031 C 
HETATM   16  C12 UNL     1      23.771   3.659  52.191  1.00  0.00     0.040 C 
ENDBRANCH   9  10
ENDBRANCH   1   9
BRANCH   2  17
HETATM   17  N2  UNL     1      26.851   1.925  51.316  1.00  0.00    -0.385 N 
HETATM   18  H6  UNL     1      27.727   1.848  50.768  1.00  0.00     0.157 HD
HETATM   19  H7  UNL     1      26.116   2.663  51.151  1.00  0.00     0.157 HD
ENDBRANCH   2  17
BRANCH   7  20
HETATM   20  C10 UNL     1      22.688  -1.283  54.789  1.00  0.00     0.102 C 
BRANCH  20  21
HETATM   21  C11 UNL     1      21.247  -0.793  54.797  1.00  0.00     0.356 C 
HETATM   22  F1  UNL     1      21.143   0.529  54.445  1.00  0.00    -0.214 F 
HETATM   23  F2  UNL     1      20.622  -1.593  53.838  1.00  0.00    -0.214 F 
ENDBRANCH  20  21
ENDBRANCH   7  20
TORSDOF 5
ENDMDL
MODEL 5
REMARK VINA RESULT:      -7.1      2.729      4.171
REMARK  5 active torsions:
REMARK  status: ('A' for Active; 'I' for Inactive)
REMARK    1  A    between atoms: C3_3  and  C4_4 
REMARK    2  A    between atoms: C4_4  and  N1_5 
REMARK    3  A    between atoms: C5_6  and  N2_7 
REMARK    4  A    between atoms: C9_12  and  C10_13 
REMARK    5  A    between atoms: C10_13  and  C11_14 
ROOT
HETATM    1  N1  UNL     1      24.807   0.060  54.088  1.00  0.00    -0.316 N 
HETATM    2  C5  UNL     1      24.381  -0.837  55.142  1.00  0.00     0.100 A 
HETATM    3  C6  UNL     1      23.184  -1.338  55.345  1.00  0.00     0.041 A 
HETATM    4  C7  UNL     1      22.051  -1.026  54.460  1.00  0.00     0.152 A 
HETATM    5  N3  UNL     1      22.508  -0.132  53.424  1.00  0.00    -0.373 N 
HETATM    6  C8  UNL     1      23.787   0.416  53.182  1.00  0.00     0.101 A 
HETATM    7  C9  UNL     1      24.076   1.135  52.146  1.00  0.00     0.027 C 
HETATM    8  H11 UNL     1      21.662   0.027  52.863  1.00  0.00     0.161 HD
ENDROOT
BRANCH   1   9
HETATM    9  C4  UNL     1      26.173   0.342  54.239  1.00  0.00     0.167 C 
BRANCH   9  10
HETATM   10  C3  UNL     1      27.214  -0.550  53.758  1.00  0.00    -0.056 C 
HETATM   11  C2  UNL     1      28.473  -0.246  54.102  1.00  0.00    -0.058 C 
HETATM   12  C1  UNL     1      28.738   0.941  54.920  1.00  0.00     0.048 C 
HETATM   13  C15 UNL     1      29.522  -1.143  53.650  1.00  0.00     0.003 C 
HETATM   14  C14 UNL     1      29.069  -2.143  52.960  1.00  0.00    -0.026 C 
HETATM   15  C13 UNL     1      27.755  -2.632  52.497  1.00  0.00     0.031 C 
HETATM   16  C12 UNL     1      26.691  -1.644  52.861  1.00  0.00     0.040 C 
ENDBRANCH   9  10
ENDBRANCH   1   9
BRANCH   2  17
HETATM   17  N2  UNL     1      25.243  -1.332  56.170  1.00  0.00    -0.385 N 
HETATM   18  H6  UNL     1      25.478  -0.925  57.093  1.00  0.00     0.157 HD
HETATM   19  H7  UNL     1      25.631  -2.247  55.814  1.00  0.00     0.157 HD
ENDBRANCH   2  17
BRANCH   7  20
HETATM   20  C10 UNL     1      23.603   1.797  50.955  1.00  0.00     0.102 C 
BRANCH  20  21
HETATM   21  C11 UNL     1      24.520   2.914  50.478  1.00  0.00     0.356 C 
HETATM   22  F1  UNL     1      24.287   3.260  49.171  1.00  0.00    -0.214 F 
HETATM   23  F2  UNL     1      24.201   3.982  51.319  1.00  0.00    -0.214 F 
ENDBRANCH  20  21
ENDBRANCH   7  20
TORSDOF 5
ENDMDL
MODEL 6
REMARK VINA RESULT:      -6.9      2.524      5.769
REMARK  5 active torsions:
REMARK  status: ('A' for Active; 'I' for Inactive)
REMARK    1  A    between atoms: C3_3  and  C4_4 
REMARK    2  A    between atoms: C4_4  and  N1_5 
REMARK    3  A    between atoms: C5_6  and  N2_7 
REMARK    4  A    between atoms: C9_12  and  C10_13 
REMARK    5  A    between atoms: C10_13  and  C11_14 
ROOT
HETATM    1  N1  UNL     1      22.767   0.969  53.097  1.00  0.00    -0.316 N 
HETATM    2  C5  UNL     1      21.634   0.468  53.845  1.00  0.00     0.100 A 
HETATM    3  C6  UNL     1      21.600  -0.542  54.685  1.00  0.00     0.041 A 
HETATM    4  C7  UNL     1      22.797  -1.341  54.987  1.00  0.00     0.152 A 
HETATM    5  N3  UNL     1      23.905  -0.818  54.226  1.00  0.00    -0.373 N 
HETATM    6  C8  UNL     1      23.969   0.267  53.323  1.00  0.00     0.101 A 
HETATM    7  C9  UNL     1      25.066   0.687  52.782  1.00  0.00     0.027 C 
HETATM    8  H11 UNL     1      24.684  -1.429  54.499  1.00  0.00     0.161 HD
ENDROOT
BRANCH   1   9
HETATM    9  C4  UNL     1      22.366   2.069  52.323  1.00  0.00     0.167 C 
BRANCH   9  10
HETATM   10  C3  UNL     1      22.366   2.046  50.871  1.00  0.00    -0.056 C 
HETATM   11  C2  UNL     1      23.196   2.897  50.255  1.00  0.00    -0.058 C 
HETATM   12  C1  UNL     1      24.041   3.793  51.050  1.00  0.00     0.048 C 
HETATM   13  C15 UNL     1      23.225   2.868  48.803  1.00  0.00     0.003 C 
HETATM   14  C14 UNL     1      22.418   1.987  48.300  1.00  0.00    -0.026 C 
HETATM   15  C13 UNL     1      21.458   0.986  48.805  1.00  0.00     0.031 C 
HETATM   16  C12 UNL     1      21.342   1.101  50.293  1.00  0.00     0.040 C 
ENDBRANCH   9  10
ENDBRANCH   1   9
BRANCH   2  17
HETATM   17  N2  UNL     1      20.318   1.024  53.776  1.00  0.00    -0.385 N 
HETATM   18  H6  UNL     1      19.749   1.283  52.950  1.00  0.00     0.157 HD
HETATM   19  H7  UNL     1      19.994   1.139  54.774  1.00  0.00     0.157 HD
ENDBRANCH   2  17
BRANCH   7  20
HETATM   20  C10 UNL     1      26.483   0.491  52.596  1.00  0.00     0.102 C 
BRANCH  20  21
HETATM   21  C11 UNL     1      27.335   1.221  53.625  1.00  0.00     0.356 C 
HETATM   22  F1  UNL     1      26.837   2.462  53.930  1.00  0.00    -0.214 F 
HETATM   23  F2  UNL     1      27.275   0.393  54.748  1.00  0.00    -0.214 F 
ENDBRANCH  20  21
ENDBRANCH   7  20
TORSDOF 5
ENDMDL
MODEL 7
REMARK VINA RESULT:      -6.8      2.076      2.666
REMARK  5 active torsions:
REMARK  status: ('A' for Active; 'I' for Inactive)
REMARK    1  A    between atoms: C3_3  and  C4_4 
REMARK    2  A    between atoms: C4_4  and  N1_5 
REMARK    3  A    between atoms: C5_6  and  N2_7 
REMARK    4  A    between atoms: C9_12  and  C10_13 
REMARK    5  A    between atoms: C10_13  and  C11_14 
ROOT
HETATM    1  N1  UNL     1      23.125   2.893  52.663  1.00  0.00    -0.316 N 
HETATM    2  C5  UNL     1      22.942   4.282  52.300  1.00  0.00     0.100 A 
HETATM    3  C6  UNL     1      21.870   4.854  51.801  1.00  0.00     0.041 A 
HETATM    4  C7  UNL     1      20.639   4.096  51.531  1.00  0.00     0.152 A 
HETATM    5  N3  UNL     1      20.855   2.719  51.901  1.00  0.00    -0.373 N 
HETATM    6  C8  UNL     1      21.993   2.081  52.444  1.00  0.00     0.101 A 
HETATM    7  C9  UNL     1      22.012   0.844  52.821  1.00  0.00     0.027 C 
HETATM    8  H11 UNL     1      19.956   2.274  51.682  1.00  0.00     0.161 HD
ENDROOT
BRANCH   1   9
HETATM    9  C4  UNL     1      24.422   2.709  53.168  1.00  0.00     0.167 C 
BRANCH   9  10
HETATM   10  C3  UNL     1      25.188   1.497  52.933  1.00  0.00    -0.056 C 
HETATM   11  C2  UNL     1      25.982   1.487  51.854  1.00  0.00    -0.058 C 
HETATM   12  C1  UNL     1      26.039   2.663  50.981  1.00  0.00     0.048 C 
HETATM   13  C15 UNL     1      26.774   0.292  51.620  1.00  0.00     0.003 C 
HETATM   14  C14 UNL     1      26.591  -0.619  52.524  1.00  0.00    -0.026 C 
HETATM   15  C13 UNL     1      25.786  -0.781  53.751  1.00  0.00     0.031 C 
HETATM   16  C12 UNL     1      24.883   0.401  53.923  1.00  0.00     0.040 C 
ENDBRANCH   9  10
ENDBRANCH   1   9
BRANCH   2  17
HETATM   17  N2  UNL     1      23.950   5.286  52.438  1.00  0.00    -0.385 N 
HETATM   18  H6  UNL     1      24.079   6.001  53.177  1.00  0.00     0.157 HD
HETATM   19  H7  UNL     1      24.592   5.176  51.607  1.00  0.00     0.157 HD
ENDBRANCH   2  17
BRANCH   7  20
HETATM   20  C10 UNL     1      21.308  -0.413  52.903  1.00  0.00     0.102 C 
BRANCH  20  21
HETATM   21  C11 UNL     1      21.234  -0.973  54.316  1.00  0.00     0.356 C 
HETATM   22  F1  UNL     1      22.295  -1.790  54.612  1.00  0.00    -0.214 F 
HETATM   23  F2  UNL     1      21.267   0.166  55.124  1.00  0.00    -0.214 F 
ENDBRANCH  20  21
ENDBRANCH   7  20
TORSDOF 5
ENDMDL
MODEL 8
REMARK VINA RESULT:      -6.6      3.440      6.555
REMARK  5 active torsions:
REMARK  status: ('A' for Active; 'I' for Inactive)
REMARK    1  A    between atoms: C3_3  and  C4_4 
REMARK    2  A    between atoms: C4_4  and  N1_5 
REMARK    3  A    between atoms: C5_6  and  N2_7 
REMARK    4  A    between atoms: C9_12  and  C10_13 
REMARK    5  A    between atoms: C10_13  and  C11_14 
ROOT
HETATM    1  N1  UNL     1      23.458   1.430  52.376  1.00  0.00    -0.316 N 
HETATM    2  C5  UNL     1      22.972   0.428  53.301  1.00  0.00     0.100 A 
HETATM    3  C6  UNL     1      23.665  -0.480  53.950  1.00  0.00     0.041 A 
HETATM    4  C7  UNL     1      25.124  -0.596  53.800  1.00  0.00     0.152 A 
HETATM    5  N3  UNL     1      25.575   0.412  52.873  1.00  0.00    -0.373 N 
HETATM    6  C8  UNL     1      24.852   1.401  52.169  1.00  0.00     0.101 A 
HETATM    7  C9  UNL     1      25.407   2.311  51.436  1.00  0.00     0.027 C 
HETATM    8  H11 UNL     1      26.589   0.257  52.834  1.00  0.00     0.161 HD
ENDROOT
BRANCH   1   9
HETATM    9  C4  UNL     1      22.380   2.203  51.917  1.00  0.00     0.167 C 
BRANCH   9  10
HETATM   10  C3  UNL     1      22.129   2.435  50.506  1.00  0.00    -0.056 C 
HETATM   11  C2  UNL     1      22.129   3.711  50.096  1.00  0.00    -0.058 C 
HETATM   12  C1  UNL     1      22.372   4.786  51.063  1.00  0.00     0.048 C 
HETATM   13  C15 UNL     1      21.904   3.958  48.683  1.00  0.00     0.003 C 
HETATM   14  C14 UNL     1      21.734   2.868  48.001  1.00  0.00    -0.026 C 
HETATM   15  C13 UNL     1      21.705   1.417  48.270  1.00  0.00     0.031 C 
HETATM   16  C12 UNL     1      21.817   1.172  49.743  1.00  0.00     0.040 C 
ENDBRANCH   9  10
ENDBRANCH   1   9
BRANCH   2  17
HETATM   17  N2  UNL     1      21.598   0.271  53.665  1.00  0.00    -0.385 N 
HETATM   18  H6  UNL     1      20.915   0.975  54.001  1.00  0.00     0.157 HD
HETATM   19  H7  UNL     1      21.371  -0.750  53.526  1.00  0.00     0.157 HD
ENDBRANCH   2  17
BRANCH   7  20
HETATM   20  C10 UNL     1      26.623   2.835  50.861  1.00  0.00     0.102 C 
BRANCH  20  21
HETATM   21  C11 UNL     1      26.379   3.850  49.753  1.00  0.00     0.356 C 
HETATM   22  F1  UNL     1      27.399   3.878  48.837  1.00  0.00    -0.214 F 
HETATM   23  F2  UNL     1      25.204   3.398  49.146  1.00  0.00    -0.214 F 
ENDBRANCH  20  21
ENDBRANCH   7  20
TORSDOF 5
ENDMDL
MODEL 9
REMARK VINA RESULT:      -6.4      3.234      5.971
REMARK  5 active torsions:
REMARK  status: ('A' for Active; 'I' for Inactive)
REMARK    1  A    between atoms: C3_3  and  C4_4 
REMARK    2  A    between atoms: C4_4  and  N1_5 
REMARK    3  A    between atoms: C5_6  and  N2_7 
REMARK    4  A    between atoms: C9_12  and  C10_13 
REMARK    5  A    between atoms: C10_13  and  C11_14 
ROOT
HETATM    1  N1  UNL     1      24.723   4.574  49.776  1.00  0.00    -0.316 N 
HETATM    2  C5  UNL     1      24.846   5.730  48.913  1.00  0.00     0.100 A 
HETATM    3  C6  UNL     1      25.941   6.250  48.408  1.00  0.00     0.041 A 
HETATM    4  C7  UNL     1      27.269   5.680  48.680  1.00  0.00     0.152 A 
HETATM    5  N3  UNL     1      27.112   4.534  49.542  1.00  0.00    -0.373 N 
HETATM    6  C8  UNL     1      25.948   3.952  50.093  1.00  0.00     0.101 A 
HETATM    7  C9  UNL     1      25.949   2.855  50.778  1.00  0.00     0.027 C 
HETATM    8  H11 UNL     1      28.076   4.207  49.673  1.00  0.00     0.161 HD
ENDROOT
BRANCH   1   9
HETATM    9  C4  UNL     1      23.369   4.357  50.076  1.00  0.00     0.167 C 
BRANCH   9  10
HETATM   10  C3  UNL     1      22.702   3.094  49.812  1.00  0.00    -0.056 C 
HETATM   11  C2  UNL     1      22.274   2.405  50.878  1.00  0.00    -0.058 C 
HETATM   12  C1  UNL     1      22.494   2.938  52.226  1.00  0.00     0.048 C 
HETATM   13  C15 UNL     1      21.583   1.151  50.629  1.00  0.00     0.003 C 
HETATM   14  C14 UNL     1      21.475   0.877  49.366  1.00  0.00    -0.026 C 
HETATM   15  C13 UNL     1      21.868   1.499  48.086  1.00  0.00     0.031 C 
HETATM   16  C12 UNL     1      22.684   2.727  48.349  1.00  0.00     0.040 C 
ENDBRANCH   9  10
ENDBRANCH   1   9
BRANCH   2  17
HETATM   17  N2  UNL     1      23.739   6.513  48.461  1.00  0.00    -0.385 N 
HETATM   18  H6  UNL     1      23.031   7.040  49.004  1.00  0.00     0.157 HD
HETATM   19  H7  UNL     1      23.757   6.469  47.406  1.00  0.00     0.157 HD
ENDBRANCH   2  17
BRANCH   7  20
HETATM   20  C10 UNL     1      26.727   1.807  51.394  1.00  0.00     0.102 C 
BRANCH  20  21
HETATM   21  C11 UNL     1      26.818   1.933  52.908  1.00  0.00     0.356 C 
HETATM   22  F1  UNL     1      27.953   2.591  53.311  1.00  0.00    -0.214 F 
HETATM   23  F2  UNL     1      25.688   2.681  53.246  1.00  0.00    -0.214 F 
ENDBRANCH  20  21
ENDBRANCH   7  20
TORSDOF 5
ENDMDL
