MODEL 1
REMARK VINA RESULT:      -8.1      0.000      0.000
REMARK  7 active torsions:
REMARK  status: ('A' for Active; 'I' for Inactive)
REMARK    1  A    between atoms: O1_2  and  C2_3 
REMARK    2  A    between atoms: C5_6  and  N1_7 
REMARK    3  A    between atoms: N1_7  and  C6_8 
REMARK    4  A    between atoms: N2_17  and  C13_18 
REMARK    5  A    between atoms: C14_19  and  C15_20 
REMARK    6  A    between atoms: C15_20  and  O3_22 
REMARK    7  A    between atoms: C17_24  and  O4_25 
ROOT
HETATM    1  C2  UNL     1      26.964   0.023  53.771  1.00  0.00     0.102 A 
HETATM    2  C3  UNL     1      27.247   0.876  52.798  1.00  0.00     0.054 A 
HETATM    3  C4  UNL     1      26.139   1.416  52.016  1.00  0.00     0.012 A 
HETATM    4  C5  UNL     1      26.400   2.271  51.039  1.00  0.00     0.102 C 
HETATM    5  C12 UNL     1      24.756   1.037  52.284  1.00  0.00     0.081 A 
HETATM    6  N2  UNL     1      23.748   1.490  51.617  1.00  0.00    -0.197 NA
HETATM    7  C16 UNL     1      24.604   0.081  53.394  1.00  0.00     0.073 A 
HETATM    8  C17 UNL     1      25.614  -0.401  54.096  1.00  0.00     0.103 A 
ENDROOT
BRANCH   4   9
HETATM    9  N1  UNL     1      25.558   2.940  50.138  1.00  0.00    -0.365 N 
HETATM   10  H6  UNL     1      24.668   2.439  49.967  1.00  0.00     0.165 HD
BRANCH   9  11
HETATM   11  C6  UNL     1      25.872   4.181  49.510  1.00  0.00     0.033 A 
HETATM   12  C7  UNL     1      24.886   5.111  49.339  1.00  0.00     0.032 A 
HETATM   13  C8  UNL     1      25.231   6.299  48.727  1.00  0.00     0.046 A 
HETATM   14  C9  UNL     1      26.505   6.571  48.293  1.00  0.00     0.138 A 
HETATM   15  F1  UNL     1      26.890   7.725  47.686  1.00  0.00    -0.204 F 
HETATM   16  C10 UNL     1      27.482   5.599  48.485  1.00  0.00     0.074 A 
HETATM   17 CL1  UNL     1      29.125   5.905  47.945  1.00  0.00    -0.081 Cl
HETATM   18  C11 UNL     1      27.172   4.384  49.100  1.00  0.00     0.056 A 
ENDBRANCH   9  11
ENDBRANCH   4   9
BRANCH   1  19
HETATM   19  O1  UNL     1      27.964  -0.531  54.555  1.00  0.00    -0.353 OA
HETATM   20  C1  UNL     1      29.329  -0.515  54.182  1.00  0.00     0.210 C 
ENDBRANCH   1  19
BRANCH   6  21
HETATM   21  C13 UNL     1      22.474   1.029  51.995  1.00  0.00     0.047 C 
HETATM   22  C14 UNL     1      21.385   0.612  52.315  1.00  0.00     0.027 C 
BRANCH  22  23
HETATM   23  C15 UNL     1      20.078   0.116  52.696  1.00  0.00     0.227 C 
HETATM   24  O2  UNL     1      19.095   0.235  51.888  1.00  0.00    -0.639 OA
BRANCH  23  25
HETATM   25  O3  UNL     1      19.851  -0.498  53.935  1.00  0.00    -0.767 OA
HETATM   26  H10 UNL     1      18.979  -0.248  54.413  1.00  0.00     0.168 HD
ENDBRANCH  23  25
ENDBRANCH  22  23
ENDBRANCH   6  21
BRANCH   8  27
HETATM   27  O4  UNL     1      25.335  -1.296  55.116  1.00  0.00    -0.353 OA
HETATM   28  C18 UNL     1      24.026  -1.334  55.656  1.00  0.00     0.210 C 
ENDBRANCH   8  27
TORSDOF 7
ENDMDL
MODEL 2
REMARK VINA RESULT:      -8.0      1.806      4.890
REMARK  7 active torsions:
REMARK  status: ('A' for Active; 'I' for Inactive)
REMARK    1  A    between atoms: O1_2  and  C2_3 
REMARK    2  A    between atoms: C5_6  and  N1_7 
REMARK    3  A    between atoms: N1_7  and  C6_8 
REMARK    4  A    between atoms: N2_17  and  C13_18 
REMARK    5  A    between atoms: C14_19  and  C15_20 
REMARK    6  A    between atoms: C15_20  and  O3_22 
REMARK    7  A    between atoms: C17_24  and  O4_25 
ROOT
HETATM    1  C2  UNL     1      22.258   0.815  52.978  1.00  0.00     0.102 A 
HETATM    2  C3  UNL     1      22.611   1.783  52.147  1.00  0.00     0.054 A 
HETATM    3  C4  UNL     1      24.001   1.831  51.702  1.00  0.00     0.012 A 
HETATM    4  C5  UNL     1      24.375   2.791  50.869  1.00  0.00     0.102 C 
HETATM    5  C12 UNL     1      24.983   0.852  52.152  1.00  0.00     0.081 A 
HETATM    6  N2  UNL     1      26.221   0.859  51.783  1.00  0.00    -0.197 NA
HETATM    7  C16 UNL     1      24.439  -0.160  53.073  1.00  0.00     0.073 A 
HETATM    8  C17 UNL     1      23.179  -0.195  53.469  1.00  0.00     0.103 A 
ENDROOT
BRANCH   4   9
HETATM    9  N1  UNL     1      25.617   3.084  50.285  1.00  0.00    -0.365 N 
HETATM   10  H6  UNL     1      26.249   2.266  50.245  1.00  0.00     0.165 HD
BRANCH   9  11
HETATM   11  C6  UNL     1      25.992   4.368  49.789  1.00  0.00     0.033 A 
HETATM   12  C7  UNL     1      27.094   4.479  48.990  1.00  0.00     0.032 A 
HETATM   13  C8  UNL     1      27.423   5.738  48.531  1.00  0.00     0.046 A 
HETATM   14  C9  UNL     1      26.695   6.859  48.846  1.00  0.00     0.138 A 
HETATM   15  F1  UNL     1      26.981   8.118  48.418  1.00  0.00    -0.204 F 
HETATM   16  C10 UNL     1      25.578   6.706  49.662  1.00  0.00     0.074 A 
HETATM   17 CL1  UNL     1      24.619   8.113  50.089  1.00  0.00    -0.081 Cl
HETATM   18  C11 UNL     1      25.213   5.448  50.146  1.00  0.00     0.056 A 
ENDBRANCH   9  11
ENDBRANCH   4   9
BRANCH   1  19
HETATM   19  O1  UNL     1      20.956   0.705  53.443  1.00  0.00    -0.353 OA
HETATM   20  C1  UNL     1      19.835   1.121  52.686  1.00  0.00     0.210 C 
ENDBRANCH   1  19
BRANCH   6  21
HETATM   21  C13 UNL     1      27.047  -0.154  52.305  1.00  0.00     0.047 C 
HETATM   22  C14 UNL     1      27.758  -1.033  52.733  1.00  0.00     0.027 C 
BRANCH  22  23
HETATM   23  C15 UNL     1      28.606  -2.088  53.250  1.00  0.00     0.227 C 
HETATM   24  O2  UNL     1      29.611  -1.791  53.982  1.00  0.00    -0.639 OA
BRANCH  23  25
HETATM   25  O3  UNL     1      28.359  -3.439  52.972  1.00  0.00    -0.767 OA
HETATM   26  H10 UNL     1      29.122  -3.957  52.523  1.00  0.00     0.168 HD
ENDBRANCH  23  25
ENDBRANCH  22  23
ENDBRANCH   6  21
BRANCH   8  27
HETATM   27  O4  UNL     1      22.793  -1.201  54.340  1.00  0.00    -0.353 OA
HETATM   28  C18 UNL     1      23.494  -1.355  55.561  1.00  0.00     0.210 C 
ENDBRANCH   8  27
TORSDOF 7
ENDMDL
MODEL 3
REMARK VINA RESULT:      -7.9      4.315      7.117
REMARK  7 active torsions:
REMARK  status: ('A' for Active; 'I' for Inactive)
REMARK    1  A    between atoms: O1_2  and  C2_3 
REMARK    2  A    between atoms: C5_6  and  N1_7 
REMARK    3  A    between atoms: N1_7  and  C6_8 
REMARK    4  A    between atoms: N2_17  and  C13_18 
REMARK    5  A    between atoms: C14_19  and  C15_20 
REMARK    6  A    between atoms: C15_20  and  O3_22 
REMARK    7  A    between atoms: C17_24  and  O4_25 
ROOT
HETATM    1  C2  UNL     1      21.021   1.184  52.880  1.00  0.00     0.102 A 
HETATM    2  C3  UNL     1      22.199   0.582  52.897  1.00  0.00     0.054 A 
HETATM    3  C4  UNL     1      23.375   1.366  52.530  1.00  0.00     0.012 A 
HETATM    4  C5  UNL     1      24.564   0.783  52.541  1.00  0.00     0.102 C 
HETATM    5  C12 UNL     1      23.271   2.771  52.152  1.00  0.00     0.081 A 
HETATM    6  N2  UNL     1      24.284   3.499  51.821  1.00  0.00    -0.197 NA
HETATM    7  C16 UNL     1      21.895   3.297  52.181  1.00  0.00     0.073 A 
HETATM    8  C17 UNL     1      20.839   2.578  52.516  1.00  0.00     0.103 A 
ENDROOT
BRANCH   4   9
HETATM    9  N1  UNL     1      25.845   1.274  52.241  1.00  0.00    -0.365 N 
HETATM   10  H6  UNL     1      25.824   2.121  51.646  1.00  0.00     0.165 HD
BRANCH   9  11
HETATM   11  C6  UNL     1      27.061   0.685  52.697  1.00  0.00     0.033 A 
HETATM   12  C7  UNL     1      28.057   1.492  53.167  1.00  0.00     0.032 A 
HETATM   13  C8  UNL     1      29.218   0.885  53.600  1.00  0.00     0.046 A 
HETATM   14  C9  UNL     1      29.401  -0.476  53.572  1.00  0.00     0.138 A 
HETATM   15  F1  UNL     1      30.526  -1.118  53.986  1.00  0.00    -0.204 F 
HETATM   16  C10 UNL     1      28.363  -1.266  53.086  1.00  0.00     0.074 A 
HETATM   17 CL1  UNL     1      28.555  -3.010  53.033  1.00  0.00    -0.081 Cl
HETATM   18  C11 UNL     1      27.173  -0.687  52.640  1.00  0.00     0.056 A 
ENDBRANCH   9  11
ENDBRANCH   4   9
BRANCH   1  19
HETATM   19  O1  UNL     1      19.860   0.504  53.217  1.00  0.00    -0.353 OA
HETATM   20  C1  UNL     1      19.005  -0.077  52.250  1.00  0.00     0.210 C 
ENDBRANCH   1  19
BRANCH   6  21
HETATM   21  C13 UNL     1      24.022   4.840  51.481  1.00  0.00     0.047 C 
HETATM   22  C14 UNL     1      23.806   5.997  51.208  1.00  0.00     0.027 C 
BRANCH  22  23
HETATM   23  C15 UNL     1      23.542   7.383  50.879  1.00  0.00     0.227 C 
HETATM   24  O2  UNL     1      22.367   7.738  50.524  1.00  0.00    -0.639 OA
BRANCH  23  25
HETATM   25  O3  UNL     1      24.544   8.362  50.939  1.00  0.00    -0.767 OA
HETATM   26  H10 UNL     1      24.401   9.194  50.358  1.00  0.00     0.168 HD
ENDBRANCH  23  25
ENDBRANCH  22  23
ENDBRANCH   6  21
BRANCH   8  27
HETATM   27  O4  UNL     1      19.597   3.193  52.502  1.00  0.00    -0.353 OA
HETATM   28  C18 UNL     1      19.097   3.701  51.278  1.00  0.00     0.210 C 
ENDBRANCH   8  27
TORSDOF 7
ENDMDL
MODEL 4
REMARK VINA RESULT:      -7.8      4.563      6.611
REMARK  7 active torsions:
REMARK  status: ('A' for Active; 'I' for Inactive)
REMARK    1  A    between atoms: O1_2  and  C2_3 
REMARK    2  A    between atoms: C5_6  and  N1_7 
REMARK    3  A    between atoms: N1_7  and  C6_8 
REMARK    4  A    between atoms: N2_17  and  C13_18 
REMARK    5  A    between atoms: C14_19  and  C15_20 
REMARK    6  A    between atoms: C15_20  and  O3_22 
REMARK    7  A    between atoms: C17_24  and  O4_25 
ROOT
HETATM    1  C2  UNL     1      21.539   4.184  51.904  1.00  0.00     0.102 A 
HETATM    2  C3  UNL     1      22.740   3.684  52.142  1.00  0.00     0.054 A 
HETATM    3  C4  UNL     1      22.829   2.300  52.601  1.00  0.00     0.012 A 
HETATM    4  C5  UNL     1      24.022   1.780  52.844  1.00  0.00     0.102 C 
HETATM    5  C12 UNL     1      21.638   1.481  52.796  1.00  0.00     0.081 A 
HETATM    6  N2  UNL     1      21.672   0.255  53.200  1.00  0.00    -0.197 NA
HETATM    7  C16 UNL     1      20.377   2.178  52.491  1.00  0.00     0.073 A 
HETATM    8  C17 UNL     1      20.309   3.430  52.076  1.00  0.00     0.103 A 
ENDROOT
BRANCH   4   9
HETATM    9  N1  UNL     1      24.409   0.505  53.286  1.00  0.00    -0.365 N 
HETATM   10  H6  UNL     1      23.613  -0.068  53.617  1.00  0.00     0.165 HD
BRANCH   9  11
HETATM   11  C6  UNL     1      25.753   0.027  53.289  1.00  0.00     0.033 A 
HETATM   12  C7  UNL     1      26.017  -1.221  52.800  1.00  0.00     0.032 A 
HETATM   13  C8  UNL     1      27.329  -1.648  52.820  1.00  0.00     0.046 A 
HETATM   14  C9  UNL     1      28.356  -0.875  53.306  1.00  0.00     0.138 A 
HETATM   15  F1  UNL     1      29.661  -1.253  53.347  1.00  0.00    -0.204 F 
HETATM   16  C10 UNL     1      28.047   0.390  53.796  1.00  0.00     0.074 A 
HETATM   17 CL1  UNL     1      29.329   1.411  54.426  1.00  0.00    -0.081 Cl
HETATM   18  C11 UNL     1      26.731   0.857  53.792  1.00  0.00     0.056 A 
ENDBRANCH   9  11
ENDBRANCH   4   9
BRANCH   1  19
HETATM   19  O1  UNL     1      21.376   5.489  51.466  1.00  0.00    -0.353 OA
HETATM   20  C1  UNL     1      21.624   5.886  50.130  1.00  0.00     0.210 C 
ENDBRANCH   1  19
BRANCH   6  21
HETATM   21  C13 UNL     1      20.436  -0.404  53.341  1.00  0.00     0.047 C 
HETATM   22  C14 UNL     1      19.374  -0.972  53.441  1.00  0.00     0.027 C 
BRANCH  22  23
HETATM   23  C15 UNL     1      18.100  -1.650  53.563  1.00  0.00     0.227 C 
HETATM   24  O2  UNL     1      18.065  -2.925  53.641  1.00  0.00    -0.639 OA
BRANCH  23  25
HETATM   25  O3  UNL     1      16.888  -0.946  53.599  1.00  0.00    -0.767 OA
HETATM   26  H10 UNL     1      16.647  -0.414  52.757  1.00  0.00     0.168 HD
ENDBRANCH  23  25
ENDBRANCH  22  23
ENDBRANCH   6  21
BRANCH   8  27
HETATM   27  O4  UNL     1      19.058   3.970  51.823  1.00  0.00    -0.353 OA
HETATM   28  C18 UNL     1      18.003   3.105  51.442  1.00  0.00     0.210 C 
ENDBRANCH   8  27
TORSDOF 7
ENDMDL
MODEL 5
REMARK VINA RESULT:      -7.7      5.151      7.506
REMARK  7 active torsions:
REMARK  status: ('A' for Active; 'I' for Inactive)
REMARK    1  A    between atoms: O1_2  and  C2_3 
REMARK    2  A    between atoms: C5_6  and  N1_7 
REMARK    3  A    between atoms: N1_7  and  C6_8 
REMARK    4  A    between atoms: N2_17  and  C13_18 
REMARK    5  A    between atoms: C14_19  and  C15_20 
REMARK    6  A    between atoms: C15_20  and  O3_22 
REMARK    7  A    between atoms: C17_24  and  O4_25 
ROOT
HETATM    1  C2  UNL     1      26.112   0.211  53.011  1.00  0.00     0.102 A 
HETATM    2  C3  UNL     1      24.877  -0.197  53.257  1.00  0.00     0.054 A 
HETATM    3  C4  UNL     1      23.789   0.760  53.074  1.00  0.00     0.012 A 
HETATM    4  C5  UNL     1      22.546   0.370  53.314  1.00  0.00     0.102 C 
HETATM    5  C12 UNL     1      24.038   2.128  52.638  1.00  0.00     0.081 A 
HETATM    6  N2  UNL     1      23.106   3.005  52.465  1.00  0.00    -0.197 NA
HETATM    7  C16 UNL     1      25.461   2.431  52.406  1.00  0.00     0.073 A 
HETATM    8  C17 UNL     1      26.437   1.557  52.573  1.00  0.00     0.103 A 
ENDROOT
BRANCH   4   9
HETATM    9  N1  UNL     1      21.323   1.055  53.229  1.00  0.00    -0.365 N 
HETATM   10  H6  UNL     1      21.388   2.040  53.542  1.00  0.00     0.165 HD
BRANCH   9  11
HETATM   11  C6  UNL     1      20.106   0.477  52.763  1.00  0.00     0.033 A 
HETATM   12  C7  UNL     1      19.477   1.027  51.682  1.00  0.00     0.032 A 
HETATM   13  C8  UNL     1      18.302   0.439  51.262  1.00  0.00     0.046 A 
HETATM   14  C9  UNL     1      17.756  -0.659  51.881  1.00  0.00     0.138 A 
HETATM   15  F1  UNL     1      16.602  -1.271  51.503  1.00  0.00    -0.204 F 
HETATM   16  C10 UNL     1      18.426  -1.191  52.978  1.00  0.00     0.074 A 
HETATM   17 CL1  UNL     1      17.763  -2.594  53.800  1.00  0.00    -0.081 Cl
HETATM   18  C11 UNL     1      19.618  -0.624  53.433  1.00  0.00     0.056 A 
ENDBRANCH   9  11
ENDBRANCH   4   9
BRANCH   1  19
HETATM   19  O1  UNL     1      27.195  -0.641  53.161  1.00  0.00    -0.353 OA
HETATM   20  C1  UNL     1      27.181  -1.984  52.714  1.00  0.00     0.210 C 
ENDBRANCH   1  19
BRANCH   6  21
HETATM   21  C13 UNL     1      23.507   4.286  52.040  1.00  0.00     0.047 C 
HETATM   22  C14 UNL     1      23.830   5.392  51.677  1.00  0.00     0.027 C 
BRANCH  22  23
HETATM   23  C15 UNL     1      24.220   6.717  51.238  1.00  0.00     0.227 C 
HETATM   24  O2  UNL     1      23.325   7.553  50.874  1.00  0.00    -0.639 OA
BRANCH  23  25
HETATM   25  O3  UNL     1      25.563   7.118  51.198  1.00  0.00    -0.767 OA
HETATM   26  H10 UNL     1      25.951   7.490  52.071  1.00  0.00     0.168 HD
ENDBRANCH  23  25
ENDBRANCH  22  23
ENDBRANCH   6  21
BRANCH   8  27
HETATM   27  O4  UNL     1      27.736   1.970  52.322  1.00  0.00    -0.353 OA
HETATM   28  C18 UNL     1      28.524   2.448  53.397  1.00  0.00     0.210 C 
ENDBRANCH   8  27
TORSDOF 7
ENDMDL
MODEL 6
REMARK VINA RESULT:      -7.6      1.956      5.086
REMARK  7 active torsions:
REMARK  status: ('A' for Active; 'I' for Inactive)
REMARK    1  A    between atoms: O1_2  and  C2_3 
REMARK    2  A    between atoms: C5_6  and  N1_7 
REMARK    3  A    between atoms: N1_7  and  C6_8 
REMARK    4  A    between atoms: N2_17  and  C13_18 
REMARK    5  A    between atoms: C14_19  and  C15_20 
REMARK    6  A    between atoms: C15_20  and  O3_22 
REMARK    7  A    between atoms: C17_24  and  O4_25 
ROOT
HETATM    1  C2  UNL     1      22.839   2.274  50.737  1.00  0.00     0.102 A 
HETATM    2  C3  UNL     1      23.496   3.160  50.006  1.00  0.00     0.054 A 
HETATM    3  C4  UNL     1      24.939   3.277  50.203  1.00  0.00     0.012 A 
HETATM    4  C5  UNL     1      25.615   4.157  49.480  1.00  0.00     0.102 C 
HETATM    5  C12 UNL     1      25.648   2.453  51.174  1.00  0.00     0.081 A 
HETATM    6  N2  UNL     1      26.921   2.525  51.379  1.00  0.00    -0.197 NA
HETATM    7  C16 UNL     1      24.780   1.517  51.910  1.00  0.00     0.073 A 
HETATM    8  C17 UNL     1      23.477   1.419  51.723  1.00  0.00     0.103 A 
ENDROOT
BRANCH   4   9
HETATM    9  N1  UNL     1      26.979   4.486  49.452  1.00  0.00    -0.365 N 
HETATM   10  H6  UNL     1      27.555   3.879  50.062  1.00  0.00     0.165 HD
BRANCH   9  11
HETATM   11  C6  UNL     1      27.538   5.542  48.673  1.00  0.00     0.033 A 
HETATM   12  C7  UNL     1      26.740   6.583  48.291  1.00  0.00     0.032 A 
HETATM   13  C8  UNL     1      27.318   7.585  47.539  1.00  0.00     0.046 A 
HETATM   14  C9  UNL     1      28.640   7.570  47.168  1.00  0.00     0.138 A 
HETATM   15  F1  UNL     1      29.252   8.533  46.428  1.00  0.00    -0.204 F 
HETATM   16  C10 UNL     1      29.421   6.493  47.577  1.00  0.00     0.074 A 
HETATM   17 CL1  UNL     1      31.117   6.433  47.126  1.00  0.00    -0.081 Cl
HETATM   18  C11 UNL     1      28.872   5.460  48.339  1.00  0.00     0.056 A 
ENDBRANCH   9  11
ENDBRANCH   4   9
BRANCH   1  19
HETATM   19  O1  UNL     1      21.469   2.106  50.606  1.00  0.00    -0.353 OA
HETATM   20  C1  UNL     1      20.529   2.930  51.269  1.00  0.00     0.210 C 
ENDBRANCH   1  19
BRANCH   6  21
HETATM   21  C13 UNL     1      27.459   1.661  52.351  1.00  0.00     0.047 C 
HETATM   22  C14 UNL     1      27.924   0.905  53.171  1.00  0.00     0.027 C 
BRANCH  22  23
HETATM   23  C15 UNL     1      28.478  -0.001  54.157  1.00  0.00     0.227 C 
HETATM   24  O2  UNL     1      27.788  -0.317  55.185  1.00  0.00    -0.639 OA
BRANCH  23  25
HETATM   25  O3  UNL     1      29.760  -0.552  54.019  1.00  0.00    -0.767 OA
HETATM   26  H10 UNL     1      30.118  -0.633  53.062  1.00  0.00     0.168 HD
ENDBRANCH  23  25
ENDBRANCH  22  23
ENDBRANCH   6  21
BRANCH   8  27
HETATM   27  O4  UNL     1      22.773   0.497  52.482  1.00  0.00    -0.353 OA
HETATM   28  C18 UNL     1      23.487  -0.352  53.363  1.00  0.00     0.210 C 
ENDBRANCH   8  27
TORSDOF 7
ENDMDL
MODEL 7
REMARK VINA RESULT:      -7.6      1.606      1.922
REMARK  7 active torsions:
REMARK  status: ('A' for Active; 'I' for Inactive)
REMARK    1  A    between atoms: O1_2  and  C2_3 
REMARK    2  A    between atoms: C5_6  and  N1_7 
REMARK    3  A    between atoms: N1_7  and  C6_8 
REMARK    4  A    between atoms: N2_17  and  C13_18 
REMARK    5  A    between atoms: C14_19  and  C15_20 
REMARK    6  A    between atoms: C15_20  and  O3_22 
REMARK    7  A    between atoms: C17_24  and  O4_25 
ROOT
HETATM    1  C2  UNL     1      26.348   0.110  53.087  1.00  0.00     0.102 A 
HETATM    2  C3  UNL     1      26.874   0.906  52.170  1.00  0.00     0.054 A 
HETATM    3  C4  UNL     1      25.973   1.773  51.416  1.00  0.00     0.012 A 
HETATM    4  C5  UNL     1      26.480   2.578  50.494  1.00  0.00     0.102 C 
HETATM    5  C12 UNL     1      24.534   1.771  51.651  1.00  0.00     0.081 A 
HETATM    6  N2  UNL     1      23.703   2.520  51.007  1.00  0.00    -0.197 NA
HETATM    7  C16 UNL     1      24.102   0.832  52.700  1.00  0.00     0.073 A 
HETATM    8  C17 UNL     1      24.926   0.053  53.378  1.00  0.00     0.103 A 
ENDROOT
BRANCH   4   9
HETATM    9  N1  UNL     1      25.872   3.502  49.630  1.00  0.00    -0.365 N 
HETATM   10  H6  UNL     1      24.972   3.164  49.244  1.00  0.00     0.165 HD
BRANCH   9  11
HETATM   11  C6  UNL     1      26.417   4.779  49.302  1.00  0.00     0.033 A 
HETATM   12  C7  UNL     1      27.609   4.845  48.639  1.00  0.00     0.032 A 
HETATM   13  C8  UNL     1      28.102   6.098  48.340  1.00  0.00     0.046 A 
HETATM   14  C9  UNL     1      27.449   7.257  48.681  1.00  0.00     0.138 A 
HETATM   15  F1  UNL     1      27.896   8.511  48.408  1.00  0.00    -0.204 F 
HETATM   16  C10 UNL     1      26.236   7.149  49.356  1.00  0.00     0.074 A 
HETATM   17 CL1  UNL     1      25.367   8.604  49.811  1.00  0.00    -0.081 Cl
HETATM   18  C11 UNL     1      25.704   5.898  49.676  1.00  0.00     0.056 A 
ENDBRANCH   9  11
ENDBRANCH   4   9
BRANCH   1  19
HETATM   19  O1  UNL     1      27.141  -0.740  53.843  1.00  0.00    -0.353 OA
HETATM   20  C1  UNL     1      28.528  -0.901  53.612  1.00  0.00     0.210 C 
ENDBRANCH   1  19
BRANCH   6  21
HETATM   21  C13 UNL     1      22.342   2.404  51.349  1.00  0.00     0.047 C 
HETATM   22  C14 UNL     1      21.175   2.323  51.653  1.00  0.00     0.027 C 
BRANCH  22  23
HETATM   23  C15 UNL     1      19.777   2.221  52.019  1.00  0.00     0.227 C 
HETATM   24  O2  UNL     1      19.106   3.282  52.257  1.00  0.00    -0.639 OA
BRANCH  23  25
HETATM   25  O3  UNL     1      19.128   0.983  52.122  1.00  0.00    -0.767 OA
HETATM   26  H10 UNL     1      19.082   0.422  51.266  1.00  0.00     0.168 HD
ENDBRANCH  23  25
ENDBRANCH  22  23
ENDBRANCH   6  21
BRANCH   8  27
HETATM   27  O4  UNL     1      24.391  -0.788  54.340  1.00  0.00    -0.353 OA
HETATM   28  C18 UNL     1      22.984  -0.933  54.418  1.00  0.00     0.210 C 
ENDBRANCH   8  27
TORSDOF 7
ENDMDL
MODEL 8
REMARK VINA RESULT:      -7.2      4.067      6.467
REMARK  7 active torsions:
REMARK  status: ('A' for Active; 'I' for Inactive)
REMARK    1  A    between atoms: O1_2  and  C2_3 
REMARK    2  A    between atoms: C5_6  and  N1_7 
REMARK    3  A    between atoms: N1_7  and  C6_8 
REMARK    4  A    between atoms: N2_17  and  C13_18 
REMARK    5  A    between atoms: C14_19  and  C15_20 
REMARK    6  A    between atoms: C15_20  and  O3_22 
REMARK    7  A    between atoms: C17_24  and  O4_25 
ROOT
HETATM    1  C2  UNL     1      23.692   4.024  49.321  1.00  0.00     0.102 A 
HETATM    2  C3  UNL     1      24.781   3.735  50.016  1.00  0.00     0.054 A 
HETATM    3  C4  UNL     1      24.669   2.752  51.090  1.00  0.00     0.012 A 
HETATM    4  C5  UNL     1      25.747   2.448  51.796  1.00  0.00     0.102 C 
HETATM    5  C12 UNL     1      23.402   2.100  51.401  1.00  0.00     0.081 A 
HETATM    6  N2  UNL     1      23.259   1.227  52.342  1.00  0.00    -0.197 NA
HETATM    7  C16 UNL     1      22.284   2.527  50.543  1.00  0.00     0.073 A 
HETATM    8  C17 UNL     1      22.397   3.417  49.573  1.00  0.00     0.103 A 
ENDROOT
BRANCH   4   9
HETATM    9  N1  UNL     1      25.938   1.560  52.866  1.00  0.00    -0.365 N 
HETATM   10  H6  UNL     1      25.086   1.427  53.440  1.00  0.00     0.165 HD
BRANCH   9  11
HETATM   11  C6  UNL     1      27.168   0.898  53.154  1.00  0.00     0.033 A 
HETATM   12  C7  UNL     1      28.221   1.624  53.635  1.00  0.00     0.032 A 
HETATM   13  C8  UNL     1      29.393   0.948  53.901  1.00  0.00     0.046 A 
HETATM   14  C9  UNL     1      29.534  -0.404  53.702  1.00  0.00     0.138 A 
HETATM   15  F1  UNL     1      30.668  -1.112  53.950  1.00  0.00    -0.204 F 
HETATM   16  C10 UNL     1      28.440  -1.111  53.212  1.00  0.00     0.074 A 
HETATM   17 CL1  UNL     1      28.576  -2.840  52.944  1.00  0.00    -0.081 Cl
HETATM   18  C11 UNL     1      27.236  -0.461  52.931  1.00  0.00     0.056 A 
ENDBRANCH   9  11
ENDBRANCH   4   9
BRANCH   1  19
HETATM   19  O1  UNL     1      23.722   4.947  48.287  1.00  0.00    -0.353 OA
HETATM   20  C1  UNL     1      24.130   6.290  48.471  1.00  0.00     0.210 C 
ENDBRANCH   1  19
BRANCH   6  21
HETATM   21  C13 UNL     1      21.972   0.687  52.520  1.00  0.00     0.047 C 
HETATM   22  C14 UNL     1      20.861   0.230  52.654  1.00  0.00     0.027 C 
BRANCH  22  23
HETATM   23  C15 UNL     1      19.528  -0.315  52.819  1.00  0.00     0.227 C 
HETATM   24  O2  UNL     1      18.652  -0.133  51.906  1.00  0.00    -0.639 OA
BRANCH  23  25
HETATM   25  O3  UNL     1      19.163  -1.044  53.959  1.00  0.00    -0.767 OA
HETATM   26  H10 UNL     1      19.927  -1.493  54.474  1.00  0.00     0.168 HD
ENDBRANCH  23  25
ENDBRANCH  22  23
ENDBRANCH   6  21
BRANCH   8  27
HETATM   27  O4  UNL     1      21.266   3.732  48.838  1.00  0.00    -0.353 OA
HETATM   28  C18 UNL     1      20.370   4.706  49.342  1.00  0.00     0.210 C 
ENDBRANCH   8  27
TORSDOF 7
ENDMDL
MODEL 9
REMARK VINA RESULT:      -7.1      4.763      8.295
REMARK  7 active torsions:
REMARK  status: ('A' for Active; 'I' for Inactive)
REMARK    1  A    between atoms: O1_2  and  C2_3 
REMARK    2  A    between atoms: C5_6  and  N1_7 
REMARK    3  A    between atoms: N1_7  and  C6_8 
REMARK    4  A    between atoms: N2_17  and  C13_18 
REMARK    5  A    between atoms: C14_19  and  C15_20 
REMARK    6  A    between atoms: C15_20  and  O3_22 
REMARK    7  A    between atoms: C17_24  and  O4_25 
ROOT
HETATM    1  C2  UNL     1      23.974   5.435  48.696  1.00  0.00     0.102 A 
HETATM    2  C3  UNL     1      23.093   4.449  48.648  1.00  0.00     0.054 A 
HETATM    3  C4  UNL     1      23.333   3.272  49.478  1.00  0.00     0.012 A 
HETATM    4  C5  UNL     1      22.463   2.275  49.444  1.00  0.00     0.102 C 
HETATM    5  C12 UNL     1      24.506   3.170  50.339  1.00  0.00     0.081 A 
HETATM    6  N2  UNL     1      24.756   2.148  51.088  1.00  0.00    -0.197 NA
HETATM    7  C16 UNL     1      25.392   4.345  50.283  1.00  0.00     0.073 A 
HETATM    8  C17 UNL     1      25.164   5.405  49.529  1.00  0.00     0.103 A 
ENDROOT
BRANCH   4   9
HETATM    9  N1  UNL     1      22.432   1.043  50.117  1.00  0.00    -0.365 N 
HETATM   10  H6  UNL     1      23.257   0.450  49.914  1.00  0.00     0.165 HD
BRANCH   9  11
HETATM   11  C6  UNL     1      21.387   0.629  50.994  1.00  0.00     0.033 A 
HETATM   12  C7  UNL     1      20.090   0.713  50.572  1.00  0.00     0.032 A 
HETATM   13  C8  UNL     1      19.108   0.303  51.449  1.00  0.00     0.046 A 
HETATM   14  C9  UNL     1      19.384  -0.175  52.707  1.00  0.00     0.138 A 
HETATM   15  F1  UNL     1      18.450  -0.589  53.604  1.00  0.00    -0.204 F 
HETATM   16  C10 UNL     1      20.717  -0.245  53.101  1.00  0.00     0.074 A 
HETATM   17 CL1  UNL     1      21.116  -0.850  54.700  1.00  0.00    -0.081 Cl
HETATM   18  C11 UNL     1      21.740   0.160  52.241  1.00  0.00     0.056 A 
ENDBRANCH   9  11
ENDBRANCH   4   9
BRANCH   1  19
HETATM   19  O1  UNL     1      23.812   6.584  47.937  1.00  0.00    -0.353 OA
HETATM   20  C1  UNL     1      22.544   7.049  47.513  1.00  0.00     0.210 C 
ENDBRANCH   1  19
BRANCH   6  21
HETATM   21  C13 UNL     1      25.930   2.199  51.863  1.00  0.00     0.047 C 
HETATM   22  C14 UNL     1      26.938   2.221  52.530  1.00  0.00     0.027 C 
BRANCH  22  23
HETATM   23  C15 UNL     1      28.144   2.250  53.331  1.00  0.00     0.227 C 
HETATM   24  O2  UNL     1      28.212   1.554  54.400  1.00  0.00    -0.639 OA
BRANCH  23  25
HETATM   25  O3  UNL     1      29.255   3.025  52.969  1.00  0.00    -0.767 OA
HETATM   26  H10 UNL     1      30.084   2.511  52.654  1.00  0.00     0.168 HD
ENDBRANCH  23  25
ENDBRANCH  22  23
ENDBRANCH   6  21
BRANCH   8  27
HETATM   27  O4  UNL     1      26.078   6.446  49.568  1.00  0.00    -0.353 OA
HETATM   28  C18 UNL     1      25.808   7.565  50.393  1.00  0.00     0.210 C 
ENDBRANCH   8  27
TORSDOF 7
ENDMDL
