MODEL 1
REMARK VINA RESULT:      -7.8      0.000      0.000
REMARK  3 active torsions:
REMARK  status: ('A' for Active; 'I' for Inactive)
REMARK    1  A    between atoms: C5_6  and  N1_7 
REMARK    2  A    between atoms: N1_7  and  C6_8 
REMARK    3  A    between atoms: C8_12  and  C9_13 
ROOT
HETATM    1  C6  UNL     1      25.007   2.832  51.892  1.00  0.00     0.727 A 
HETATM    2  N2  UNL     1      24.499   3.890  51.261  1.00  0.00    -0.074 NA
HETATM    3  C7  UNL     1      23.215   4.191  51.066  1.00  0.00     0.154 A 
HETATM    4  P1  UNL     1      22.148   3.007  51.749  1.00  0.00     0.021 P 
HETATM    5  C8  UNL     1      22.995   1.709  52.527  1.00  0.00     0.101 A 
HETATM    6  N4  UNL     1      24.318   1.856  52.458  1.00  0.00    -0.061 NA
ENDROOT
BRANCH   1   7
HETATM    7  N1  UNL     1      26.434   2.687  51.996  1.00  0.00    -0.188 N 
HETATM    8  H4  UNL     1      27.066   3.456  51.612  1.00  0.00     0.184 HD
BRANCH   7   9
HETATM    9  C5  UNL     1      27.217   1.644  52.552  1.00  0.00     0.051 A 
HETATM   10  C4  UNL     1      28.339   1.879  53.350  1.00  0.00     0.030 A 
HETATM   11  C3  UNL     1      29.093   0.869  53.883  1.00  0.00     0.004 A 
HETATM   12  C2  UNL     1      28.792  -0.452  53.670  1.00  0.00     0.024 A 
HETATM   13  C1  UNL     1      27.698  -0.738  52.892  1.00  0.00     0.036 A 
HETATM   14 CL1  UNL     1      27.331  -2.425  52.631  1.00  0.00    -0.084 Cl
HETATM   15  C14 UNL     1      26.969   0.301  52.375  1.00  0.00     0.053 A 
ENDBRANCH   7   9
ENDBRANCH   1   7
BRANCH   5  16
HETATM   16  C9  UNL     1      22.368   0.554  53.199  1.00  0.00     0.012 A 
HETATM   17  C10 UNL     1      22.978  -0.475  53.893  1.00  0.00     0.017 A 
HETATM   18  C11 UNL     1      22.153  -1.442  54.434  1.00  0.00     0.020 A 
HETATM   19  C12 UNL     1      20.782  -1.394  54.294  1.00  0.00     0.116 A 
HETATM   20  N3  UNL     1      20.216  -0.367  53.604  1.00  0.00    -0.272 NA
HETATM   21  C13 UNL     1      20.980   0.603  53.058  1.00  0.00     0.130 A 
ENDBRANCH   5  16
TORSDOF 3
ENDMDL
MODEL 2
REMARK VINA RESULT:      -7.7      2.842      5.616
REMARK  3 active torsions:
REMARK  status: ('A' for Active; 'I' for Inactive)
REMARK    1  A    between atoms: C5_6  and  N1_7 
REMARK    2  A    between atoms: N1_7  and  C6_8 
REMARK    3  A    between atoms: C8_12  and  C9_13 
ROOT
HETATM    1  C6  UNL     1      23.450   1.399  51.445  1.00  0.00     0.727 A 
HETATM    2  N2  UNL     1      22.284   0.927  51.885  1.00  0.00    -0.074 NA
HETATM    3  C7  UNL     1      22.071   0.053  52.868  1.00  0.00     0.154 A 
HETATM    4  P1  UNL     1      23.546  -0.482  53.607  1.00  0.00     0.021 P 
HETATM    5  C8  UNL     1      24.954   0.242  52.898  1.00  0.00     0.101 A 
HETATM    6  N4  UNL     1      24.646   1.081  51.911  1.00  0.00    -0.061 NA
ENDROOT
BRANCH   1   7
HETATM    7  N1  UNL     1      23.469   2.345  50.362  1.00  0.00    -0.188 N 
HETATM    8  H4  UNL     1      22.843   2.179  49.514  1.00  0.00     0.184 HD
BRANCH   7   9
HETATM    9  C5  UNL     1      24.212   3.541  50.194  1.00  0.00     0.051 A 
HETATM   10  C4  UNL     1      23.769   4.781  50.658  1.00  0.00     0.030 A 
HETATM   11  C3  UNL     1      24.490   5.933  50.494  1.00  0.00     0.004 A 
HETATM   12  C2  UNL     1      25.704   5.945  49.858  1.00  0.00     0.024 A 
HETATM   13  C1  UNL     1      26.185   4.751  49.381  1.00  0.00     0.036 A 
HETATM   14 CL1  UNL     1      27.733   4.786  48.574  1.00  0.00    -0.084 Cl
HETATM   15  C14 UNL     1      25.434   3.620  49.566  1.00  0.00     0.053 A 
ENDBRANCH   7   9
ENDBRANCH   1   7
BRANCH   5  16
HETATM   16  C9  UNL     1      26.349  -0.011  53.308  1.00  0.00     0.012 A 
HETATM   17  C10 UNL     1      27.275  -0.862  52.733  1.00  0.00     0.017 A 
HETATM   18  C11 UNL     1      28.526  -0.914  53.317  1.00  0.00     0.020 A 
HETATM   19  C12 UNL     1      28.848  -0.156  54.423  1.00  0.00     0.116 A 
HETATM   20  N3  UNL     1      27.912   0.670  54.962  1.00  0.00    -0.272 NA
HETATM   21  C13 UNL     1      26.675   0.756  54.428  1.00  0.00     0.130 A 
ENDBRANCH   5  16
TORSDOF 3
ENDMDL
MODEL 3
REMARK VINA RESULT:      -7.7      3.686      5.066
REMARK  3 active torsions:
REMARK  status: ('A' for Active; 'I' for Inactive)
REMARK    1  A    between atoms: C5_6  and  N1_7 
REMARK    2  A    between atoms: N1_7  and  C6_8 
REMARK    3  A    between atoms: C8_12  and  C9_13 
ROOT
HETATM    1  C6  UNL     1      26.484   2.372  51.192  1.00  0.00     0.727 A 
HETATM    2  N2  UNL     1      27.590   2.503  51.924  1.00  0.00    -0.074 NA
HETATM    3  C7  UNL     1      27.788   2.128  53.188  1.00  0.00     0.154 A 
HETATM    4  P1  UNL     1      26.381   1.392  53.885  1.00  0.00     0.021 P 
HETATM    5  C8  UNL     1      25.047   1.313  52.780  1.00  0.00     0.101 A 
HETATM    6  N4  UNL     1      25.345   1.834  51.591  1.00  0.00    -0.061 NA
ENDROOT
BRANCH   1   7
HETATM    7  N1  UNL     1      26.473   2.845  49.834  1.00  0.00    -0.188 N 
HETATM    8  H4  UNL     1      26.402   2.139  49.037  1.00  0.00     0.184 HD
BRANCH   7   9
HETATM    9  C5  UNL     1      26.543   4.162  49.315  1.00  0.00     0.051 A 
HETATM   10  C4  UNL     1      25.455   5.038  49.316  1.00  0.00     0.030 A 
HETATM   11  C3  UNL     1      25.527   6.309  48.814  1.00  0.00     0.004 A 
HETATM   12  C2  UNL     1      26.682   6.812  48.273  1.00  0.00     0.024 A 
HETATM   13  C1  UNL     1      27.783   5.991  48.248  1.00  0.00     0.036 A 
HETATM   14 CL1  UNL     1      29.244   6.649  47.557  1.00  0.00    -0.084 Cl
HETATM   15  C14 UNL     1      27.671   4.725  48.760  1.00  0.00     0.053 A 
ENDBRANCH   7   9
ENDBRANCH   1   7
BRANCH   5  16
HETATM   16  C9  UNL     1      23.718   0.743  53.078  1.00  0.00     0.012 A 
HETATM   17  C10 UNL     1      23.413  -0.470  53.668  1.00  0.00     0.017 A 
HETATM   18  C11 UNL     1      22.074  -0.768  53.835  1.00  0.00     0.020 A 
HETATM   19  C12 UNL     1      21.078   0.099  53.434  1.00  0.00     0.116 A 
HETATM   20  N3  UNL     1      21.415   1.283  52.857  1.00  0.00    -0.272 NA
HETATM   21  C13 UNL     1      22.710   1.619  52.673  1.00  0.00     0.130 A 
ENDBRANCH   5  16
TORSDOF 3
ENDMDL
MODEL 4
REMARK VINA RESULT:      -7.7      2.980      6.592
REMARK  3 active torsions:
REMARK  status: ('A' for Active; 'I' for Inactive)
REMARK    1  A    between atoms: C5_6  and  N1_7 
REMARK    2  A    between atoms: N1_7  and  C6_8 
REMARK    3  A    between atoms: C8_12  and  C9_13 
ROOT
HETATM    1  C6  UNL     1      23.745   0.880  53.016  1.00  0.00     0.727 A 
HETATM    2  N2  UNL     1      23.645   2.057  52.398  1.00  0.00    -0.074 NA
HETATM    3  C7  UNL     1      24.607   2.750  51.791  1.00  0.00     0.154 A 
HETATM    4  P1  UNL     1      26.144   1.950  51.864  1.00  0.00     0.021 P 
HETATM    5  C8  UNL     1      26.073   0.435  52.707  1.00  0.00     0.101 A 
HETATM    6  N4  UNL     1      24.846   0.160  53.147  1.00  0.00    -0.061 NA
ENDROOT
BRANCH   1   7
HETATM    7  N1  UNL     1      22.577   0.291  53.614  1.00  0.00    -0.188 N 
HETATM    8  H4  UNL     1      22.634  -0.081  54.612  1.00  0.00     0.184 HD
BRANCH   7   9
HETATM    9  C5  UNL     1      21.273   0.097  53.094  1.00  0.00     0.051 A 
HETATM   10  C4  UNL     1      20.284  -0.618  53.773  1.00  0.00     0.030 A 
HETATM   11  C3  UNL     1      19.026  -0.804  53.267  1.00  0.00     0.004 A 
HETATM   12  C2  UNL     1      18.650  -0.295  52.050  1.00  0.00     0.024 A 
HETATM   13  C1  UNL     1      19.586   0.416  51.341  1.00  0.00     0.036 A 
HETATM   14 CL1  UNL     1      19.090   1.055  49.795  1.00  0.00    -0.084 Cl
HETATM   15  C14 UNL     1      20.835   0.580  51.881  1.00  0.00     0.053 A 
ENDBRANCH   7   9
ENDBRANCH   1   7
BRANCH   5  16
HETATM   16  C9  UNL     1      27.212  -0.476  52.933  1.00  0.00     0.012 A 
HETATM   17  C10 UNL     1      28.479  -0.173  53.398  1.00  0.00     0.017 A 
HETATM   18  C11 UNL     1      29.369  -1.222  53.522  1.00  0.00     0.020 A 
HETATM   19  C12 UNL     1      29.021  -2.517  53.198  1.00  0.00     0.116 A 
HETATM   20  N3  UNL     1      27.767  -2.778  52.743  1.00  0.00    -0.272 NA
HETATM   21  C13 UNL     1      26.860  -1.786  52.605  1.00  0.00     0.130 A 
ENDBRANCH   5  16
TORSDOF 3
ENDMDL
MODEL 5
REMARK VINA RESULT:      -7.7      2.230      4.980
REMARK  3 active torsions:
REMARK  status: ('A' for Active; 'I' for Inactive)
REMARK    1  A    between atoms: C5_6  and  N1_7 
REMARK    2  A    between atoms: N1_7  and  C6_8 
REMARK    3  A    between atoms: C8_12  and  C9_13 
ROOT
HETATM    1  C6  UNL     1      24.648   0.331  52.712  1.00  0.00     0.727 A 
HETATM    2  N2  UNL     1      23.417   0.239  53.213  1.00  0.00    -0.074 NA
HETATM    3  C7  UNL     1      22.388   1.064  53.020  1.00  0.00     0.154 A 
HETATM    4  P1  UNL     1      22.792   2.390  51.979  1.00  0.00     0.021 P 
HETATM    5  C8  UNL     1      24.436   2.337  51.429  1.00  0.00     0.101 A 
HETATM    6  N4  UNL     1      25.094   1.282  51.909  1.00  0.00    -0.061 NA
ENDROOT
BRANCH   1   7
HETATM    7  N1  UNL     1      25.625  -0.671  53.043  1.00  0.00    -0.188 N 
HETATM    8  H4  UNL     1      25.316  -1.687  53.146  1.00  0.00     0.184 HD
BRANCH   7   9
HETATM    9  C5  UNL     1      27.019  -0.560  53.275  1.00  0.00     0.051 A 
HETATM   10  C4  UNL     1      27.920  -1.590  52.998  1.00  0.00     0.030 A 
HETATM   11  C3  UNL     1      29.265  -1.478  53.224  1.00  0.00     0.004 A 
HETATM   12  C2  UNL     1      29.822  -0.336  53.741  1.00  0.00     0.024 A 
HETATM   13  C1  UNL     1      28.979   0.708  54.031  1.00  0.00     0.036 A 
HETATM   14 CL1  UNL     1      29.706   2.153  54.687  1.00  0.00    -0.084 Cl
HETATM   15  C14 UNL     1      27.639   0.557  53.790  1.00  0.00     0.053 A 
ENDBRANCH   7   9
ENDBRANCH   1   7
BRANCH   5  16
HETATM   16  C9  UNL     1      25.076   3.321  50.534  1.00  0.00     0.012 A 
HETATM   17  C10 UNL     1      24.505   4.414  49.908  1.00  0.00     0.017 A 
HETATM   18  C11 UNL     1      25.333   5.185  49.114  1.00  0.00     0.020 A 
HETATM   19  C12 UNL     1      26.669   4.886  48.947  1.00  0.00     0.116 A 
HETATM   20  N3  UNL     1      27.196   3.803  49.579  1.00  0.00    -0.272 NA
HETATM   21  C13 UNL     1      26.428   3.019  50.365  1.00  0.00     0.130 A 
ENDBRANCH   5  16
TORSDOF 3
ENDMDL
MODEL 6
REMARK VINA RESULT:      -7.7      3.889      6.287
REMARK  3 active torsions:
REMARK  status: ('A' for Active; 'I' for Inactive)
REMARK    1  A    between atoms: C5_6  and  N1_7 
REMARK    2  A    between atoms: N1_7  and  C6_8 
REMARK    3  A    between atoms: C8_12  and  C9_13 
ROOT
HETATM    1  C6  UNL     1      25.568   3.146  50.670  1.00  0.00     0.727 A 
HETATM    2  N2  UNL     1      24.439   3.573  51.234  1.00  0.00    -0.074 NA
HETATM    3  C7  UNL     1      23.943   3.248  52.427  1.00  0.00     0.154 A 
HETATM    4  P1  UNL     1      24.955   2.127  53.279  1.00  0.00     0.021 P 
HETATM    5  C8  UNL     1      26.375   1.690  52.385  1.00  0.00     0.101 A 
HETATM    6  N4  UNL     1      26.432   2.297  51.200  1.00  0.00    -0.061 NA
ENDROOT
BRANCH   1   7
HETATM    7  N1  UNL     1      25.931   3.621  49.362  1.00  0.00    -0.188 N 
HETATM    8  H4  UNL     1      25.665   3.043  48.505  1.00  0.00     0.184 HD
BRANCH   7   9
HETATM    9  C5  UNL     1      26.624   4.792  48.965  1.00  0.00     0.051 A 
HETATM   10  C4  UNL     1      26.018   6.050  48.907  1.00  0.00     0.030 A 
HETATM   11  C3  UNL     1      26.691   7.178  48.523  1.00  0.00     0.004 A 
HETATM   12  C2  UNL     1      28.015   7.149  48.167  1.00  0.00     0.024 A 
HETATM   13  C1  UNL     1      28.657   5.936  48.206  1.00  0.00     0.036 A 
HETATM   14 CL1  UNL     1      30.342   5.919  47.749  1.00  0.00    -0.084 Cl
HETATM   15  C14 UNL     1      27.950   4.830  48.596  1.00  0.00     0.053 A 
ENDBRANCH   7   9
ENDBRANCH   1   7
BRANCH   5  16
HETATM   16  C9  UNL     1      27.426   0.760  52.842  1.00  0.00     0.012 A 
HETATM   17  C10 UNL     1      27.452  -0.620  52.756  1.00  0.00     0.017 A 
HETATM   18  C11 UNL     1      28.566  -1.260  53.264  1.00  0.00     0.020 A 
HETATM   19  C12 UNL     1      29.612  -0.563  53.833  1.00  0.00     0.116 A 
HETATM   20  N3  UNL     1      29.552   0.794  53.901  1.00  0.00    -0.272 NA
HETATM   21  C13 UNL     1      28.484   1.464  53.417  1.00  0.00     0.130 A 
ENDBRANCH   5  16
TORSDOF 3
ENDMDL
MODEL 7
REMARK VINA RESULT:      -7.6      3.268      4.788
REMARK  3 active torsions:
REMARK  status: ('A' for Active; 'I' for Inactive)
REMARK    1  A    between atoms: C5_6  and  N1_7 
REMARK    2  A    between atoms: N1_7  and  C6_8 
REMARK    3  A    between atoms: C8_12  and  C9_13 
ROOT
HETATM    1  C6  UNL     1      26.512   1.481  51.905  1.00  0.00     0.727 A 
HETATM    2  N2  UNL     1      27.626   1.522  52.636  1.00  0.00    -0.074 NA
HETATM    3  C7  UNL     1      27.824   1.032  53.859  1.00  0.00     0.154 A 
HETATM    4  P1  UNL     1      26.406   0.268  54.502  1.00  0.00     0.021 P 
HETATM    5  C8  UNL     1      25.062   0.318  53.406  1.00  0.00     0.101 A 
HETATM    6  N4  UNL     1      25.364   0.935  52.265  1.00  0.00    -0.061 NA
ENDROOT
BRANCH   1   7
HETATM    7  N1  UNL     1      26.502   2.073  50.594  1.00  0.00    -0.188 N 
HETATM    8  H4  UNL     1      26.735   1.468  49.747  1.00  0.00     0.184 HD
BRANCH   7   9
HETATM    9  C5  UNL     1      26.222   3.401  50.184  1.00  0.00     0.051 A 
HETATM   10  C4  UNL     1      26.984   4.077  49.228  1.00  0.00     0.030 A 
HETATM   11  C3  UNL     1      26.711   5.359  48.835  1.00  0.00     0.004 A 
HETATM   12  C2  UNL     1      25.661   6.070  49.358  1.00  0.00     0.024 A 
HETATM   13  C1  UNL     1      24.880   5.451  50.302  1.00  0.00     0.036 A 
HETATM   14 CL1  UNL     1      23.549   6.372  50.955  1.00  0.00    -0.084 Cl
HETATM   15  C14 UNL     1      25.186   4.167  50.669  1.00  0.00     0.053 A 
ENDBRANCH   7   9
ENDBRANCH   1   7
BRANCH   5  16
HETATM   16  C9  UNL     1      23.722  -0.246  53.664  1.00  0.00     0.012 A 
HETATM   17  C10 UNL     1      22.579  -0.139  52.893  1.00  0.00     0.017 A 
HETATM   18  C11 UNL     1      21.443  -0.768  53.364  1.00  0.00     0.020 A 
HETATM   19  C12 UNL     1      21.438  -1.474  54.549  1.00  0.00     0.116 A 
HETATM   20  N3  UNL     1      22.580  -1.558  55.282  1.00  0.00    -0.272 NA
HETATM   21  C13 UNL     1      23.716  -0.960  54.863  1.00  0.00     0.130 A 
ENDBRANCH   5  16
TORSDOF 3
ENDMDL
MODEL 8
REMARK VINA RESULT:      -7.6      4.603      6.621
REMARK  3 active torsions:
REMARK  status: ('A' for Active; 'I' for Inactive)
REMARK    1  A    between atoms: C5_6  and  N1_7 
REMARK    2  A    between atoms: N1_7  and  C6_8 
REMARK    3  A    between atoms: C8_12  and  C9_13 
ROOT
HETATM    1  C6  UNL     1      26.251   3.571  50.020  1.00  0.00     0.727 A 
HETATM    2  N2  UNL     1      24.983   3.964  50.144  1.00  0.00    -0.074 NA
HETATM    3  C7  UNL     1      24.120   3.659  51.112  1.00  0.00     0.154 A 
HETATM    4  P1  UNL     1      24.814   2.618  52.313  1.00  0.00     0.021 P 
HETATM    5  C8  UNL     1      26.468   2.217  51.978  1.00  0.00     0.101 A 
HETATM    6  N4  UNL     1      26.907   2.783  50.854  1.00  0.00    -0.061 NA
ENDROOT
BRANCH   1   7
HETATM    7  N1  UNL     1      27.023   4.014  48.891  1.00  0.00    -0.188 N 
HETATM    8  H4  UNL     1      27.241   3.326  48.106  1.00  0.00     0.184 HD
BRANCH   7   9
HETATM    9  C5  UNL     1      27.591   5.281  48.603  1.00  0.00     0.051 A 
HETATM   10  C4  UNL     1      28.927   5.446  48.228  1.00  0.00     0.030 A 
HETATM   11  C3  UNL     1      29.471   6.671  47.951  1.00  0.00     0.004 A 
HETATM   12  C2  UNL     1      28.735   7.826  48.021  1.00  0.00     0.024 A 
HETATM   13  C1  UNL     1      27.415   7.718  48.385  1.00  0.00     0.036 A 
HETATM   14 CL1  UNL     1      26.494   9.199  48.470  1.00  0.00    -0.084 Cl
HETATM   15  C14 UNL     1      26.907   6.475  48.655  1.00  0.00     0.053 A 
ENDBRANCH   7   9
ENDBRANCH   1   7
BRANCH   5  16
HETATM   16  C9  UNL     1      27.329   1.354  52.811  1.00  0.00     0.012 A 
HETATM   17  C10 UNL     1      27.415  -0.026  52.819  1.00  0.00     0.017 A 
HETATM   18  C11 UNL     1      28.311  -0.594  53.704  1.00  0.00     0.020 A 
HETATM   19  C12 UNL     1      29.089   0.172  54.547  1.00  0.00     0.116 A 
HETATM   20  N3  UNL     1      28.977   1.527  54.512  1.00  0.00    -0.272 NA
HETATM   21  C13 UNL     1      28.116   2.129  53.663  1.00  0.00     0.130 A 
ENDBRANCH   5  16
TORSDOF 3
ENDMDL
MODEL 9
REMARK VINA RESULT:      -7.6      2.871      5.586
REMARK  3 active torsions:
REMARK  status: ('A' for Active; 'I' for Inactive)
REMARK    1  A    between atoms: C5_6  and  N1_7 
REMARK    2  A    between atoms: N1_7  and  C6_8 
REMARK    3  A    between atoms: C8_12  and  C9_13 
ROOT
HETATM    1  C6  UNL     1      24.145   1.856  51.473  1.00  0.00     0.727 A 
HETATM    2  N2  UNL     1      22.946   1.476  51.032  1.00  0.00    -0.074 NA
HETATM    3  C7  UNL     1      22.298   1.898  49.946  1.00  0.00     0.154 A 
HETATM    4  P1  UNL     1      23.200   3.085  49.060  1.00  0.00     0.021 P 
HETATM    5  C8  UNL     1      24.731   3.448  49.789  1.00  0.00     0.101 A 
HETATM    6  N4  UNL     1      24.939   2.746  50.902  1.00  0.00    -0.061 NA
ENDROOT
BRANCH   1   7
HETATM    7  N1  UNL     1      24.673   1.276  52.678  1.00  0.00    -0.188 N 
HETATM    8  H4  UNL     1      24.050   1.208  53.541  1.00  0.00     0.184 HD
BRANCH   7   9
HETATM    9  C5  UNL     1      25.956   0.741  52.958  1.00  0.00     0.051 A 
HETATM   10  C4  UNL     1      26.321  -0.567  52.632  1.00  0.00     0.030 A 
HETATM   11  C3  UNL     1      27.560  -1.080  52.905  1.00  0.00     0.004 A 
HETATM   12  C2  UNL     1      28.533  -0.337  53.522  1.00  0.00     0.024 A 
HETATM   13  C1  UNL     1      28.226   0.956  53.865  1.00  0.00     0.036 A 
HETATM   14 CL1  UNL     1      29.477   1.886  54.649  1.00  0.00    -0.084 Cl
HETATM   15  C14 UNL     1      26.974   1.433  53.574  1.00  0.00     0.053 A 
ENDBRANCH   7   9
ENDBRANCH   1   7
BRANCH   5  16
HETATM   16  C9  UNL     1      25.722   4.413  49.273  1.00  0.00     0.012 A 
HETATM   17  C10 UNL     1      27.079   4.232  49.077  1.00  0.00     0.017 A 
HETATM   18  C11 UNL     1      27.789   5.307  48.575  1.00  0.00     0.020 A 
HETATM   19  C12 UNL     1      27.181   6.509  48.280  1.00  0.00     0.116 A 
HETATM   20  N3  UNL     1      25.844   6.650  48.486  1.00  0.00    -0.272 NA
HETATM   21  C13 UNL     1      25.108   5.629  48.974  1.00  0.00     0.130 A 
ENDBRANCH   5  16
TORSDOF 3
ENDMDL
