MODEL 1
REMARK VINA RESULT:      -9.9      0.000      0.000
REMARK  4 active torsions:
REMARK  status: ('A' for Active; 'I' for Inactive)
REMARK    1  A    between atoms: C2_2  and  C3_3 
REMARK    2  A    between atoms: C12_13  and  N1_14 
REMARK    3  A    between atoms: N1_14  and  C13_15 
REMARK    4  A    between atoms: C16_19  and  C17_20 
ROOT
HETATM    1  C3  UNL     1      28.377   0.458  53.058  1.00  0.00    -0.009 C 
HETATM    2  C4  UNL     1      27.030   0.520  53.106  1.00  0.00     0.028 C 
HETATM    3  C5  UNL     1      26.344   1.054  51.909  1.00  0.00     0.018 C 
HETATM    4  C6  UNL     1      25.060   1.088  51.620  1.00  0.00     0.017 C 
HETATM    5  C7  UNL     1      23.947   0.604  52.411  1.00  0.00     0.020 A 
HETATM    6  C8  UNL     1      23.897  -0.057  53.642  1.00  0.00     0.047 A 
HETATM    7  C9  UNL     1      22.729  -0.429  54.277  1.00  0.00     0.032 A 
HETATM    8  C10 UNL     1      21.529  -0.138  53.682  1.00  0.00     0.028 A 
HETATM    9  C11 UNL     1      21.548   0.520  52.455  1.00  0.00     0.062 A 
HETATM   10 CL1  UNL     1      20.025   0.907  51.673  1.00  0.00    -0.082 Cl
HETATM   11  C12 UNL     1      22.728   0.884  51.832  1.00  0.00     0.083 A 
HETATM   12  N5  UNL     1      25.008  -0.460  54.458  1.00  0.00    -0.322 N 
HETATM   13  C22 UNL     1      26.327   0.101  54.315  1.00  0.00     0.255 C 
HETATM   14  O1  UNL     1      26.986   0.263  55.385  1.00  0.00    -0.267 OA
HETATM   15  H16 UNL     1      24.916  -1.180  55.203  1.00  0.00     0.169 HD
ENDROOT
BRANCH  11  16
HETATM   16  N1  UNL     1      22.783   1.533  50.553  1.00  0.00    -0.185 N 
HETATM   17  H9  UNL     1      22.708   1.230  49.559  1.00  0.00     0.184 HD
BRANCH  16  18
HETATM   18  C13 UNL     1      22.993   2.879  51.046  1.00  0.00     0.727 A 
HETATM   19  N2  UNL     1      22.304   3.504  52.031  1.00  0.00    -0.075 NA
HETATM   20  C14 UNL     1      22.602   4.777  52.390  1.00  0.00     0.139 A 
HETATM   21  C15 UNL     1      23.633   5.427  51.721  1.00  0.00     0.053 A 
HETATM   22  C16 UNL     1      24.326   4.790  50.725  1.00  0.00     0.089 A 
HETATM   23  N4  UNL     1      24.004   3.512  50.387  1.00  0.00    -0.062 NA
BRANCH  22  24
HETATM   24  C17 UNL     1      25.410   5.423  50.001  1.00  0.00     0.011 A 
HETATM   25  C18 UNL     1      26.337   4.683  49.290  1.00  0.00     0.017 A 
HETATM   26  C19 UNL     1      27.387   5.238  48.592  1.00  0.00     0.020 A 
HETATM   27  C20 UNL     1      27.540   6.631  48.591  1.00  0.00     0.116 A 
HETATM   28  N3  UNL     1      26.643   7.398  49.283  1.00  0.00    -0.272 NA
HETATM   29  C21 UNL     1      25.630   6.773  49.950  1.00  0.00     0.130 A 
ENDBRANCH  22  24
ENDBRANCH  16  18
ENDBRANCH  11  16
BRANCH   1  30
HETATM   30  C2  UNL     1      29.343  -0.024  54.071  1.00  0.00    -0.005 C 
HETATM   31  C1  UNL     1      29.881  -1.256  53.803  1.00  0.00     0.037 C 
ENDBRANCH   1  30
TORSDOF 4
ENDMDL
MODEL 2
REMARK VINA RESULT:      -9.7      2.294      5.777
REMARK  4 active torsions:
REMARK  status: ('A' for Active; 'I' for Inactive)
REMARK    1  A    between atoms: C2_2  and  C3_3 
REMARK    2  A    between atoms: C12_13  and  N1_14 
REMARK    3  A    between atoms: N1_14  and  C13_15 
REMARK    4  A    between atoms: C16_19  and  C17_20 
ROOT
HETATM    1  C3  UNL     1      27.613   4.827  48.587  1.00  0.00    -0.009 C 
HETATM    2  C4  UNL     1      26.429   4.683  49.217  1.00  0.00     0.028 C 
HETATM    3  C5  UNL     1      25.820   3.335  49.190  1.00  0.00     0.018 C 
HETATM    4  C6  UNL     1      24.769   2.873  49.835  1.00  0.00     0.017 C 
HETATM    5  C7  UNL     1      23.906   3.572  50.765  1.00  0.00     0.020 A 
HETATM    6  C8  UNL     1      23.946   4.873  51.275  1.00  0.00     0.047 A 
HETATM    7  C9  UNL     1      23.012   5.395  52.147  1.00  0.00     0.032 A 
HETATM    8  C10 UNL     1      21.967   4.604  52.550  1.00  0.00     0.028 A 
HETATM    9  C11 UNL     1      21.901   3.303  52.058  1.00  0.00     0.062 A 
HETATM   10 CL1  UNL     1      20.572   2.271  52.556  1.00  0.00    -0.082 Cl
HETATM   11  C12 UNL     1      22.848   2.796  51.186  1.00  0.00     0.083 A 
HETATM   12  N5  UNL     1      24.927   5.885  50.999  1.00  0.00    -0.322 N 
HETATM   13  C22 UNL     1      25.800   5.836  49.854  1.00  0.00     0.255 C 
HETATM   14  O1  UNL     1      26.070   6.946  49.308  1.00  0.00    -0.267 OA
HETATM   15  H16 UNL     1      25.056   6.714  51.613  1.00  0.00     0.169 HD
ENDROOT
BRANCH  11  16
HETATM   16  N1  UNL     1      22.827   1.451  50.687  1.00  0.00    -0.185 N 
HETATM   17  H9  UNL     1      22.607   0.996  49.775  1.00  0.00     0.184 HD
BRANCH  16  18
HETATM   18  C13 UNL     1      23.239   0.800  51.914  1.00  0.00     0.727 A 
HETATM   19  N2  UNL     1      22.498  -0.031  52.686  1.00  0.00    -0.075 NA
HETATM   20  C14 UNL     1      23.010  -0.569  53.821  1.00  0.00     0.139 A 
HETATM   21  C15 UNL     1      24.314  -0.246  54.175  1.00  0.00     0.053 A 
HETATM   22  C16 UNL     1      25.059   0.595  53.390  1.00  0.00     0.089 A 
HETATM   23  N4  UNL     1      24.519   1.119  52.257  1.00  0.00    -0.062 NA
BRANCH  22  24
HETATM   24  C17 UNL     1      26.424   0.959  53.714  1.00  0.00     0.011 A 
HETATM   25  C18 UNL     1      27.064   2.009  53.081  1.00  0.00     0.017 A 
HETATM   26  C19 UNL     1      28.361   2.389  53.350  1.00  0.00     0.020 A 
HETATM   27  C20 UNL     1      29.088   1.682  54.317  1.00  0.00     0.116 A 
HETATM   28  N3  UNL     1      28.490   0.637  54.965  1.00  0.00    -0.272 NA
HETATM   29  C21 UNL     1      27.201   0.322  54.642  1.00  0.00     0.130 A 
ENDBRANCH  22  24
ENDBRANCH  16  18
ENDBRANCH  11  16
BRANCH   1  30
HETATM   30  C2  UNL     1      28.471   6.025  48.439  1.00  0.00    -0.005 C 
HETATM   31  C1  UNL     1      29.757   5.758  48.047  1.00  0.00     0.037 C 
ENDBRANCH   1  30
TORSDOF 4
ENDMDL
MODEL 3
REMARK VINA RESULT:      -9.7      1.274      1.677
REMARK  4 active torsions:
REMARK  status: ('A' for Active; 'I' for Inactive)
REMARK    1  A    between atoms: C2_2  and  C3_3 
REMARK    2  A    between atoms: C12_13  and  N1_14 
REMARK    3  A    between atoms: N1_14  and  C13_15 
REMARK    4  A    between atoms: C16_19  and  C17_20 
ROOT
HETATM    1  C3  UNL     1      27.916   1.568  54.042  1.00  0.00    -0.009 C 
HETATM    2  C4  UNL     1      26.594   1.321  53.934  1.00  0.00     0.028 C 
HETATM    3  C5  UNL     1      25.745   2.435  53.458  1.00  0.00     0.018 C 
HETATM    4  C6  UNL     1      24.473   2.438  53.118  1.00  0.00     0.017 C 
HETATM    5  C7  UNL     1      23.540   1.329  53.117  1.00  0.00     0.020 A 
HETATM    6  C8  UNL     1      23.704  -0.027  53.417  1.00  0.00     0.047 A 
HETATM    7  C9  UNL     1      22.684  -0.957  53.390  1.00  0.00     0.032 A 
HETATM    8  C10 UNL     1      21.420  -0.545  53.054  1.00  0.00     0.028 A 
HETATM    9  C11 UNL     1      21.228   0.800  52.750  1.00  0.00     0.062 A 
HETATM   10 CL1  UNL     1      19.618   1.352  52.319  1.00  0.00    -0.082 Cl
HETATM   11  C12 UNL     1      22.262   1.718  52.779  1.00  0.00     0.083 A 
HETATM   12  N5  UNL     1      24.918  -0.691  53.800  1.00  0.00    -0.322 N 
HETATM   13  C22 UNL     1      26.067   0.012  54.309  1.00  0.00     0.255 C 
HETATM   14  O1  UNL     1      26.726  -0.575  55.217  1.00  0.00    -0.267 OA
HETATM   15  H16 UNL     1      25.029  -1.723  53.735  1.00  0.00     0.169 HD
ENDROOT
BRANCH  11  16
HETATM   16  N1  UNL     1      22.103   3.103  52.440  1.00  0.00    -0.185 N 
HETATM   17  H9  UNL     1      21.843   3.972  52.953  1.00  0.00     0.184 HD
BRANCH  16  18
HETATM   18  C13 UNL     1      22.434   2.981  51.035  1.00  0.00     0.727 A 
HETATM   19  N2  UNL     1      21.809   2.209  50.113  1.00  0.00    -0.075 NA
HETATM   20  C14 UNL     1      22.231   2.184  48.825  1.00  0.00     0.139 A 
HETATM   21  C15 UNL     1      23.321   2.969  48.471  1.00  0.00     0.053 A 
HETATM   22  C16 UNL     1      23.949   3.748  49.408  1.00  0.00     0.089 A 
HETATM   23  N4  UNL     1      23.504   3.753  50.693  1.00  0.00    -0.062 NA
BRANCH  22  24
HETATM   24  C17 UNL     1      25.087   4.587  49.088  1.00  0.00     0.011 A 
HETATM   25  C18 UNL     1      26.383   4.108  49.158  1.00  0.00     0.017 A 
HETATM   26  C19 UNL     1      27.496   4.867  48.870  1.00  0.00     0.020 A 
HETATM   27  C20 UNL     1      27.325   6.203  48.482  1.00  0.00     0.116 A 
HETATM   28  N3  UNL     1      26.059   6.713  48.401  1.00  0.00    -0.272 NA
HETATM   29  C21 UNL     1      25.007   5.897  48.703  1.00  0.00     0.130 A 
ENDBRANCH  22  24
ENDBRANCH  16  18
ENDBRANCH  11  16
BRANCH   1  30
HETATM   30  C2  UNL     1      29.017   0.677  54.476  1.00  0.00    -0.005 C 
HETATM   31  C1  UNL     1      29.677   0.049  53.451  1.00  0.00     0.037 C 
ENDBRANCH   1  30
TORSDOF 4
ENDMDL
MODEL 4
REMARK VINA RESULT:      -9.0      3.015      6.329
REMARK  4 active torsions:
REMARK  status: ('A' for Active; 'I' for Inactive)
REMARK    1  A    between atoms: C2_2  and  C3_3 
REMARK    2  A    between atoms: C12_13  and  N1_14 
REMARK    3  A    between atoms: N1_14  and  C13_15 
REMARK    4  A    between atoms: C16_19  and  C17_20 
ROOT
HETATM    1  C3  UNL     1      27.843  -0.297  53.473  1.00  0.00    -0.009 C 
HETATM    2  C4  UNL     1      26.864   0.574  53.152  1.00  0.00     0.028 C 
HETATM    3  C5  UNL     1      25.780   0.067  52.281  1.00  0.00     0.018 C 
HETATM    4  C6  UNL     1      24.642   0.633  51.938  1.00  0.00     0.017 C 
HETATM    5  C7  UNL     1      24.130   1.931  52.327  1.00  0.00     0.020 A 
HETATM    6  C8  UNL     1      24.638   2.915  53.180  1.00  0.00     0.047 A 
HETATM    7  C9  UNL     1      24.023   4.127  53.421  1.00  0.00     0.032 A 
HETATM    8  C10 UNL     1      22.837   4.406  52.791  1.00  0.00     0.028 A 
HETATM    9  C11 UNL     1      22.307   3.443  51.936  1.00  0.00     0.062 A 
HETATM   10 CL1  UNL     1      20.792   3.777  51.115  1.00  0.00    -0.082 Cl
HETATM   11  C12 UNL     1      22.937   2.233  51.707  1.00  0.00     0.083 A 
HETATM   12  N5  UNL     1      25.855   2.862  53.940  1.00  0.00    -0.322 N 
HETATM   13  C22 UNL     1      26.927   1.949  53.638  1.00  0.00     0.255 C 
HETATM   14  O1  UNL     1      28.102   2.388  53.811  1.00  0.00    -0.267 OA
HETATM   15  H16 UNL     1      26.029   3.490  54.751  1.00  0.00     0.169 HD
ENDROOT
BRANCH  11  16
HETATM   16  N1  UNL     1      22.401   1.208  50.858  1.00  0.00    -0.185 N 
HETATM   17  H9  UNL     1      22.561   0.891  49.878  1.00  0.00     0.184 HD
BRANCH  16  18
HETATM   18  C13 UNL     1      21.467   0.653  51.818  1.00  0.00     0.727 A 
HETATM   19  N2  UNL     1      21.718   0.336  53.111  1.00  0.00    -0.075 NA
HETATM   20  C14 UNL     1      20.748  -0.187  53.900  1.00  0.00     0.139 A 
HETATM   21  C15 UNL     1      19.488  -0.391  53.351  1.00  0.00     0.053 A 
HETATM   22  C16 UNL     1      19.240  -0.069  52.042  1.00  0.00     0.089 A 
HETATM   23  N4  UNL     1      20.233   0.455  51.274  1.00  0.00    -0.062 NA
BRANCH  22  24
HETATM   24  C17 UNL     1      17.943  -0.259  51.424  1.00  0.00     0.011 A 
HETATM   25  C18 UNL     1      16.881  -0.806  52.121  1.00  0.00     0.017 A 
HETATM   26  C19 UNL     1      15.633  -1.013  51.577  1.00  0.00     0.020 A 
HETATM   27  C20 UNL     1      15.407  -0.654  50.241  1.00  0.00     0.116 A 
HETATM   28  N3  UNL     1      16.432  -0.109  49.518  1.00  0.00    -0.272 NA
HETATM   29  C21 UNL     1      17.640   0.064  50.129  1.00  0.00     0.130 A 
ENDBRANCH  22  24
ENDBRANCH  16  18
ENDBRANCH  11  16
BRANCH   1  30
HETATM   30  C2  UNL     1      29.045  -0.106  54.316  1.00  0.00    -0.005 C 
HETATM   31  C1  UNL     1      30.162  -0.764  53.871  1.00  0.00     0.037 C 
ENDBRANCH   1  30
TORSDOF 4
ENDMDL
MODEL 5
REMARK VINA RESULT:      -8.9      2.527      5.786
REMARK  4 active torsions:
REMARK  status: ('A' for Active; 'I' for Inactive)
REMARK    1  A    between atoms: C2_2  and  C3_3 
REMARK    2  A    between atoms: C12_13  and  N1_14 
REMARK    3  A    between atoms: N1_14  and  C13_15 
REMARK    4  A    between atoms: C16_19  and  C17_20 
ROOT
HETATM    1  C3  UNL     1      26.638   0.917  54.273  1.00  0.00    -0.009 C 
HETATM    2  C4  UNL     1      26.020   1.627  53.306  1.00  0.00     0.028 C 
HETATM    3  C5  UNL     1      24.930   2.530  53.735  1.00  0.00     0.018 C 
HETATM    4  C6  UNL     1      24.268   3.436  53.047  1.00  0.00     0.017 C 
HETATM    5  C7  UNL     1      24.429   3.803  51.655  1.00  0.00     0.020 A 
HETATM    6  C8  UNL     1      25.324   3.365  50.674  1.00  0.00     0.047 A 
HETATM    7  C9  UNL     1      25.321   3.809  49.367  1.00  0.00     0.032 A 
HETATM    8  C10 UNL     1      24.388   4.738  48.984  1.00  0.00     0.028 A 
HETATM    9  C11 UNL     1      23.485   5.193  49.940  1.00  0.00     0.062 A 
HETATM   10 CL1  UNL     1      22.278   6.380  49.474  1.00  0.00    -0.082 Cl
HETATM   11  C12 UNL     1      23.503   4.738  51.247  1.00  0.00     0.083 A 
HETATM   12  N5  UNL     1      26.376   2.401  50.826  1.00  0.00    -0.322 N 
HETATM   13  C22 UNL     1      26.421   1.456  51.913  1.00  0.00     0.255 C 
HETATM   14  O1  UNL     1      26.867   0.304  51.635  1.00  0.00    -0.267 OA
HETATM   15  H16 UNL     1      27.165   2.330  50.152  1.00  0.00     0.169 HD
ENDROOT
BRANCH  11  16
HETATM   16  N1  UNL     1      22.608   5.211  52.264  1.00  0.00    -0.185 N 
HETATM   17  H9  UNL     1      22.653   5.919  53.027  1.00  0.00     0.184 HD
BRANCH  16  18
HETATM   18  C13 UNL     1      21.487   4.359  51.924  1.00  0.00     0.727 A 
HETATM   19  N2  UNL     1      20.441   4.667  51.119  1.00  0.00    -0.075 NA
HETATM   20  C14 UNL     1      19.450   3.770  50.892  1.00  0.00     0.139 A 
HETATM   21  C15 UNL     1      19.531   2.526  51.506  1.00  0.00     0.053 A 
HETATM   22  C16 UNL     1      20.591   2.220  52.319  1.00  0.00     0.089 A 
HETATM   23  N4  UNL     1      21.571   3.140  52.529  1.00  0.00    -0.062 NA
BRANCH  22  24
HETATM   24  C17 UNL     1      20.722   0.937  52.979  1.00  0.00     0.011 A 
HETATM   25  C18 UNL     1      21.920   0.526  53.535  1.00  0.00     0.017 A 
HETATM   26  C19 UNL     1      22.096  -0.686  54.166  1.00  0.00     0.020 A 
HETATM   27  C20 UNL     1      21.010  -1.566  54.259  1.00  0.00     0.116 A 
HETATM   28  N3  UNL     1      19.808  -1.197  53.722  1.00  0.00    -0.272 NA
HETATM   29  C21 UNL     1      19.714   0.021  53.113  1.00  0.00     0.130 A 
ENDBRANCH  22  24
ENDBRANCH  16  18
ENDBRANCH  11  16
BRANCH   1  30
HETATM   30  C2  UNL     1      27.752  -0.053  54.175  1.00  0.00    -0.005 C 
HETATM   31  C1  UNL     1      28.976   0.448  54.539  1.00  0.00     0.037 C 
ENDBRANCH   1  30
TORSDOF 4
ENDMDL
MODEL 6
REMARK VINA RESULT:      -8.9      2.300      6.215
REMARK  4 active torsions:
REMARK  status: ('A' for Active; 'I' for Inactive)
REMARK    1  A    between atoms: C2_2  and  C3_3 
REMARK    2  A    between atoms: C12_13  and  N1_14 
REMARK    3  A    between atoms: N1_14  and  C13_15 
REMARK    4  A    between atoms: C16_19  and  C17_20 
ROOT
HETATM    1  C3  UNL     1      24.831   6.730  50.960  1.00  0.00    -0.009 C 
HETATM    2  C4  UNL     1      24.174   5.562  50.812  1.00  0.00     0.028 C 
HETATM    3  C5  UNL     1      23.255   5.171  51.903  1.00  0.00     0.018 C 
HETATM    4  C6  UNL     1      22.387   4.183  51.960  1.00  0.00     0.017 C 
HETATM    5  C7  UNL     1      22.089   3.189  50.948  1.00  0.00     0.020 A 
HETATM    6  C8  UNL     1      22.572   3.009  49.649  1.00  0.00     0.047 A 
HETATM    7  C9  UNL     1      22.194   1.975  48.816  1.00  0.00     0.032 A 
HETATM    8  C10 UNL     1      21.289   1.052  49.274  1.00  0.00     0.028 A 
HETATM    9  C11 UNL     1      20.791   1.207  50.564  1.00  0.00     0.062 A 
HETATM   10 CL1  UNL     1      19.634   0.036  51.175  1.00  0.00    -0.082 Cl
HETATM   11  C12 UNL     1      21.179   2.250  51.385  1.00  0.00     0.083 A 
HETATM   12  N5  UNL     1      23.523   3.830  48.954  1.00  0.00    -0.322 N 
HETATM   13  C22 UNL     1      24.412   4.740  49.629  1.00  0.00     0.255 C 
HETATM   14  O1  UNL     1      25.575   4.853  49.141  1.00  0.00    -0.267 OA
HETATM   15  H16 UNL     1      23.624   3.806  47.919  1.00  0.00     0.169 HD
ENDROOT
BRANCH  11  16
HETATM   16  N1  UNL     1      20.660   2.456  52.706  1.00  0.00    -0.185 N 
HETATM   17  H9  UNL     1      20.080   3.184  53.175  1.00  0.00     0.184 HD
BRANCH  16  18
HETATM   18  C13 UNL     1      21.207   1.254  53.302  1.00  0.00     0.727 A 
HETATM   19  N2  UNL     1      20.534   0.313  54.007  1.00  0.00    -0.075 NA
HETATM   20  C14 UNL     1      21.176  -0.766  54.518  1.00  0.00     0.139 A 
HETATM   21  C15 UNL     1      22.543  -0.885  54.301  1.00  0.00     0.053 A 
HETATM   22  C16 UNL     1      23.219   0.070  53.587  1.00  0.00     0.089 A 
HETATM   23  N4  UNL     1      22.548   1.142  53.087  1.00  0.00    -0.062 NA
BRANCH  22  24
HETATM   24  C17 UNL     1      24.643  -0.010  53.332  1.00  0.00     0.011 A 
HETATM   25  C18 UNL     1      25.238   0.704  52.308  1.00  0.00     0.017 A 
HETATM   26  C19 UNL     1      26.585   0.657  52.022  1.00  0.00     0.020 A 
HETATM   27  C20 UNL     1      27.416  -0.157  52.804  1.00  0.00     0.116 A 
HETATM   28  N3  UNL     1      26.866  -0.879  53.827  1.00  0.00    -0.272 NA
HETATM   29  C21 UNL     1      25.522  -0.778  54.047  1.00  0.00     0.130 A 
ENDBRANCH  22  24
ENDBRANCH  16  18
ENDBRANCH  11  16
BRANCH   1  30
HETATM   30  C2  UNL     1      25.800   7.396  50.060  1.00  0.00    -0.005 C 
HETATM   31  C1  UNL     1      25.557   8.729  49.849  1.00  0.00     0.037 C 
ENDBRANCH   1  30
TORSDOF 4
ENDMDL
MODEL 7
REMARK VINA RESULT:      -8.8      2.889      3.327
REMARK  4 active torsions:
REMARK  status: ('A' for Active; 'I' for Inactive)
REMARK    1  A    between atoms: C2_2  and  C3_3 
REMARK    2  A    between atoms: C12_13  and  N1_14 
REMARK    3  A    between atoms: N1_14  and  C13_15 
REMARK    4  A    between atoms: C16_19  and  C17_20 
ROOT
HETATM    1  C3  UNL     1      27.567  -0.209  52.673  1.00  0.00    -0.009 C 
HETATM    2  C4  UNL     1      26.292   0.206  52.810  1.00  0.00     0.028 C 
HETATM    3  C5  UNL     1      25.914   1.446  52.097  1.00  0.00     0.018 C 
HETATM    4  C6  UNL     1      24.727   1.992  51.929  1.00  0.00     0.017 C 
HETATM    5  C7  UNL     1      23.444   1.519  52.406  1.00  0.00     0.020 A 
HETATM    6  C8  UNL     1      23.080   0.371  53.116  1.00  0.00     0.047 A 
HETATM    7  C9  UNL     1      21.791   0.084  53.520  1.00  0.00     0.032 A 
HETATM    8  C10 UNL     1      20.789   0.970  53.220  1.00  0.00     0.028 A 
HETATM    9  C11 UNL     1      21.122   2.122  52.513  1.00  0.00     0.062 A 
HETATM   10 CL1  UNL     1      19.858   3.273  52.118  1.00  0.00    -0.082 Cl
HETATM   11  C12 UNL     1      22.419   2.393  52.114  1.00  0.00     0.083 A 
HETATM   12  N5  UNL     1      23.942  -0.692  53.551  1.00  0.00    -0.322 N 
HETATM   13  C22 UNL     1      25.371  -0.546  53.658  1.00  0.00     0.255 C 
HETATM   14  O1  UNL     1      25.925  -1.149  54.624  1.00  0.00    -0.267 OA
HETATM   15  H16 UNL     1      23.576  -1.628  53.818  1.00  0.00     0.169 HD
ENDROOT
BRANCH  11  16
HETATM   16  N1  UNL     1      22.790   3.554  51.356  1.00  0.00    -0.185 N 
HETATM   17  H9  UNL     1      23.194   4.489  51.574  1.00  0.00     0.184 HD
BRANCH  16  18
HETATM   18  C13 UNL     1      22.420   3.041  50.052  1.00  0.00     0.727 A 
HETATM   19  N2  UNL     1      22.065   1.770  49.746  1.00  0.00    -0.075 NA
HETATM   20  C14 UNL     1      21.747   1.423  48.474  1.00  0.00     0.139 A 
HETATM   21  C15 UNL     1      21.795   2.403  47.491  1.00  0.00     0.053 A 
HETATM   22  C16 UNL     1      22.155   3.687  47.807  1.00  0.00     0.089 A 
HETATM   23  N4  UNL     1      22.468   4.006  49.091  1.00  0.00    -0.062 NA
BRANCH  22  24
HETATM   24  C17 UNL     1      22.217   4.745  46.818  1.00  0.00     0.011 A 
HETATM   25  C18 UNL     1      22.696   6.004  47.132  1.00  0.00     0.017 A 
HETATM   26  C19 UNL     1      22.769   7.042  46.230  1.00  0.00     0.020 A 
HETATM   27  C20 UNL     1      22.336   6.829  44.914  1.00  0.00     0.116 A 
HETATM   28  N3  UNL     1      21.855   5.598  44.564  1.00  0.00    -0.272 NA
HETATM   29  C21 UNL     1      21.816   4.620  45.516  1.00  0.00     0.130 A 
ENDBRANCH  22  24
ENDBRANCH  16  18
ENDBRANCH  11  16
BRANCH   1  30
HETATM   30  C2  UNL     1      28.248  -1.394  53.243  1.00  0.00    -0.005 C 
HETATM   31  C1  UNL     1      29.585  -1.220  53.486  1.00  0.00     0.037 C 
ENDBRANCH   1  30
TORSDOF 4
ENDMDL
MODEL 8
REMARK VINA RESULT:      -8.7      3.032      7.034
REMARK  4 active torsions:
REMARK  status: ('A' for Active; 'I' for Inactive)
REMARK    1  A    between atoms: C2_2  and  C3_3 
REMARK    2  A    between atoms: C12_13  and  N1_14 
REMARK    3  A    between atoms: N1_14  and  C13_15 
REMARK    4  A    between atoms: C16_19  and  C17_20 
ROOT
HETATM    1  C3  UNL     1      29.726   6.234  47.991  1.00  0.00    -0.009 C 
HETATM    2  C4  UNL     1      28.427   6.099  48.327  1.00  0.00     0.028 C 
HETATM    3  C5  UNL     1      27.946   4.725  48.588  1.00  0.00     0.018 C 
HETATM    4  C6  UNL     1      26.792   4.314  49.073  1.00  0.00     0.017 C 
HETATM    5  C7  UNL     1      25.657   5.113  49.490  1.00  0.00     0.020 A 
HETATM    6  C8  UNL     1      25.463   6.496  49.548  1.00  0.00     0.047 A 
HETATM    7  C9  UNL     1      24.288   7.099  49.953  1.00  0.00     0.032 A 
HETATM    8  C10 UNL     1      23.230   6.308  50.322  1.00  0.00     0.028 A 
HETATM    9  C11 UNL     1      23.396   4.927  50.274  1.00  0.00     0.062 A 
HETATM   10 CL1  UNL     1      22.056   3.893  50.740  1.00  0.00    -0.082 Cl
HETATM   11  C12 UNL     1      24.581   4.340  49.868  1.00  0.00     0.083 A 
HETATM   12  N5  UNL     1      26.408   7.522  49.208  1.00  0.00    -0.322 N 
HETATM   13  C22 UNL     1      27.567   7.276  48.388  1.00  0.00     0.255 C 
HETATM   14  O1  UNL     1      27.899   8.208  47.596  1.00  0.00    -0.267 OA
HETATM   15  H16 UNL     1      26.302   8.504  49.535  1.00  0.00     0.169 HD
ENDROOT
BRANCH  11  16
HETATM   16  N1  UNL     1      24.794   2.921  49.839  1.00  0.00    -0.185 N 
HETATM   17  H9  UNL     1      24.800   2.182  49.104  1.00  0.00     0.184 HD
BRANCH  16  18
HETATM   18  C13 UNL     1      25.030   2.748  51.258  1.00  0.00     0.727 A 
HETATM   19  N2  UNL     1      24.417   3.403  52.273  1.00  0.00    -0.075 NA
HETATM   20  C14 UNL     1      24.741   3.146  53.565  1.00  0.00     0.139 A 
HETATM   21  C15 UNL     1      25.720   2.193  53.822  1.00  0.00     0.053 A 
HETATM   22  C16 UNL     1      26.336   1.533  52.791  1.00  0.00     0.089 A 
HETATM   23  N4  UNL     1      25.989   1.812  51.506  1.00  0.00    -0.062 NA
BRANCH  22  24
HETATM   24  C17 UNL     1      27.359   0.530  53.008  1.00  0.00     0.011 A 
HETATM   25  C18 UNL     1      28.658   0.876  53.330  1.00  0.00     0.017 A 
HETATM   26  C19 UNL     1      29.665  -0.039  53.541  1.00  0.00     0.020 A 
HETATM   27  C20 UNL     1      29.375  -1.405  53.426  1.00  0.00     0.116 A 
HETATM   28  N3  UNL     1      28.101  -1.789  53.109  1.00  0.00    -0.272 NA
HETATM   29  C21 UNL     1      27.159  -0.821  52.916  1.00  0.00     0.130 A 
ENDBRANCH  22  24
ENDBRANCH  16  18
ENDBRANCH  11  16
BRANCH   1  30
HETATM   30  C2  UNL     1      30.505   7.454  47.679  1.00  0.00    -0.005 C 
HETATM   31  C1  UNL     1      31.830   7.229  47.406  1.00  0.00     0.037 C 
ENDBRANCH   1  30
TORSDOF 4
ENDMDL
MODEL 9
REMARK VINA RESULT:      -8.6      2.451      3.331
REMARK  4 active torsions:
REMARK  status: ('A' for Active; 'I' for Inactive)
REMARK    1  A    between atoms: C2_2  and  C3_3 
REMARK    2  A    between atoms: C12_13  and  N1_14 
REMARK    3  A    between atoms: N1_14  and  C13_15 
REMARK    4  A    between atoms: C16_19  and  C17_20 
ROOT
HETATM    1  C3  UNL     1      28.500   0.454  53.147  1.00  0.00    -0.009 C 
HETATM    2  C4  UNL     1      27.152   0.503  53.138  1.00  0.00     0.028 C 
HETATM    3  C5  UNL     1      26.517   1.148  51.967  1.00  0.00     0.018 C 
HETATM    4  C6  UNL     1      25.248   1.203  51.622  1.00  0.00     0.017 C 
HETATM    5  C7  UNL     1      24.104   0.637  52.308  1.00  0.00     0.020 A 
HETATM    6  C8  UNL     1      24.003  -0.143  53.464  1.00  0.00     0.047 A 
HETATM    7  C9  UNL     1      22.811  -0.583  54.003  1.00  0.00     0.032 A 
HETATM    8  C10 UNL     1      21.637  -0.241  53.382  1.00  0.00     0.028 A 
HETATM    9  C11 UNL     1      21.707   0.534  52.228  1.00  0.00     0.062 A 
HETATM   10 CL1  UNL     1      20.218   0.987  51.417  1.00  0.00    -0.082 Cl
HETATM   11  C12 UNL     1      22.911   0.965  51.701  1.00  0.00     0.083 A 
HETATM   12  N5  UNL     1      25.079  -0.618  54.288  1.00  0.00    -0.322 N 
HETATM   13  C22 UNL     1      26.397  -0.038  54.264  1.00  0.00     0.255 C 
HETATM   14  O1  UNL     1      27.003   0.022  55.375  1.00  0.00    -0.267 OA
HETATM   15  H16 UNL     1      24.960  -1.408  54.954  1.00  0.00     0.169 HD
ENDROOT
BRANCH  11  16
HETATM   16  N1  UNL     1      23.018   1.737  50.496  1.00  0.00    -0.185 N 
HETATM   17  H9  UNL     1      23.239   1.535  49.498  1.00  0.00     0.184 HD
BRANCH  16  18
HETATM   18  C13 UNL     1      22.706   3.025  51.082  1.00  0.00     0.727 A 
HETATM   19  N2  UNL     1      23.132   3.504  52.276  1.00  0.00    -0.075 NA
HETATM   20  C14 UNL     1      22.754   4.732  52.708  1.00  0.00     0.139 A 
HETATM   21  C15 UNL     1      21.918   5.489  51.897  1.00  0.00     0.053 A 
HETATM   22  C16 UNL     1      21.490   4.999  50.690  1.00  0.00     0.089 A 
HETATM   23  N4  UNL     1      21.886   3.764  50.283  1.00  0.00    -0.062 NA
BRANCH  22  24
HETATM   24  C17 UNL     1      20.621   5.752  49.808  1.00  0.00     0.011 A 
HETATM   25  C18 UNL     1      20.506   7.127  49.902  1.00  0.00     0.017 A 
HETATM   26  C19 UNL     1      19.690   7.885  49.092  1.00  0.00     0.020 A 
HETATM   27  C20 UNL     1      18.925   7.242  48.109  1.00  0.00     0.116 A 
HETATM   28  N3  UNL     1      19.011   5.883  47.983  1.00  0.00    -0.272 NA
HETATM   29  C21 UNL     1      19.843   5.203  48.825  1.00  0.00     0.130 A 
ENDBRANCH  22  24
ENDBRANCH  16  18
ENDBRANCH  11  16
BRANCH   1  30
HETATM   30  C2  UNL     1      29.422  -0.120  54.153  1.00  0.00    -0.005 C 
HETATM   31  C1  UNL     1      30.045  -1.276  53.760  1.00  0.00     0.037 C 
ENDBRANCH   1  30
TORSDOF 4
ENDMDL
