MODEL 1
REMARK VINA RESULT:      -9.1      0.000      0.000
REMARK  4 active torsions:
REMARK  status: ('A' for Active; 'I' for Inactive)
REMARK    1  A    between atoms: C3_3  and  C4_4 
REMARK       I    between atoms: C4_4  and  N1_6 
REMARK    2  A    between atoms: C11_16  and  N4_17 
REMARK    3  A    between atoms: N4_17  and  C12_18 
REMARK    4  A    between atoms: C12_18  and  C14_20 
ROOT
HETATM    1  C1  UNL     1      17.035  -1.975  53.094  1.00  0.00     0.112 C 
HETATM    2  C2  UNL     1      18.434  -1.657  53.423  1.00  0.00    -0.101 C 
HETATM    3  C3  UNL     1      19.588  -1.414  53.698  1.00  0.00    -0.006 C 
ENDROOT
BRANCH   3   4
HETATM    4  C4  UNL     1      20.951  -1.131  54.047  1.00  0.00     0.298 C 
HETATM    5  O1  UNL     1      21.528  -1.601  55.061  1.00  0.00    -0.258 OA
HETATM    6  N1  UNL     1      21.734  -0.286  53.243  1.00  0.00    -0.336 N 
HETATM    7  C5  UNL     1      23.104   0.028  53.547  1.00  0.00     0.132 C 
HETATM    8  C21 UNL     1      21.252   0.359  52.023  1.00  0.00     0.173 C 
HETATM    9  C6  UNL     1      23.863   0.070  52.201  1.00  0.00     0.060 C 
HETATM   10  C7  UNL     1      23.589   1.388  51.609  1.00  0.00    -0.025 A 
HETATM   11  C8  UNL     1      22.160   1.407  51.573  1.00  0.00     0.010 A 
HETATM   12  C20 UNL     1      24.214   2.505  51.124  1.00  0.00     0.053 A 
HETATM   13  S1  UNL     1      21.790   3.018  50.849  1.00  0.00    -0.072 SA
HETATM   14  C9  UNL     1      23.452   3.542  50.648  1.00  0.00     0.114 A 
HETATM   15  N2  UNL     1      23.907   4.678  50.150  1.00  0.00    -0.234 NA
HETATM   16  C10 UNL     1      25.227   4.901  50.075  1.00  0.00     0.236 A 
HETATM   17  N3  UNL     1      25.970   3.903  50.533  1.00  0.00    -0.224 NA
HETATM   18  C11 UNL     1      25.567   2.738  51.045  1.00  0.00     0.139 A 
BRANCH  18  19
HETATM   19  N4  UNL     1      26.598   1.849  51.453  1.00  0.00    -0.366 N 
HETATM   20  H9  UNL     1      27.057   1.022  51.063  1.00  0.00     0.161 HD
BRANCH  19  21
HETATM   21  C12 UNL     1      27.270   2.030  52.711  1.00  0.00     0.112 C 
HETATM   22  C13 UNL     1      26.320   2.167  53.889  1.00  0.00     0.037 C 
BRANCH  21  23
HETATM   23  C14 UNL     1      28.125   0.831  53.040  1.00  0.00    -0.036 A 
HETATM   24  C15 UNL     1      27.445  -0.349  52.724  1.00  0.00     0.009 A 
HETATM   25  C16 UNL     1      28.050  -1.566  52.947  1.00  0.00     0.001 A 
HETATM   26  C17 UNL     1      29.307  -1.642  53.473  1.00  0.00     0.000 A 
HETATM   27  C18 UNL     1      29.956  -0.467  53.777  1.00  0.00     0.001 A 
HETATM   28  C19 UNL     1      29.388   0.767  53.570  1.00  0.00     0.009 A 
ENDBRANCH  21  23
ENDBRANCH  19  21
ENDBRANCH  18  19
ENDBRANCH   3   4
TORSDOF 4
ENDMDL
MODEL 2
REMARK VINA RESULT:      -8.9      2.927      8.147
REMARK  4 active torsions:
REMARK  status: ('A' for Active; 'I' for Inactive)
REMARK    1  A    between atoms: C3_3  and  C4_4 
REMARK       I    between atoms: C4_4  and  N1_6 
REMARK    2  A    between atoms: C11_16  and  N4_17 
REMARK    3  A    between atoms: N4_17  and  C12_18 
REMARK    4  A    between atoms: C12_18  and  C14_20 
ROOT
HETATM    1  C1  UNL     1      29.222   5.556  48.057  1.00  0.00     0.112 C 
HETATM    2  C2  UNL     1      27.876   5.282  48.586  1.00  0.00    -0.101 C 
HETATM    3  C3  UNL     1      26.776   5.057  49.038  1.00  0.00    -0.006 C 
ENDROOT
BRANCH   3   4
HETATM    4  C4  UNL     1      25.481   4.769  49.584  1.00  0.00     0.298 C 
HETATM    5  O1  UNL     1      24.465   5.486  49.398  1.00  0.00    -0.258 OA
HETATM    6  N1  UNL     1      25.278   3.629  50.382  1.00  0.00    -0.336 N 
HETATM    7  C5  UNL     1      24.001   3.295  50.951  1.00  0.00     0.132 C 
HETATM    8  C21 UNL     1      26.328   2.669  50.717  1.00  0.00     0.173 C 
HETATM    9  C6  UNL     1      23.863   1.758  50.868  1.00  0.00     0.060 C 
HETATM   10  C7  UNL     1      24.622   1.208  52.000  1.00  0.00    -0.025 A 
HETATM   11  C8  UNL     1      25.918   1.777  51.793  1.00  0.00     0.010 A 
HETATM   12  C20 UNL     1      24.493   0.396  53.095  1.00  0.00     0.053 A 
HETATM   13  S1  UNL     1      26.878   1.119  53.173  1.00  0.00    -0.072 SA
HETATM   14  C9  UNL     1      25.584   0.186  53.902  1.00  0.00     0.114 A 
HETATM   15  N2  UNL     1      25.617  -0.568  54.986  1.00  0.00    -0.234 NA
HETATM   16  C10 UNL     1      24.514  -1.214  55.391  1.00  0.00     0.236 A 
HETATM   17  N3  UNL     1      23.456  -1.016  54.618  1.00  0.00    -0.224 NA
HETATM   18  C11 UNL     1      23.366  -0.269  53.514  1.00  0.00     0.139 A 
BRANCH  18  19
HETATM   19  N4  UNL     1      22.093  -0.247  52.882  1.00  0.00    -0.366 N 
HETATM   20  H9  UNL     1      21.698  -0.599  52.006  1.00  0.00     0.161 HD
BRANCH  19  21
HETATM   21  C12 UNL     1      20.969   0.391  53.511  1.00  0.00     0.112 C 
HETATM   22  C13 UNL     1      20.674   1.775  52.959  1.00  0.00     0.037 C 
BRANCH  21  23
HETATM   23  C14 UNL     1      19.704  -0.397  53.276  1.00  0.00    -0.036 A 
HETATM   24  C15 UNL     1      18.935   0.210  52.279  1.00  0.00     0.009 A 
HETATM   25  C16 UNL     1      17.733  -0.352  51.908  1.00  0.00     0.001 A 
HETATM   26  C17 UNL     1      17.278  -1.496  52.497  1.00  0.00     0.000 A 
HETATM   27  C18 UNL     1      18.052  -2.074  53.477  1.00  0.00     0.001 A 
HETATM   28  C19 UNL     1      19.256  -1.546  53.876  1.00  0.00     0.009 A 
ENDBRANCH  21  23
ENDBRANCH  19  21
ENDBRANCH  18  19
ENDBRANCH   3   4
TORSDOF 4
ENDMDL
MODEL 3
REMARK VINA RESULT:      -8.7      2.710      6.232
REMARK  4 active torsions:
REMARK  status: ('A' for Active; 'I' for Inactive)
REMARK    1  A    between atoms: C3_3  and  C4_4 
REMARK       I    between atoms: C4_4  and  N1_6 
REMARK    2  A    between atoms: C11_16  and  N4_17 
REMARK    3  A    between atoms: N4_17  and  C12_18 
REMARK    4  A    between atoms: C12_18  and  C14_20 
ROOT
HETATM    1  C1  UNL     1      26.140   8.952  48.485  1.00  0.00     0.112 C 
HETATM    2  C2  UNL     1      26.428   7.521  48.671  1.00  0.00    -0.101 C 
HETATM    3  C3  UNL     1      26.656   6.344  48.841  1.00  0.00    -0.006 C 
ENDROOT
BRANCH   3   4
HETATM    4  C4  UNL     1      26.940   4.955  49.062  1.00  0.00     0.298 C 
HETATM    5  O1  UNL     1      27.927   4.353  48.567  1.00  0.00    -0.258 OA
HETATM    6  N1  UNL     1      26.099   4.173  49.872  1.00  0.00    -0.336 N 
HETATM    7  C5  UNL     1      26.339   2.778  50.126  1.00  0.00     0.132 C 
HETATM    8  C21 UNL     1      24.902   4.683  50.539  1.00  0.00     0.173 C 
HETATM    9  C6  UNL     1      25.965   2.522  51.603  1.00  0.00     0.060 C 
HETATM   10  C7  UNL     1      24.502   2.378  51.644  1.00  0.00    -0.025 A 
HETATM   11  C8  UNL     1      24.066   3.601  51.045  1.00  0.00     0.010 A 
HETATM   12  C20 UNL     1      23.511   1.519  52.038  1.00  0.00     0.053 A 
HETATM   13  S1  UNL     1      22.268   3.456  51.080  1.00  0.00    -0.072 SA
HETATM   14  C9  UNL     1      22.201   1.876  51.840  1.00  0.00     0.114 A 
HETATM   15  N2  UNL     1      21.140   1.160  52.166  1.00  0.00    -0.234 NA
HETATM   16  C10 UNL     1      21.290  -0.039  52.748  1.00  0.00     0.236 A 
HETATM   17  N3  UNL     1      22.553  -0.391  52.943  1.00  0.00    -0.224 NA
HETATM   18  C11 UNL     1      23.659   0.291  52.636  1.00  0.00     0.139 A 
BRANCH  18  19
HETATM   19  N4  UNL     1      24.889  -0.338  52.970  1.00  0.00    -0.366 N 
HETATM   20  H9  UNL     1      25.500  -1.038  52.542  1.00  0.00     0.161 HD
BRANCH  19  21
HETATM   21  C12 UNL     1      25.578  -0.008  54.188  1.00  0.00     0.112 C 
HETATM   22  C13 UNL     1      25.220  -0.919  55.350  1.00  0.00     0.037 C 
BRANCH  21  23
HETATM   23  C14 UNL     1      27.069  -0.163  54.020  1.00  0.00    -0.036 A 
HETATM   24  C15 UNL     1      27.356  -1.316  53.283  1.00  0.00     0.009 A 
HETATM   25  C16 UNL     1      28.666  -1.646  53.013  1.00  0.00     0.001 A 
HETATM   26  C17 UNL     1      29.694  -0.864  53.454  1.00  0.00     0.000 A 
HETATM   27  C18 UNL     1      29.387   0.266  54.177  1.00  0.00     0.001 A 
HETATM   28  C19 UNL     1      28.095   0.630  54.468  1.00  0.00     0.009 A 
ENDBRANCH  21  23
ENDBRANCH  19  21
ENDBRANCH  18  19
ENDBRANCH   3   4
TORSDOF 4
ENDMDL
MODEL 4
REMARK VINA RESULT:      -8.5      3.494      7.109
REMARK  4 active torsions:
REMARK  status: ('A' for Active; 'I' for Inactive)
REMARK    1  A    between atoms: C3_3  and  C4_4 
REMARK       I    between atoms: C4_4  and  N1_6 
REMARK    2  A    between atoms: C11_16  and  N4_17 
REMARK    3  A    between atoms: N4_17  and  C12_18 
REMARK    4  A    between atoms: C12_18  and  C14_20 
ROOT
HETATM    1  C1  UNL     1      28.071   7.310  47.882  1.00  0.00     0.112 C 
HETATM    2  C2  UNL     1      27.402   6.127  48.449  1.00  0.00    -0.101 C 
HETATM    3  C3  UNL     1      26.862   5.158  48.932  1.00  0.00    -0.006 C 
ENDROOT
BRANCH   3   4
HETATM    4  C4  UNL     1      26.243   3.998  49.507  1.00  0.00     0.298 C 
HETATM    5  O1  UNL     1      26.813   2.883  49.624  1.00  0.00    -0.258 OA
HETATM    6  N1  UNL     1      24.923   4.055  49.984  1.00  0.00    -0.336 N 
HETATM    7  C5  UNL     1      24.257   2.923  50.570  1.00  0.00     0.132 C 
HETATM    8  C21 UNL     1      24.089   5.254  49.941  1.00  0.00     0.173 C 
HETATM    9  C6  UNL     1      23.408   3.461  51.744  1.00  0.00     0.060 C 
HETATM   10  C7  UNL     1      22.176   4.005  51.152  1.00  0.00    -0.025 A 
HETATM   11  C8  UNL     1      22.690   4.948  50.209  1.00  0.00     0.010 A 
HETATM   12  C20 UNL     1      20.812   3.902  51.213  1.00  0.00     0.053 A 
HETATM   13  S1  UNL     1      21.197   5.635  49.464  1.00  0.00    -0.072 SA
HETATM   14  C9  UNL     1      20.046   4.688  50.389  1.00  0.00     0.114 A 
HETATM   15  N2  UNL     1      18.727   4.704  50.332  1.00  0.00    -0.234 NA
HETATM   16  C10 UNL     1      18.008   3.898  51.129  1.00  0.00     0.236 A 
HETATM   17  N3  UNL     1      18.741   3.136  51.928  1.00  0.00    -0.224 NA
HETATM   18  C11 UNL     1      20.071   3.079  52.028  1.00  0.00     0.139 A 
BRANCH  18  19
HETATM   19  N4  UNL     1      20.583   2.162  52.985  1.00  0.00    -0.366 N 
HETATM   20  H9  UNL     1      21.005   2.225  53.915  1.00  0.00     0.161 HD
BRANCH  19  21
HETATM   21  C12 UNL     1      20.570   0.748  52.730  1.00  0.00     0.112 C 
HETATM   22  C13 UNL     1      20.885   0.392  51.287  1.00  0.00     0.037 C 
BRANCH  21  23
HETATM   23  C14 UNL     1      21.631   0.046  53.542  1.00  0.00    -0.036 A 
HETATM   24  C15 UNL     1      22.883   0.202  52.940  1.00  0.00     0.009 A 
HETATM   25  C16 UNL     1      23.996  -0.363  53.523  1.00  0.00     0.001 A 
HETATM   26  C17 UNL     1      23.899  -1.076  54.682  1.00  0.00     0.000 A 
HETATM   27  C18 UNL     1      22.655  -1.217  55.256  1.00  0.00     0.001 A 
HETATM   28  C19 UNL     1      21.521  -0.670  54.707  1.00  0.00     0.009 A 
ENDBRANCH  21  23
ENDBRANCH  19  21
ENDBRANCH  18  19
ENDBRANCH   3   4
TORSDOF 4
ENDMDL
MODEL 5
REMARK VINA RESULT:      -8.4      3.166      5.655
REMARK  4 active torsions:
REMARK  status: ('A' for Active; 'I' for Inactive)
REMARK    1  A    between atoms: C3_3  and  C4_4 
REMARK       I    between atoms: C4_4  and  N1_6 
REMARK    2  A    between atoms: C11_16  and  N4_17 
REMARK    3  A    between atoms: N4_17  and  C12_18 
REMARK    4  A    between atoms: C12_18  and  C14_20 
ROOT
HETATM    1  C1  UNL     1      19.337   9.202  49.753  1.00  0.00     0.112 C 
HETATM    2  C2  UNL     1      20.512   8.316  49.782  1.00  0.00    -0.101 C 
HETATM    3  C3  UNL     1      21.485   7.597  49.820  1.00  0.00    -0.006 C 
ENDROOT
BRANCH   3   4
HETATM    4  C4  UNL     1      22.652   6.764  49.860  1.00  0.00     0.298 C 
HETATM    5  O1  UNL     1      23.722   7.023  49.251  1.00  0.00    -0.258 OA
HETATM    6  N1  UNL     1      22.657   5.575  50.610  1.00  0.00    -0.336 N 
HETATM    7  C5  UNL     1      23.800   4.706  50.685  1.00  0.00     0.132 C 
HETATM    8  C21 UNL     1      21.517   5.096  51.389  1.00  0.00     0.173 C 
HETATM    9  C6  UNL     1      23.870   4.182  52.137  1.00  0.00     0.060 C 
HETATM   10  C7  UNL     1      22.902   3.079  52.229  1.00  0.00    -0.025 A 
HETATM   11  C8  UNL     1      21.692   3.709  51.802  1.00  0.00     0.010 A 
HETATM   12  C20 UNL     1      22.801   1.755  52.565  1.00  0.00     0.053 A 
HETATM   13  S1  UNL     1      20.479   2.376  51.904  1.00  0.00    -0.072 SA
HETATM   14  C9  UNL     1      21.580   1.135  52.472  1.00  0.00     0.114 A 
HETATM   15  N2  UNL     1      21.325  -0.128  52.761  1.00  0.00    -0.234 NA
HETATM   16  C10 UNL     1      22.308  -0.934  53.188  1.00  0.00     0.236 A 
HETATM   17  N3  UNL     1      23.491  -0.342  53.280  1.00  0.00    -0.224 NA
HETATM   18  C11 UNL     1      23.805   0.926  53.005  1.00  0.00     0.139 A 
BRANCH  18  19
HETATM   19  N4  UNL     1      25.165   1.286  53.203  1.00  0.00    -0.366 N 
HETATM   20  H9  UNL     1      25.715   1.705  53.957  1.00  0.00     0.161 HD
BRANCH  19  21
HETATM   21  C12 UNL     1      26.145   1.058  52.176  1.00  0.00     0.112 C 
HETATM   22  C13 UNL     1      26.839   2.328  51.713  1.00  0.00     0.037 C 
BRANCH  21  23
HETATM   23  C14 UNL     1      27.256   0.171  52.681  1.00  0.00    -0.036 A 
HETATM   24  C15 UNL     1      28.314   0.949  53.162  1.00  0.00     0.009 A 
HETATM   25  C16 UNL     1      29.437   0.333  53.672  1.00  0.00     0.001 A 
HETATM   26  C17 UNL     1      29.534  -1.027  53.718  1.00  0.00     0.000 A 
HETATM   27  C18 UNL     1      28.480  -1.771  53.238  1.00  0.00     0.001 A 
HETATM   28  C19 UNL     1      27.344  -1.196  52.721  1.00  0.00     0.009 A 
ENDBRANCH  21  23
ENDBRANCH  19  21
ENDBRANCH  18  19
ENDBRANCH   3   4
TORSDOF 4
ENDMDL
MODEL 6
REMARK VINA RESULT:      -8.3      2.552      7.002
REMARK  4 active torsions:
REMARK  status: ('A' for Active; 'I' for Inactive)
REMARK    1  A    between atoms: C3_3  and  C4_4 
REMARK       I    between atoms: C4_4  and  N1_6 
REMARK    2  A    between atoms: C11_16  and  N4_17 
REMARK    3  A    between atoms: N4_17  and  C12_18 
REMARK    4  A    between atoms: C12_18  and  C14_20 
ROOT
HETATM    1  C1  UNL     1      30.123  -1.990  53.641  1.00  0.00     0.112 C 
HETATM    2  C2  UNL     1      29.336  -0.747  53.694  1.00  0.00    -0.101 C 
HETATM    3  C3  UNL     1      28.679   0.268  53.752  1.00  0.00    -0.006 C 
ENDROOT
BRANCH   3   4
HETATM    4  C4  UNL     1      27.881   1.458  53.817  1.00  0.00     0.298 C 
HETATM    5  O1  UNL     1      28.307   2.568  54.228  1.00  0.00    -0.258 OA
HETATM    6  N1  UNL     1      26.536   1.440  53.410  1.00  0.00    -0.336 N 
HETATM    7  C5  UNL     1      25.693   2.604  53.455  1.00  0.00     0.132 C 
HETATM    8  C21 UNL     1      25.852   0.253  52.903  1.00  0.00     0.173 C 
HETATM    9  C6  UNL     1      24.802   2.560  52.193  1.00  0.00     0.060 C 
HETATM   10  C7  UNL     1      23.702   1.631  52.491  1.00  0.00    -0.025 A 
HETATM   11  C8  UNL     1      24.407   0.442  52.855  1.00  0.00     0.010 A 
HETATM   12  C20 UNL     1      22.336   1.551  52.528  1.00  0.00     0.053 A 
HETATM   13  S1  UNL     1      23.080  -0.722  53.229  1.00  0.00    -0.072 SA
HETATM   14  C9  UNL     1      21.746   0.369  52.902  1.00  0.00     0.114 A 
HETATM   15  N2  UNL     1      20.449   0.138  52.983  1.00  0.00    -0.234 NA
HETATM   16  C10 UNL     1      19.571   1.108  52.688  1.00  0.00     0.236 A 
HETATM   17  N3  UNL     1      20.132   2.253  52.326  1.00  0.00    -0.224 NA
HETATM   18  C11 UNL     1      21.432   2.542  52.225  1.00  0.00     0.139 A 
BRANCH  18  19
HETATM   19  N4  UNL     1      21.743   3.863  51.805  1.00  0.00    -0.366 N 
HETATM   20  H9  UNL     1      21.963   4.751  52.263  1.00  0.00     0.161 HD
BRANCH  19  21
HETATM   21  C12 UNL     1      21.812   4.195  50.408  1.00  0.00     0.112 C 
HETATM   22  C13 UNL     1      20.742   5.180  49.968  1.00  0.00     0.037 C 
BRANCH  21  23
HETATM   23  C14 UNL     1      23.120   4.873  50.081  1.00  0.00    -0.036 A 
HETATM   24  C15 UNL     1      23.381   5.890  51.004  1.00  0.00     0.009 A 
HETATM   25  C16 UNL     1      24.532   6.639  50.887  1.00  0.00     0.001 A 
HETATM   26  C17 UNL     1      25.425   6.404  49.883  1.00  0.00     0.000 A 
HETATM   27  C18 UNL     1      25.146   5.398  48.986  1.00  0.00     0.001 A 
HETATM   28  C19 UNL     1      24.010   4.629  49.067  1.00  0.00     0.009 A 
ENDBRANCH  21  23
ENDBRANCH  19  21
ENDBRANCH  18  19
ENDBRANCH   3   4
TORSDOF 4
ENDMDL
MODEL 7
REMARK VINA RESULT:      -8.1      2.707      7.141
REMARK  4 active torsions:
REMARK  status: ('A' for Active; 'I' for Inactive)
REMARK    1  A    between atoms: C3_3  and  C4_4 
REMARK       I    between atoms: C4_4  and  N1_6 
REMARK    2  A    between atoms: C11_16  and  N4_17 
REMARK    3  A    between atoms: N4_17  and  C12_18 
REMARK    4  A    between atoms: C12_18  and  C14_20 
ROOT
HETATM    1  C1  UNL     1      29.809  -2.035  53.373  1.00  0.00     0.112 C 
HETATM    2  C2  UNL     1      29.025  -0.797  53.521  1.00  0.00    -0.101 C 
HETATM    3  C3  UNL     1      28.374   0.214  53.660  1.00  0.00    -0.006 C 
ENDROOT
BRANCH   3   4
HETATM    4  C4  UNL     1      27.582   1.399  53.823  1.00  0.00     0.298 C 
HETATM    5  O1  UNL     1      28.022   2.479  54.294  1.00  0.00    -0.258 OA
HETATM    6  N1  UNL     1      26.226   1.409  53.451  1.00  0.00    -0.336 N 
HETATM    7  C5  UNL     1      25.389   2.570  53.593  1.00  0.00     0.132 C 
HETATM    8  C21 UNL     1      25.526   0.259  52.885  1.00  0.00     0.173 C 
HETATM    9  C6  UNL     1      24.466   2.610  52.353  1.00  0.00     0.060 C 
HETATM   10  C7  UNL     1      23.371   1.665  52.619  1.00  0.00    -0.025 A 
HETATM   11  C8  UNL     1      24.081   0.453  52.886  1.00  0.00     0.010 A 
HETATM   12  C20 UNL     1      22.006   1.585  52.685  1.00  0.00     0.053 A 
HETATM   13  S1  UNL     1      22.760  -0.730  53.217  1.00  0.00    -0.072 SA
HETATM   14  C9  UNL     1      21.422   0.383  52.996  1.00  0.00     0.114 A 
HETATM   15  N2  UNL     1      20.126   0.149  53.096  1.00  0.00    -0.234 NA
HETATM   16  C10 UNL     1      19.245   1.137  52.887  1.00  0.00     0.236 A 
HETATM   17  N3  UNL     1      19.800   2.303  52.586  1.00  0.00    -0.224 NA
HETATM   18  C11 UNL     1      21.098   2.595  52.471  1.00  0.00     0.139 A 
BRANCH  18  19
HETATM   19  N4  UNL     1      21.403   3.941  52.130  1.00  0.00    -0.366 N 
HETATM   20  H9  UNL     1      21.926   4.710  52.556  1.00  0.00     0.161 HD
BRANCH  19  21
HETATM   21  C12 UNL     1      20.934   4.512  50.897  1.00  0.00     0.112 C 
HETATM   22  C13 UNL     1      21.540   5.872  50.594  1.00  0.00     0.037 C 
BRANCH  21  23
HETATM   23  C14 UNL     1      21.318   3.647  49.723  1.00  0.00    -0.036 A 
HETATM   24  C15 UNL     1      22.694   3.734  49.488  1.00  0.00     0.009 A 
HETATM   25  C16 UNL     1      23.257   3.016  48.455  1.00  0.00     0.001 A 
HETATM   26  C17 UNL     1      22.493   2.218  47.654  1.00  0.00     0.000 A 
HETATM   27  C18 UNL     1      21.142   2.149  47.905  1.00  0.00     0.001 A 
HETATM   28  C19 UNL     1      20.542   2.848  48.924  1.00  0.00     0.009 A 
ENDBRANCH  21  23
ENDBRANCH  19  21
ENDBRANCH  18  19
ENDBRANCH   3   4
TORSDOF 4
ENDMDL
MODEL 8
REMARK VINA RESULT:      -8.0      3.351      6.998
REMARK  4 active torsions:
REMARK  status: ('A' for Active; 'I' for Inactive)
REMARK    1  A    between atoms: C3_3  and  C4_4 
REMARK       I    between atoms: C4_4  and  N1_6 
REMARK    2  A    between atoms: C11_16  and  N4_17 
REMARK    3  A    between atoms: N4_17  and  C12_18 
REMARK    4  A    between atoms: C12_18  and  C14_20 
ROOT
HETATM    1  C1  UNL     1      28.298   9.530  47.487  1.00  0.00     0.112 C 
HETATM    2  C2  UNL     1      28.230   8.101  47.835  1.00  0.00    -0.101 C 
HETATM    3  C3  UNL     1      28.179   6.922  48.103  1.00  0.00    -0.006 C 
ENDROOT
BRANCH   3   4
HETATM    4  C4  UNL     1      28.100   5.521  48.405  1.00  0.00     0.298 C 
HETATM    5  O1  UNL     1      29.043   4.709  48.221  1.00  0.00    -0.258 OA
HETATM    6  N1  UNL     1      26.923   4.970  48.941  1.00  0.00    -0.336 N 
HETATM    7  C5  UNL     1      26.793   3.575  49.262  1.00  0.00     0.132 C 
HETATM    8  C21 UNL     1      25.717   5.743  49.229  1.00  0.00     0.173 C 
HETATM    9  C6  UNL     1      25.972   3.491  50.568  1.00  0.00     0.060 C 
HETATM   10  C7  UNL     1      24.560   3.635  50.184  1.00  0.00    -0.025 A 
HETATM   11  C8  UNL     1      24.570   4.878  49.477  1.00  0.00     0.010 A 
HETATM   12  C20 UNL     1      23.345   3.011  50.279  1.00  0.00     0.053 A 
HETATM   13  S1  UNL     1      22.845   5.086  48.990  1.00  0.00    -0.072 SA
HETATM   14  C9  UNL     1      22.246   3.601  49.707  1.00  0.00     0.114 A 
HETATM   15  N2  UNL     1      21.014   3.125  49.715  1.00  0.00    -0.234 NA
HETATM   16  C10 UNL     1      20.746   1.960  50.323  1.00  0.00     0.236 A 
HETATM   17  N3  UNL     1      21.803   1.384  50.878  1.00  0.00    -0.224 NA
HETATM   18  C11 UNL     1      23.065   1.818  50.901  1.00  0.00     0.139 A 
BRANCH  18  19
HETATM   19  N4  UNL     1      23.995   0.986  51.581  1.00  0.00    -0.366 N 
HETATM   20  H9  UNL     1      24.610   0.208  51.331  1.00  0.00     0.161 HD
BRANCH  19  21
HETATM   21  C12 UNL     1      24.254   1.165  52.984  1.00  0.00     0.112 C 
HETATM   22  C13 UNL     1      23.392   0.285  53.873  1.00  0.00     0.037 C 
BRANCH  21  23
HETATM   23  C14 UNL     1      25.674   0.782  53.321  1.00  0.00    -0.036 A 
HETATM   24  C15 UNL     1      26.078  -0.309  52.545  1.00  0.00     0.009 A 
HETATM   25  C16 UNL     1      27.348  -0.821  52.695  1.00  0.00     0.001 A 
HETATM   26  C17 UNL     1      28.224  -0.281  53.591  1.00  0.00     0.000 A 
HETATM   27  C18 UNL     1      27.804   0.792  54.344  1.00  0.00     0.001 A 
HETATM   28  C19 UNL     1      26.546   1.332  54.225  1.00  0.00     0.009 A 
ENDBRANCH  21  23
ENDBRANCH  19  21
ENDBRANCH  18  19
ENDBRANCH   3   4
TORSDOF 4
ENDMDL
MODEL 9
REMARK VINA RESULT:      -8.0      2.795      7.649
REMARK  4 active torsions:
REMARK  status: ('A' for Active; 'I' for Inactive)
REMARK    1  A    between atoms: C3_3  and  C4_4 
REMARK       I    between atoms: C4_4  and  N1_6 
REMARK    2  A    between atoms: C11_16  and  N4_17 
REMARK    3  A    between atoms: N4_17  and  C12_18 
REMARK    4  A    between atoms: C12_18  and  C14_20 
ROOT
HETATM    1  C1  UNL     1      25.111   8.090  46.779  1.00  0.00     0.112 C 
HETATM    2  C2  UNL     1      24.480   7.499  47.970  1.00  0.00    -0.101 C 
HETATM    3  C3  UNL     1      23.945   7.013  48.941  1.00  0.00    -0.006 C 
ENDROOT
BRANCH   3   4
HETATM    4  C4  UNL     1      23.296   6.457  50.094  1.00  0.00     0.298 C 
HETATM    5  O1  UNL     1      22.414   7.057  50.761  1.00  0.00    -0.258 OA
HETATM    6  N1  UNL     1      23.628   5.170  50.550  1.00  0.00    -0.336 N 
HETATM    7  C5  UNL     1      23.008   4.567  51.698  1.00  0.00     0.132 C 
HETATM    8  C21 UNL     1      24.626   4.311  49.916  1.00  0.00     0.173 C 
HETATM    9  C6  UNL     1      22.814   3.070  51.367  1.00  0.00     0.060 C 
HETATM   10  C7  UNL     1      24.112   2.419  51.603  1.00  0.00    -0.025 A 
HETATM   11  C8  UNL     1      24.984   3.182  50.766  1.00  0.00     0.010 A 
HETATM   12  C20 UNL     1      24.698   1.403  52.309  1.00  0.00     0.053 A 
HETATM   13  S1  UNL     1      26.591   2.406  51.034  1.00  0.00    -0.072 SA
HETATM   14  C9  UNL     1      26.047   1.187  52.172  1.00  0.00     0.114 A 
HETATM   15  N2  UNL     1      26.752   0.251  52.782  1.00  0.00    -0.234 NA
HETATM   16  C10 UNL     1      26.153  -0.600  53.627  1.00  0.00     0.236 A 
HETATM   17  N3  UNL     1      24.850  -0.399  53.764  1.00  0.00    -0.224 NA
HETATM   18  C11 UNL     1      24.089   0.526  53.175  1.00  0.00     0.139 A 
BRANCH  18  19
HETATM   19  N4  UNL     1      22.708   0.501  53.511  1.00  0.00    -0.366 N 
HETATM   20  H9  UNL     1      22.028   1.165  53.890  1.00  0.00     0.161 HD
BRANCH  19  21
HETATM   21  C12 UNL     1      21.926  -0.690  53.322  1.00  0.00     0.112 C 
HETATM   22  C13 UNL     1      21.533  -1.366  54.625  1.00  0.00     0.037 C 
BRANCH  21  23
HETATM   23  C14 UNL     1      20.618  -0.372  52.641  1.00  0.00    -0.036 A 
HETATM   24  C15 UNL     1      19.554  -0.943  53.347  1.00  0.00     0.009 A 
HETATM   25  C16 UNL     1      18.264  -0.771  52.894  1.00  0.00     0.001 A 
HETATM   26  C17 UNL     1      18.005  -0.051  51.764  1.00  0.00     0.000 A 
HETATM   27  C18 UNL     1      19.068   0.501  51.086  1.00  0.00     0.001 A 
HETATM   28  C19 UNL     1      20.369   0.353  51.505  1.00  0.00     0.009 A 
ENDBRANCH  21  23
ENDBRANCH  19  21
ENDBRANCH  18  19
ENDBRANCH   3   4
TORSDOF 4
ENDMDL
