MODEL 1
REMARK VINA RESULT:      -7.0      0.000      0.000
REMARK  4 active torsions:
REMARK  status: ('A' for Active; 'I' for Inactive)
REMARK    1  A    between atoms: C3_3  and  N1_4 
REMARK    2  A    between atoms: N1_4  and  C5_6 
REMARK    3  A    between atoms: C11_15  and  C12_16 
REMARK    4  A    between atoms: C12_16  and  O1_19 
ROOT
HETATM    1  C5  UNL     1      21.404   1.024  52.589  1.00  0.00     0.161 A 
HETATM    2  N2  UNL     1      20.638  -0.023  53.026  1.00  0.00    -0.222 NA
HETATM    3  C6  UNL     1      21.259  -1.003  53.742  1.00  0.00     0.238 A 
HETATM    4  N3  UNL     1      22.558  -1.069  54.077  1.00  0.00    -0.215 NA
HETATM    5  C7  UNL     1      23.373  -0.046  53.666  1.00  0.00     0.201 A 
HETATM    6  C8  UNL     1      22.724   0.931  52.946  1.00  0.00     0.129 A 
HETATM    7  N4  UNL     1      23.584   2.016  52.542  1.00  0.00    -0.377 N 
HETATM    8  C9  UNL     1      24.812   2.329  53.252  1.00  0.00     0.185 C 
HETATM    9  C10 UNL     1      25.529   1.048  53.508  1.00  0.00     0.075 C 
HETATM   10  C11 UNL     1      26.815   0.788  53.375  1.00  0.00     0.071 C 
HETATM   11  O2  UNL     1      24.724   0.005  53.941  1.00  0.00    -0.293 OA
HETATM   12  H10 UNL     1      23.310   2.591  51.719  1.00  0.00     0.160 HD
ENDROOT
BRANCH  10  13
HETATM   13  C12 UNL     1      27.821  -0.255  53.515  1.00  0.00     0.066 C 
HETATM   14  C13 UNL     1      29.100   0.039  53.614  1.00  0.00     0.006 C 
HETATM   15  C14 UNL     1      30.081  -1.059  53.753  1.00  0.00     0.038 C 
BRANCH  13  16
HETATM   16  O1  UNL     1      27.113  -1.440  53.507  1.00  0.00    -0.356 OA
HETATM   17  C15 UNL     1      26.905  -2.234  52.362  1.00  0.00     0.210 C 
ENDBRANCH  13  16
ENDBRANCH  10  13
BRANCH   1  18
HETATM   18  N1  UNL     1      20.806   2.077  51.839  1.00  0.00    -0.344 N 
HETATM   19  C4  UNL     1      19.966   3.209  52.202  1.00  0.00     0.157 C 
BRANCH  18  20
HETATM   20  C3  UNL     1      21.191   1.860  50.494  1.00  0.00     0.088 C 
HETATM   21  C2  UNL     1      21.087   1.024  49.491  1.00  0.00    -0.014 C 
HETATM   22  C1  UNL     1      21.782   1.373  48.207  1.00  0.00     0.037 C 
ENDBRANCH  18  20
ENDBRANCH   1  18
TORSDOF 4
ENDMDL
MODEL 2
REMARK VINA RESULT:      -6.9      2.606      3.926
REMARK  4 active torsions:
REMARK  status: ('A' for Active; 'I' for Inactive)
REMARK    1  A    between atoms: C3_3  and  N1_4 
REMARK    2  A    between atoms: N1_4  and  C5_6 
REMARK    3  A    between atoms: C11_15  and  C12_16 
REMARK    4  A    between atoms: C12_16  and  O1_19 
ROOT
HETATM    1  C5  UNL     1      24.130   4.030  50.506  1.00  0.00     0.161 A 
HETATM    2  N2  UNL     1      24.832   4.804  49.620  1.00  0.00    -0.222 NA
HETATM    3  C6  UNL     1      26.138   4.482  49.401  1.00  0.00     0.238 A 
HETATM    4  N3  UNL     1      26.836   3.479  49.959  1.00  0.00    -0.215 NA
HETATM    5  C7  UNL     1      26.182   2.672  50.854  1.00  0.00     0.201 A 
HETATM    6  C8  UNL     1      24.866   3.016  51.058  1.00  0.00     0.129 A 
HETATM    7  N4  UNL     1      24.180   2.144  51.981  1.00  0.00    -0.377 N 
HETATM    8  C9  UNL     1      24.625   0.784  52.228  1.00  0.00     0.185 C 
HETATM    9  C10 UNL     1      26.104   0.813  52.406  1.00  0.00     0.075 C 
HETATM   10  C11 UNL     1      26.833   0.185  53.307  1.00  0.00     0.071 C 
HETATM   11  O2  UNL     1      26.784   1.612  51.499  1.00  0.00    -0.293 OA
HETATM   12  H10 UNL     1      23.340   2.504  52.477  1.00  0.00     0.160 HD
ENDROOT
BRANCH  10  13
HETATM   13  C12 UNL     1      28.197  -0.026  53.772  1.00  0.00     0.066 C 
HETATM   14  C13 UNL     1      28.883  -1.091  53.414  1.00  0.00     0.006 C 
HETATM   15  C14 UNL     1      30.265  -1.257  53.917  1.00  0.00     0.038 C 
BRANCH  13  16
HETATM   16  O1  UNL     1      28.477   1.065  54.570  1.00  0.00    -0.356 OA
HETATM   17  C15 UNL     1      29.062   2.259  54.105  1.00  0.00     0.210 C 
ENDBRANCH  13  16
ENDBRANCH  10  13
BRANCH   1  18
HETATM   18  N1  UNL     1      22.761   4.320  50.770  1.00  0.00    -0.344 N 
HETATM   19  C4  UNL     1      22.084   5.082  51.810  1.00  0.00     0.157 C 
BRANCH  18  20
HETATM   20  C3  UNL     1      22.026   3.688  49.738  1.00  0.00     0.088 C 
HETATM   21  C2  UNL     1      21.929   2.584  49.039  1.00  0.00    -0.014 C 
HETATM   22  C1  UNL     1      20.856   2.505  47.992  1.00  0.00     0.037 C 
ENDBRANCH  18  20
ENDBRANCH   1  18
TORSDOF 4
ENDMDL
MODEL 3
REMARK VINA RESULT:      -6.9      3.855      5.164
REMARK  4 active torsions:
REMARK  status: ('A' for Active; 'I' for Inactive)
REMARK    1  A    between atoms: C3_3  and  N1_4 
REMARK    2  A    between atoms: N1_4  and  C5_6 
REMARK    3  A    between atoms: C11_15  and  C12_16 
REMARK    4  A    between atoms: C12_16  and  O1_19 
ROOT
HETATM    1  C5  UNL     1      24.998   5.480  49.503  1.00  0.00     0.161 A 
HETATM    2  N2  UNL     1      25.978   6.019  48.712  1.00  0.00    -0.222 NA
HETATM    3  C6  UNL     1      27.167   5.356  48.642  1.00  0.00     0.238 A 
HETATM    4  N3  UNL     1      27.502   4.215  49.268  1.00  0.00    -0.215 NA
HETATM    5  C7  UNL     1      26.558   3.631  50.073  1.00  0.00     0.201 A 
HETATM    6  C8  UNL     1      25.367   4.318  50.127  1.00  0.00     0.129 A 
HETATM    7  N4  UNL     1      24.373   3.681  50.955  1.00  0.00    -0.377 N 
HETATM    8  C9  UNL     1      24.406   2.257  51.238  1.00  0.00     0.185 C 
HETATM    9  C10 UNL     1      25.808   1.894  51.587  1.00  0.00     0.075 C 
HETATM   10  C11 UNL     1      26.235   1.113  52.559  1.00  0.00     0.071 C 
HETATM   11  O2  UNL     1      26.777   2.462  50.773  1.00  0.00    -0.293 OA
HETATM   12  H10 UNL     1      23.609   4.263  51.355  1.00  0.00     0.160 HD
ENDROOT
BRANCH  10  13
HETATM   13  C12 UNL     1      27.431   0.555  53.177  1.00  0.00     0.066 C 
HETATM   14  C13 UNL     1      27.859  -0.650  52.868  1.00  0.00     0.006 C 
HETATM   15  C14 UNL     1      29.079  -1.168  53.526  1.00  0.00     0.038 C 
BRANCH  13  16
HETATM   16  O1  UNL     1      27.880   1.536  54.039  1.00  0.00    -0.356 OA
HETATM   17  C15 UNL     1      28.887   2.469  53.725  1.00  0.00     0.210 C 
ENDBRANCH  13  16
ENDBRANCH  10  13
BRANCH   1  18
HETATM   18  N1  UNL     1      23.736   6.131  49.610  1.00  0.00    -0.344 N 
HETATM   19  C4  UNL     1      23.147   7.009  50.611  1.00  0.00     0.157 C 
BRANCH  18  20
HETATM   20  C3  UNL     1      23.016   5.772  48.446  1.00  0.00     0.088 C 
HETATM   21  C2  UNL     1      22.696   4.761  47.676  1.00  0.00    -0.014 C 
HETATM   22  C1  UNL     1      21.832   5.032  46.479  1.00  0.00     0.037 C 
ENDBRANCH  18  20
ENDBRANCH   1  18
TORSDOF 4
ENDMDL
MODEL 4
REMARK VINA RESULT:      -6.8      3.407      7.207
REMARK  4 active torsions:
REMARK  status: ('A' for Active; 'I' for Inactive)
REMARK    1  A    between atoms: C3_3  and  N1_4 
REMARK    2  A    between atoms: N1_4  and  C5_6 
REMARK    3  A    between atoms: C11_15  and  C12_16 
REMARK    4  A    between atoms: C12_16  and  O1_19 
ROOT
HETATM    1  C5  UNL     1      26.535   1.239  52.985  1.00  0.00     0.161 A 
HETATM    2  N2  UNL     1      25.677   0.391  53.635  1.00  0.00    -0.222 NA
HETATM    3  C6  UNL     1      24.384   0.354  53.206  1.00  0.00     0.238 A 
HETATM    4  N3  UNL     1      23.836   1.062  52.205  1.00  0.00    -0.215 NA
HETATM    5  C7  UNL     1      24.649   1.926  51.519  1.00  0.00     0.201 A 
HETATM    6  C8  UNL     1      25.949   1.946  51.968  1.00  0.00     0.129 A 
HETATM    7  N4  UNL     1      26.802   2.839  51.222  1.00  0.00    -0.377 N 
HETATM    8  C9  UNL     1      26.497   3.233  49.858  1.00  0.00     0.185 C 
HETATM    9  C10 UNL     1      25.050   3.585  49.799  1.00  0.00     0.075 C 
HETATM   10  C11 UNL     1      24.481   4.609  49.194  1.00  0.00     0.071 C 
HETATM   11  O2  UNL     1      24.210   2.712  50.474  1.00  0.00    -0.293 OA
HETATM   12  H10 UNL     1      27.663   3.204  51.678  1.00  0.00     0.160 HD
ENDROOT
BRANCH  10  13
HETATM   13  C12 UNL     1      23.200   5.248  48.926  1.00  0.00     0.066 C 
HETATM   14  C13 UNL     1      22.538   5.010  47.814  1.00  0.00     0.006 C 
HETATM   15  C14 UNL     1      21.241   5.687  47.592  1.00  0.00     0.038 C 
BRANCH  13  16
HETATM   16  O1  UNL     1      22.958   6.044  50.028  1.00  0.00    -0.356 OA
HETATM   17  C15 UNL     1      22.250   5.625  51.171  1.00  0.00     0.210 C 
ENDBRANCH  13  16
ENDBRANCH  10  13
BRANCH   1  18
HETATM   18  N1  UNL     1      27.898   1.316  53.389  1.00  0.00    -0.344 N 
HETATM   19  C4  UNL     1      28.752   2.414  53.820  1.00  0.00     0.157 C 
BRANCH  18  20
HETATM   20  C3  UNL     1      28.398  -0.007  53.319  1.00  0.00     0.088 C 
HETATM   21  C2  UNL     1      29.389  -0.780  53.690  1.00  0.00    -0.014 C 
HETATM   22  C1  UNL     1      29.356  -2.220  53.269  1.00  0.00     0.037 C 
ENDBRANCH  18  20
ENDBRANCH   1  18
TORSDOF 4
ENDMDL
MODEL 5
REMARK VINA RESULT:      -6.8      1.692      2.181
REMARK  4 active torsions:
REMARK  status: ('A' for Active; 'I' for Inactive)
REMARK    1  A    between atoms: C3_3  and  N1_4 
REMARK    2  A    between atoms: N1_4  and  C5_6 
REMARK    3  A    between atoms: C11_15  and  C12_16 
REMARK    4  A    between atoms: C12_16  and  O1_19 
ROOT
HETATM    1  C5  UNL     1      20.411   0.495  52.830  1.00  0.00     0.161 A 
HETATM    2  N2  UNL     1      19.674  -0.502  53.412  1.00  0.00    -0.222 NA
HETATM    3  C6  UNL     1      20.339  -1.417  54.171  1.00  0.00     0.238 A 
HETATM    4  N3  UNL     1      21.658  -1.464  54.422  1.00  0.00    -0.215 NA
HETATM    5  C7  UNL     1      22.446  -0.491  53.864  1.00  0.00     0.201 A 
HETATM    6  C8  UNL     1      21.752   0.423  53.104  1.00  0.00     0.129 A 
HETATM    7  N4  UNL     1      22.586   1.458  52.544  1.00  0.00    -0.377 N 
HETATM    8  C9  UNL     1      23.860   1.823  53.138  1.00  0.00     0.185 C 
HETATM    9  C10 UNL     1      24.589   0.565  53.461  1.00  0.00     0.075 C 
HETATM   10  C11 UNL     1      25.862   0.282  53.264  1.00  0.00     0.071 C 
HETATM   11  O2  UNL     1      23.813  -0.427  54.041  1.00  0.00    -0.293 OA
HETATM   12  H10 UNL     1      22.258   1.958  51.693  1.00  0.00     0.160 HD
ENDROOT
BRANCH  10  13
HETATM   13  C12 UNL     1      26.873  -0.754  53.430  1.00  0.00     0.066 C 
HETATM   14  C13 UNL     1      27.046  -1.690  52.522  1.00  0.00     0.006 C 
HETATM   15  C14 UNL     1      28.087  -2.718  52.741  1.00  0.00     0.038 C 
BRANCH  13  16
HETATM   16  O1  UNL     1      27.476  -0.476  54.641  1.00  0.00    -0.356 OA
HETATM   17  C15 UNL     1      28.659   0.275  54.784  1.00  0.00     0.210 C 
ENDBRANCH  13  16
ENDBRANCH  10  13
BRANCH   1  18
HETATM   18  N1  UNL     1      19.766   1.480  52.029  1.00  0.00    -0.344 N 
HETATM   19  C4  UNL     1      19.926   2.921  51.897  1.00  0.00     0.157 C 
BRANCH  18  20
HETATM   20  C3  UNL     1      18.809   0.782  51.254  1.00  0.00     0.088 C 
HETATM   21  C2  UNL     1      17.537   0.736  50.942  1.00  0.00    -0.014 C 
HETATM   22  C1  UNL     1      17.085  -0.327  49.984  1.00  0.00     0.037 C 
ENDBRANCH  18  20
ENDBRANCH   1  18
TORSDOF 4
ENDMDL
MODEL 6
REMARK VINA RESULT:      -6.7      5.388      6.761
REMARK  4 active torsions:
REMARK  status: ('A' for Active; 'I' for Inactive)
REMARK    1  A    between atoms: C3_3  and  N1_4 
REMARK    2  A    between atoms: N1_4  and  C5_6 
REMARK    3  A    between atoms: C11_15  and  C12_16 
REMARK    4  A    between atoms: C12_16  and  O1_19 
ROOT
HETATM    1  C5  UNL     1      26.344   6.780  48.847  1.00  0.00     0.161 A 
HETATM    2  N2  UNL     1      27.504   7.042  48.168  1.00  0.00    -0.222 NA
HETATM    3  C6  UNL     1      28.425   6.041  48.083  1.00  0.00     0.238 A 
HETATM    4  N3  UNL     1      28.333   4.803  48.597  1.00  0.00    -0.215 NA
HETATM    5  C7  UNL     1      27.193   4.485  49.287  1.00  0.00     0.201 A 
HETATM    6  C8  UNL     1      26.278   5.510  49.358  1.00  0.00     0.129 A 
HETATM    7  N4  UNL     1      25.070   5.157  50.064  1.00  0.00    -0.377 N 
HETATM    8  C9  UNL     1      24.631   3.778  50.191  1.00  0.00     0.185 C 
HETATM    9  C10 UNL     1      25.815   2.955  50.565  1.00  0.00     0.075 C 
HETATM   10  C11 UNL     1      25.895   1.996  51.467  1.00  0.00     0.071 C 
HETATM   11  O2  UNL     1      26.975   3.252  49.865  1.00  0.00    -0.293 OA
HETATM   12  H10 UNL     1      24.499   5.916  50.487  1.00  0.00     0.160 HD
ENDROOT
BRANCH  10  13
HETATM   13  C12 UNL     1      26.801   1.033  52.077  1.00  0.00     0.066 C 
HETATM   14  C13 UNL     1      26.458  -0.230  52.221  1.00  0.00     0.006 C 
HETATM   15  C14 UNL     1      27.416  -1.166  52.848  1.00  0.00     0.038 C 
BRANCH  13  16
HETATM   16  O1  UNL     1      27.933   1.756  52.396  1.00  0.00    -0.356 OA
HETATM   17  C15 UNL     1      28.130   2.421  53.622  1.00  0.00     0.210 C 
ENDBRANCH  13  16
ENDBRANCH  10  13
BRANCH   1  18
HETATM   18  N1  UNL     1      25.346   7.789  48.964  1.00  0.00    -0.344 N 
HETATM   19  C4  UNL     1      24.808   8.535  50.092  1.00  0.00     0.157 C 
BRANCH  18  20
HETATM   20  C3  UNL     1      24.875   8.020  47.649  1.00  0.00     0.088 C 
HETATM   21  C2  UNL     1      24.085   7.548  46.716  1.00  0.00    -0.014 C 
HETATM   22  C1  UNL     1      24.000   8.299  45.419  1.00  0.00     0.037 C 
ENDBRANCH  18  20
ENDBRANCH   1  18
TORSDOF 4
ENDMDL
MODEL 7
REMARK VINA RESULT:      -6.6      3.694      4.888
REMARK  4 active torsions:
REMARK  status: ('A' for Active; 'I' for Inactive)
REMARK    1  A    between atoms: C3_3  and  N1_4 
REMARK    2  A    between atoms: N1_4  and  C5_6 
REMARK    3  A    between atoms: C11_15  and  C12_16 
REMARK    4  A    between atoms: C12_16  and  O1_19 
ROOT
HETATM    1  C5  UNL     1      23.581   5.096  49.641  1.00  0.00     0.161 A 
HETATM    2  N2  UNL     1      22.996   4.684  48.473  1.00  0.00    -0.222 NA
HETATM    3  C6  UNL     1      22.704   3.359  48.348  1.00  0.00     0.238 A 
HETATM    4  N3  UNL     1      22.926   2.387  49.247  1.00  0.00    -0.215 NA
HETATM    5  C7  UNL     1      23.510   2.742  50.436  1.00  0.00     0.201 A 
HETATM    6  C8  UNL     1      23.794   4.084  50.540  1.00  0.00     0.129 A 
HETATM    7  N4  UNL     1      24.383   4.451  51.804  1.00  0.00    -0.377 N 
HETATM    8  C9  UNL     1      24.192   3.652  53.002  1.00  0.00     0.185 C 
HETATM    9  C10 UNL     1      24.391   2.223  52.632  1.00  0.00     0.075 C 
HETATM   10  C11 UNL     1      25.056   1.292  53.288  1.00  0.00     0.071 C 
HETATM   11  O2  UNL     1      23.794   1.840  51.441  1.00  0.00    -0.293 OA
HETATM   12  H10 UNL     1      24.956   5.318  51.855  1.00  0.00     0.160 HD
ENDROOT
BRANCH  10  13
HETATM   13  C12 UNL     1      25.449  -0.110  53.257  1.00  0.00     0.066 C 
HETATM   14  C13 UNL     1      26.425  -0.528  52.480  1.00  0.00     0.006 C 
HETATM   15  C14 UNL     1      26.784  -1.964  52.487  1.00  0.00     0.038 C 
BRANCH  13  16
HETATM   16  O1  UNL     1      24.607  -0.739  54.152  1.00  0.00    -0.356 OA
HETATM   17  C15 UNL     1      23.211  -0.837  53.994  1.00  0.00     0.210 C 
ENDBRANCH  13  16
ENDBRANCH  10  13
BRANCH   1  18
HETATM   18  N1  UNL     1      23.905   6.471  49.827  1.00  0.00    -0.344 N 
HETATM   19  C4  UNL     1      23.263   7.558  50.550  1.00  0.00     0.157 C 
BRANCH  18  20
HETATM   20  C3  UNL     1      25.114   6.681  49.121  1.00  0.00     0.088 C 
HETATM   21  C2  UNL     1      26.364   6.298  49.036  1.00  0.00    -0.014 C 
HETATM   22  C1  UNL     1      27.232   6.949  47.999  1.00  0.00     0.037 C 
ENDBRANCH  18  20
ENDBRANCH   1  18
TORSDOF 4
ENDMDL
MODEL 8
REMARK VINA RESULT:      -6.6      4.525      7.448
REMARK  4 active torsions:
REMARK  status: ('A' for Active; 'I' for Inactive)
REMARK    1  A    between atoms: C3_3  and  N1_4 
REMARK    2  A    between atoms: N1_4  and  C5_6 
REMARK    3  A    between atoms: C11_15  and  C12_16 
REMARK    4  A    between atoms: C12_16  and  O1_19 
ROOT
HETATM    1  C5  UNL     1      25.827   2.163  52.473  1.00  0.00     0.161 A 
HETATM    2  N2  UNL     1      24.677   1.768  53.104  1.00  0.00    -0.222 NA
HETATM    3  C6  UNL     1      23.501   2.295  52.659  1.00  0.00     0.238 A 
HETATM    4  N3  UNL     1      23.328   3.174  51.658  1.00  0.00    -0.215 NA
HETATM    5  C7  UNL     1      24.446   3.604  50.991  1.00  0.00     0.201 A 
HETATM    6  C8  UNL     1      25.620   3.058  51.457  1.00  0.00     0.129 A 
HETATM    7  N4  UNL     1      26.787   3.497  50.730  1.00  0.00    -0.377 N 
HETATM    8  C9  UNL     1      26.703   3.989  49.367  1.00  0.00     0.185 C 
HETATM    9  C10 UNL     1      25.552   4.932  49.293  1.00  0.00     0.075 C 
HETATM   10  C11 UNL     1      25.490   6.104  48.692  1.00  0.00     0.071 C 
HETATM   11  O2  UNL     1      24.406   4.507  49.948  1.00  0.00    -0.293 OA
HETATM   12  H10 UNL     1      27.713   3.453  51.201  1.00  0.00     0.160 HD
ENDROOT
BRANCH  10  13
HETATM   13  C12 UNL     1      24.616   7.236  48.414  1.00  0.00     0.066 C 
HETATM   14  C13 UNL     1      23.938   7.314  47.289  1.00  0.00     0.006 C 
HETATM   15  C14 UNL     1      23.065   8.486  47.058  1.00  0.00     0.038 C 
BRANCH  13  16
HETATM   16  O1  UNL     1      24.720   8.051  49.524  1.00  0.00    -0.356 OA
HETATM   17  C15 UNL     1      23.882   7.966  50.652  1.00  0.00     0.210 C 
ENDBRANCH  13  16
ENDBRANCH  10  13
BRANCH   1  18
HETATM   18  N1  UNL     1      27.083   1.642  52.895  1.00  0.00    -0.344 N 
HETATM   19  C4  UNL     1      28.265   2.246  53.490  1.00  0.00     0.157 C 
BRANCH  18  20
HETATM   20  C3  UNL     1      27.031   0.251  52.634  1.00  0.00     0.088 C 
HETATM   21  C2  UNL     1      27.073  -0.929  53.201  1.00  0.00    -0.014 C 
HETATM   22  C1  UNL     1      26.961  -2.139  52.320  1.00  0.00     0.037 C 
ENDBRANCH  18  20
ENDBRANCH   1  18
TORSDOF 4
ENDMDL
MODEL 9
REMARK VINA RESULT:      -6.5      2.554      7.058
REMARK  4 active torsions:
REMARK  status: ('A' for Active; 'I' for Inactive)
REMARK    1  A    between atoms: C3_3  and  N1_4 
REMARK    2  A    between atoms: N1_4  and  C5_6 
REMARK    3  A    between atoms: C11_15  and  C12_16 
REMARK    4  A    between atoms: C12_16  and  O1_19 
ROOT
HETATM    1  C5  UNL     1      25.562   0.601  52.287  1.00  0.00     0.161 A 
HETATM    2  N2  UNL     1      25.863   1.717  51.553  1.00  0.00    -0.222 NA
HETATM    3  C6  UNL     1      24.835   2.546  51.216  1.00  0.00     0.238 A 
HETATM    4  N3  UNL     1      23.535   2.400  51.522  1.00  0.00    -0.215 NA
HETATM    5  C7  UNL     1      23.176   1.299  52.257  1.00  0.00     0.201 A 
HETATM    6  C8  UNL     1      24.230   0.478  52.585  1.00  0.00     0.129 A 
HETATM    7  N4  UNL     1      23.845  -0.662  53.380  1.00  0.00    -0.377 N 
HETATM    8  C9  UNL     1      22.642  -0.661  54.194  1.00  0.00     0.185 C 
HETATM    9  C10 UNL     1      21.537  -0.094  53.372  1.00  0.00     0.075 C 
HETATM   10  C11 UNL     1      20.295  -0.523  53.260  1.00  0.00     0.071 C 
HETATM   11  O2  UNL     1      21.877   1.030  52.634  1.00  0.00    -0.293 OA
HETATM   12  H10 UNL     1      24.454  -1.506  53.371  1.00  0.00     0.160 HD
ENDROOT
BRANCH  10  13
HETATM   13  C12 UNL     1      19.018  -0.263  52.611  1.00  0.00     0.066 C 
HETATM   14  C13 UNL     1      18.937   0.513  51.551  1.00  0.00     0.006 C 
HETATM   15  C14 UNL     1      17.614   0.745  50.931  1.00  0.00     0.038 C 
BRANCH  13  16
HETATM   16  O1  UNL     1      18.090  -0.972  53.347  1.00  0.00    -0.356 OA
HETATM   17  C15 UNL     1      18.292  -2.279  53.831  1.00  0.00     0.210 C 
ENDBRANCH  13  16
ENDBRANCH  10  13
BRANCH   1  18
HETATM   18  N1  UNL     1      26.598  -0.299  52.668  1.00  0.00    -0.344 N 
HETATM   19  C4  UNL     1      26.769  -1.738  52.535  1.00  0.00     0.157 C 
BRANCH  18  20
HETATM   20  C3  UNL     1      27.597   0.498  53.277  1.00  0.00     0.088 C 
HETATM   21  C2  UNL     1      28.335   0.621  54.353  1.00  0.00    -0.014 C 
HETATM   22  C1  UNL     1      29.292   1.775  54.423  1.00  0.00     0.037 C 
ENDBRANCH  18  20
ENDBRANCH   1  18
TORSDOF 4
ENDMDL
