MODEL 1
REMARK VINA RESULT:      -8.0      0.000      0.000
REMARK  6 active torsions:
REMARK  status: ('A' for Active; 'I' for Inactive)
REMARK    1  A    between atoms: O1_2  and  C2_3 
REMARK    2  A    between atoms: C6_8  and  C7_9 
REMARK    3  A    between atoms: C7_9  and  O3_11 
REMARK    4  A    between atoms: C8_12  and  N2_13 
REMARK    5  A    between atoms: N2_13  and  C9_14 
REMARK    6  A    between atoms: C17_23  and  O4_24 
ROOT
HETATM    1  C2  UNL     1      20.962   0.388  52.230  1.00  0.00     0.103 A 
HETATM    2  C3  UNL     1      21.228   0.967  50.991  1.00  0.00     0.072 A 
HETATM    3  C4  UNL     1      22.394   1.688  50.773  1.00  0.00     0.071 A 
HETATM    4  N1  UNL     1      22.688   2.267  49.583  1.00  0.00    -0.259 NA
HETATM    5  C5  UNL     1      23.840   2.959  49.424  1.00  0.00     0.138 A 
HETATM    6  C6  UNL     1      24.730   3.086  50.467  1.00  0.00     0.082 A 
HETATM    7  C8  UNL     1      24.485   2.521  51.696  1.00  0.00     0.064 A 
HETATM    8  C15 UNL     1      23.299   1.819  51.827  1.00  0.00     0.023 A 
HETATM    9  C16 UNL     1      23.015   1.236  53.046  1.00  0.00     0.055 A 
HETATM   10  C17 UNL     1      21.874   0.521  53.284  1.00  0.00     0.102 A 
ENDROOT
BRANCH   7  11
HETATM   11  N2  UNL     1      25.359   2.611  52.815  1.00  0.00    -0.355 N 
HETATM   12  H7  UNL     1      25.163   3.368  53.513  1.00  0.00     0.166 HD
BRANCH  11  13
HETATM   13  C9  UNL     1      26.452   1.715  52.982  1.00  0.00     0.034 A 
HETATM   14  C10 UNL     1      27.660   2.221  53.411  1.00  0.00     0.029 A 
HETATM   15  C11 UNL     1      28.738   1.349  53.577  1.00  0.00     0.004 A 
HETATM   16  C12 UNL     1      28.514   0.003  53.293  1.00  0.00     0.024 A 
HETATM   17  C13 UNL     1      27.302  -0.494  52.864  1.00  0.00     0.036 A 
HETATM   18 CL1  UNL     1      27.088  -2.193  52.525  1.00  0.00    -0.084 Cl
HETATM   19  C14 UNL     1      26.266   0.384  52.711  1.00  0.00     0.053 A 
ENDBRANCH  11  13
ENDBRANCH   7  11
BRANCH   6  20
HETATM   20  C7  UNL     1      25.969   3.836  50.282  1.00  0.00     0.179 C 
HETATM   21  O2  UNL     1      27.048   3.235  50.056  1.00  0.00    -0.646 OA
BRANCH  20  22
HETATM   22  O3  UNL     1      26.007   5.205  50.346  1.00  0.00    -0.773 OA
HETATM   23  H6  UNL     1      25.189   5.712  49.981  1.00  0.00     0.167 HD
ENDBRANCH  20  22
ENDBRANCH   6  20
BRANCH  10  24
HETATM   24  O4  UNL     1      21.560  -0.076  54.496  1.00  0.00    -0.353 OA
HETATM   25  C18 UNL     1      22.389  -1.083  54.986  1.00  0.00     0.210 C 
ENDBRANCH  10  24
BRANCH   1  26
HETATM   26  O1  UNL     1      19.799  -0.335  52.456  1.00  0.00    -0.353 OA
HETATM   27  C1  UNL     1      18.617   0.084  51.800  1.00  0.00     0.210 C 
ENDBRANCH   1  26
TORSDOF 6
ENDMDL
MODEL 2
REMARK VINA RESULT:      -7.9      3.067      4.828
REMARK  6 active torsions:
REMARK  status: ('A' for Active; 'I' for Inactive)
REMARK    1  A    between atoms: O1_2  and  C2_3 
REMARK    2  A    between atoms: C6_8  and  C7_9 
REMARK    3  A    between atoms: C7_9  and  O3_11 
REMARK    4  A    between atoms: C8_12  and  N2_13 
REMARK    5  A    between atoms: N2_13  and  C9_14 
REMARK    6  A    between atoms: C17_23  and  O4_24 
ROOT
HETATM    1  C2  UNL     1      19.930  -0.795  53.383  1.00  0.00     0.103 A 
HETATM    2  C3  UNL     1      20.710  -1.248  54.446  1.00  0.00     0.072 A 
HETATM    3  C4  UNL     1      22.080  -1.028  54.471  1.00  0.00     0.071 A 
HETATM    4  N1  UNL     1      22.874  -1.453  55.486  1.00  0.00    -0.259 NA
HETATM    5  C5  UNL     1      24.205  -1.212  55.461  1.00  0.00     0.138 A 
HETATM    6  C6  UNL     1      24.775  -0.533  54.407  1.00  0.00     0.082 A 
HETATM    7  C8  UNL     1      24.021  -0.078  53.351  1.00  0.00     0.064 A 
HETATM    8  C15 UNL     1      22.662  -0.340  53.405  1.00  0.00     0.023 A 
HETATM    9  C16 UNL     1      21.869   0.099  52.364  1.00  0.00     0.055 A 
HETATM   10  C17 UNL     1      20.518  -0.105  52.317  1.00  0.00     0.102 A 
ENDROOT
BRANCH   7  11
HETATM   11  N2  UNL     1      24.541   0.629  52.232  1.00  0.00    -0.355 N 
HETATM   12  H7  UNL     1      25.140   0.089  51.563  1.00  0.00     0.166 HD
BRANCH  11  13
HETATM   13  C9  UNL     1      24.265   2.011  52.029  1.00  0.00     0.034 A 
HETATM   14  C10 UNL     1      24.202   2.840  53.128  1.00  0.00     0.029 A 
HETATM   15  C11 UNL     1      23.931   4.196  52.936  1.00  0.00     0.004 A 
HETATM   16  C12 UNL     1      23.739   4.626  51.624  1.00  0.00     0.024 A 
HETATM   17  C13 UNL     1      23.803   3.788  50.531  1.00  0.00     0.036 A 
HETATM   18 CL1  UNL     1      23.551   4.391  48.912  1.00  0.00    -0.084 Cl
HETATM   19  C14 UNL     1      24.070   2.466  50.750  1.00  0.00     0.053 A 
ENDBRANCH  11  13
ENDBRANCH   7  11
BRANCH   6  20
HETATM   20  C7  UNL     1      26.212  -0.280  54.393  1.00  0.00     0.179 C 
HETATM   21  O2  UNL     1      26.981  -1.018  53.729  1.00  0.00    -0.646 OA
BRANCH  20  22
HETATM   22  O3  UNL     1      26.775   0.756  55.094  1.00  0.00    -0.773 OA
HETATM   23  H6  UNL     1      27.803   0.810  55.102  1.00  0.00     0.167 HD
ENDBRANCH  20  22
ENDBRANCH   6  20
BRANCH  10  24
HETATM   24  O4  UNL     1      19.694   0.324  51.286  1.00  0.00    -0.353 OA
HETATM   25  C18 UNL     1      20.249   1.064  50.243  1.00  0.00     0.210 C 
ENDBRANCH  10  24
BRANCH   1  26
HETATM   26  O1  UNL     1      18.559  -1.010  53.350  1.00  0.00    -0.353 OA
HETATM   27  C1  UNL     1      18.084  -2.318  53.608  1.00  0.00     0.210 C 
ENDBRANCH   1  26
TORSDOF 6
ENDMDL
MODEL 3
REMARK VINA RESULT:      -7.8      3.009      6.028
REMARK  6 active torsions:
REMARK  status: ('A' for Active; 'I' for Inactive)
REMARK    1  A    between atoms: O1_2  and  C2_3 
REMARK    2  A    between atoms: C6_8  and  C7_9 
REMARK    3  A    between atoms: C7_9  and  O3_11 
REMARK    4  A    between atoms: C8_12  and  N2_13 
REMARK    5  A    between atoms: N2_13  and  C9_14 
REMARK    6  A    between atoms: C17_23  and  O4_24 
ROOT
HETATM    1  C2  UNL     1      26.555   0.109  54.178  1.00  0.00     0.103 A 
HETATM    2  C3  UNL     1      25.436  -0.686  53.932  1.00  0.00     0.072 A 
HETATM    3  C4  UNL     1      24.253  -0.130  53.466  1.00  0.00     0.071 A 
HETATM    4  N1  UNL     1      23.144  -0.870  53.215  1.00  0.00    -0.259 NA
HETATM    5  C5  UNL     1      22.014  -0.277  52.762  1.00  0.00     0.138 A 
HETATM    6  C6  UNL     1      21.974   1.082  52.549  1.00  0.00     0.082 A 
HETATM    7  C8  UNL     1      23.067   1.882  52.785  1.00  0.00     0.064 A 
HETATM    8  C15 UNL     1      24.207   1.247  53.249  1.00  0.00     0.023 A 
HETATM    9  C16 UNL     1      25.327   2.014  53.499  1.00  0.00     0.055 A 
HETATM   10  C17 UNL     1      26.504   1.490  53.958  1.00  0.00     0.102 A 
ENDROOT
BRANCH   7  11
HETATM   11  N2  UNL     1      23.095   3.290  52.587  1.00  0.00    -0.355 N 
HETATM   12  H7  UNL     1      22.701   3.888  53.352  1.00  0.00     0.166 HD
BRANCH  11  13
HETATM   13  C9  UNL     1      23.635   3.866  51.402  1.00  0.00     0.034 A 
HETATM   14  C10 UNL     1      23.572   3.143  50.230  1.00  0.00     0.029 A 
HETATM   15  C11 UNL     1      24.099   3.701  49.063  1.00  0.00     0.004 A 
HETATM   16  C12 UNL     1      24.662   4.971  49.166  1.00  0.00     0.024 A 
HETATM   17  C13 UNL     1      24.722   5.686  50.343  1.00  0.00     0.036 A 
HETATM   18 CL1  UNL     1      25.443   7.275  50.403  1.00  0.00    -0.084 Cl
HETATM   19  C14 UNL     1      24.197   5.114  51.468  1.00  0.00     0.053 A 
ENDBRANCH  11  13
ENDBRANCH   7  11
BRANCH   6  20
HETATM   20  C7  UNL     1      20.749   1.708  52.060  1.00  0.00     0.179 C 
HETATM   21  O2  UNL     1      20.258   1.367  50.955  1.00  0.00    -0.646 OA
BRANCH  20  22
HETATM   22  O3  UNL     1      20.094   2.680  52.773  1.00  0.00    -0.773 OA
HETATM   23  H6  UNL     1      20.185   3.648  52.435  1.00  0.00     0.167 HD
ENDBRANCH  20  22
ENDBRANCH   6  20
BRANCH  10  24
HETATM   24  O4  UNL     1      27.646   2.234  54.219  1.00  0.00    -0.353 OA
HETATM   25  C18 UNL     1      28.520   2.517  53.171  1.00  0.00     0.210 C 
ENDBRANCH  10  24
BRANCH   1  26
HETATM   26  O1  UNL     1      27.742  -0.438  54.643  1.00  0.00    -0.353 OA
HETATM   27  C1  UNL     1      28.612  -1.040  53.702  1.00  0.00     0.210 C 
ENDBRANCH   1  26
TORSDOF 6
ENDMDL
MODEL 4
REMARK VINA RESULT:      -7.7      2.424      6.793
REMARK  6 active torsions:
REMARK  status: ('A' for Active; 'I' for Inactive)
REMARK    1  A    between atoms: O1_2  and  C2_3 
REMARK    2  A    between atoms: C6_8  and  C7_9 
REMARK    3  A    between atoms: C7_9  and  O3_11 
REMARK    4  A    between atoms: C8_12  and  N2_13 
REMARK    5  A    between atoms: N2_13  and  C9_14 
REMARK    6  A    between atoms: C17_23  and  O4_24 
ROOT
HETATM    1  C2  UNL     1      27.433   0.835  53.028  1.00  0.00     0.103 A 
HETATM    2  C3  UNL     1      26.913  -0.178  53.832  1.00  0.00     0.072 A 
HETATM    3  C4  UNL     1      25.545  -0.299  54.034  1.00  0.00     0.071 A 
HETATM    4  N1  UNL     1      25.000  -1.270  54.809  1.00  0.00    -0.259 NA
HETATM    5  C5  UNL     1      23.659  -1.343  54.973  1.00  0.00     0.138 A 
HETATM    6  C6  UNL     1      22.827  -0.434  54.357  1.00  0.00     0.082 A 
HETATM    7  C8  UNL     1      23.323   0.572  53.561  1.00  0.00     0.064 A 
HETATM    8  C15 UNL     1      24.698   0.620  53.412  1.00  0.00     0.023 A 
HETATM    9  C16 UNL     1      25.237   1.615  52.620  1.00  0.00     0.055 A 
HETATM   10  C17 UNL     1      26.580   1.754  52.405  1.00  0.00     0.102 A 
ENDROOT
BRANCH   7  11
HETATM   11  N2  UNL     1      22.524   1.542  52.895  1.00  0.00    -0.355 N 
HETATM   12  H7  UNL     1      22.180   2.351  53.467  1.00  0.00     0.166 HD
BRANCH  11  13
HETATM   13  C9  UNL     1      22.203   1.424  51.513  1.00  0.00     0.034 A 
HETATM   14  C10 UNL     1      21.409   0.372  51.109  1.00  0.00     0.029 A 
HETATM   15  C11 UNL     1      21.089   0.249  49.755  1.00  0.00     0.004 A 
HETATM   16  C12 UNL     1      21.604   1.214  48.891  1.00  0.00     0.024 A 
HETATM   17  C13 UNL     1      22.398   2.262  49.305  1.00  0.00     0.036 A 
HETATM   18 CL1  UNL     1      23.012   3.438  48.170  1.00  0.00    -0.084 Cl
HETATM   19  C14 UNL     1      22.693   2.356  50.636  1.00  0.00     0.053 A 
ENDBRANCH  11  13
ENDBRANCH   7  11
BRANCH   6  20
HETATM   20  C7  UNL     1      21.383  -0.524  54.543  1.00  0.00     0.179 C 
HETATM   21  O2  UNL     1      20.761  -1.562  54.206  1.00  0.00    -0.646 OA
BRANCH  20  22
HETATM   22  O3  UNL     1      20.653   0.505  55.085  1.00  0.00    -0.773 OA
HETATM   23  H6  UNL     1      20.665   0.595  56.110  1.00  0.00     0.167 HD
ENDBRANCH  20  22
ENDBRANCH   6  20
BRANCH  10  24
HETATM   24  O4  UNL     1      27.151   2.741  51.616  1.00  0.00    -0.353 OA
HETATM   25  C18 UNL     1      26.424   3.249  50.542  1.00  0.00     0.210 C 
ENDBRANCH  10  24
BRANCH   1  26
HETATM   26  O1  UNL     1      28.799   0.963  52.820  1.00  0.00    -0.353 OA
HETATM   27  C1  UNL     1      29.673   0.256  53.681  1.00  0.00     0.210 C 
ENDBRANCH   1  26
TORSDOF 6
ENDMDL
MODEL 5
REMARK VINA RESULT:      -7.6      3.098      5.766
REMARK  6 active torsions:
REMARK  status: ('A' for Active; 'I' for Inactive)
REMARK    1  A    between atoms: O1_2  and  C2_3 
REMARK    2  A    between atoms: C6_8  and  C7_9 
REMARK    3  A    between atoms: C7_9  and  O3_11 
REMARK    4  A    between atoms: C8_12  and  N2_13 
REMARK    5  A    between atoms: N2_13  and  C9_14 
REMARK    6  A    between atoms: C17_23  and  O4_24 
ROOT
HETATM    1  C2  UNL     1      27.380   0.058  53.769  1.00  0.00     0.103 A 
HETATM    2  C3  UNL     1      27.712   0.866  52.683  1.00  0.00     0.072 A 
HETATM    3  C4  UNL     1      26.785   1.741  52.134  1.00  0.00     0.071 A 
HETATM    4  N1  UNL     1      27.069   2.544  51.078  1.00  0.00    -0.259 NA
HETATM    5  C5  UNL     1      26.128   3.379  50.580  1.00  0.00     0.138 A 
HETATM    6  C6  UNL     1      24.870   3.428  51.137  1.00  0.00     0.082 A 
HETATM    7  C8  UNL     1      24.525   2.639  52.209  1.00  0.00     0.064 A 
HETATM    8  C15 UNL     1      25.508   1.795  52.695  1.00  0.00     0.023 A 
HETATM    9  C16 UNL     1      25.203   0.985  53.771  1.00  0.00     0.055 A 
HETATM   10  C17 UNL     1      26.098   0.115  54.329  1.00  0.00     0.102 A 
ENDROOT
BRANCH   7  11
HETATM   11  N2  UNL     1      23.247   2.638  52.833  1.00  0.00    -0.355 N 
HETATM   12  H7  UNL     1      23.178   3.082  53.780  1.00  0.00     0.166 HD
BRANCH  11  13
HETATM   13  C9  UNL     1      22.109   2.060  52.202  1.00  0.00     0.034 A 
HETATM   14  C10 UNL     1      22.248   0.835  51.587  1.00  0.00     0.029 A 
HETATM   15  C11 UNL     1      21.137   0.261  50.966  1.00  0.00     0.004 A 
HETATM   16  C12 UNL     1      19.943   0.980  51.011  1.00  0.00     0.024 A 
HETATM   17  C13 UNL     1      19.814   2.205  51.629  1.00  0.00     0.036 A 
HETATM   18 CL1  UNL     1      18.288   3.054  51.650  1.00  0.00    -0.084 Cl
HETATM   19  C14 UNL     1      20.919   2.741  52.228  1.00  0.00     0.053 A 
ENDBRANCH  11  13
ENDBRANCH   7  11
BRANCH   6  20
HETATM   20  C7  UNL     1      23.865   4.334  50.591  1.00  0.00     0.179 C 
HETATM   21  O2  UNL     1      23.489   4.223  49.397  1.00  0.00    -0.646 OA
BRANCH  20  22
HETATM   22  O3  UNL     1      23.297   5.330  51.344  1.00  0.00    -0.773 OA
HETATM   23  H6  UNL     1      22.280   5.459  51.256  1.00  0.00     0.167 HD
ENDBRANCH  20  22
ENDBRANCH   6  20
BRANCH  10  24
HETATM   24  O4  UNL     1      25.822  -0.711  55.409  1.00  0.00    -0.353 OA
HETATM   25  C18 UNL     1      24.542  -1.247  55.537  1.00  0.00     0.210 C 
ENDBRANCH  10  24
BRANCH   1  26
HETATM   26  O1  UNL     1      28.300  -0.820  54.325  1.00  0.00    -0.353 OA
HETATM   27  C1  UNL     1      29.612  -0.833  53.793  1.00  0.00     0.210 C 
ENDBRANCH   1  26
TORSDOF 6
ENDMDL
MODEL 6
REMARK VINA RESULT:      -7.4      3.031      4.764
REMARK  6 active torsions:
REMARK  status: ('A' for Active; 'I' for Inactive)
REMARK    1  A    between atoms: O1_2  and  C2_3 
REMARK    2  A    between atoms: C6_8  and  C7_9 
REMARK    3  A    between atoms: C7_9  and  O3_11 
REMARK    4  A    between atoms: C8_12  and  N2_13 
REMARK    5  A    between atoms: N2_13  and  C9_14 
REMARK    6  A    between atoms: C17_23  and  O4_24 
ROOT
HETATM    1  C2  UNL     1      20.686   0.621  52.731  1.00  0.00     0.103 A 
HETATM    2  C3  UNL     1      21.814  -0.181  52.896  1.00  0.00     0.072 A 
HETATM    3  C4  UNL     1      23.085   0.373  52.940  1.00  0.00     0.071 A 
HETATM    4  N1  UNL     1      24.206  -0.373  53.099  1.00  0.00    -0.259 NA
HETATM    5  C5  UNL     1      25.423   0.218  53.135  1.00  0.00     0.138 A 
HETATM    6  C6  UNL     1      25.542   1.585  53.010  1.00  0.00     0.082 A 
HETATM    7  C8  UNL     1      24.440   2.392  52.847  1.00  0.00     0.064 A 
HETATM    8  C15 UNL     1      23.210   1.758  52.815  1.00  0.00     0.023 A 
HETATM    9  C16 UNL     1      22.079   2.532  52.652  1.00  0.00     0.055 A 
HETATM   10  C17 UNL     1      20.816   2.009  52.606  1.00  0.00     0.102 A 
ENDROOT
BRANCH   7  11
HETATM   11  N2  UNL     1      24.489   3.807  52.713  1.00  0.00    -0.355 N 
HETATM   12  H7  UNL     1      24.697   4.361  53.577  1.00  0.00     0.166 HD
BRANCH  11  13
HETATM   13  C9  UNL     1      24.264   4.446  51.460  1.00  0.00     0.034 A 
HETATM   14  C10 UNL     1      24.657   3.797  50.309  1.00  0.00     0.029 A 
HETATM   15  C11 UNL     1      24.441   4.417  49.077  1.00  0.00     0.004 A 
HETATM   16  C12 UNL     1      23.832   5.671  49.096  1.00  0.00     0.024 A 
HETATM   17  C13 UNL     1      23.442   6.312  50.253  1.00  0.00     0.036 A 
HETATM   18 CL1  UNL     1      22.684   7.884  50.207  1.00  0.00    -0.084 Cl
HETATM   19  C14 UNL     1      23.667   5.680  51.443  1.00  0.00     0.053 A 
ENDBRANCH  11  13
ENDBRANCH   7  11
BRANCH   6  20
HETATM   20  C7  UNL     1      26.860   2.210  53.050  1.00  0.00     0.179 C 
HETATM   21  O2  UNL     1      27.527   2.219  54.114  1.00  0.00    -0.646 OA
BRANCH  20  22
HETATM   22  O3  UNL     1      27.418   2.803  51.946  1.00  0.00    -0.773 OA
HETATM   23  H6  UNL     1      27.259   3.813  51.830  1.00  0.00     0.167 HD
ENDBRANCH  20  22
ENDBRANCH   6  20
BRANCH  10  24
HETATM   24  O4  UNL     1      19.660   2.760  52.444  1.00  0.00    -0.353 OA
HETATM   25  C18 UNL     1      19.440   3.404  51.228  1.00  0.00     0.210 C 
ENDBRANCH  10  24
BRANCH   1  26
HETATM   26  O1  UNL     1      19.410   0.075  52.687  1.00  0.00    -0.353 OA
HETATM   27  C1  UNL     1      19.145  -1.062  53.487  1.00  0.00     0.210 C 
ENDBRANCH   1  26
TORSDOF 6
ENDMDL
MODEL 7
REMARK VINA RESULT:      -7.3      3.409      5.177
REMARK  6 active torsions:
REMARK  status: ('A' for Active; 'I' for Inactive)
REMARK    1  A    between atoms: O1_2  and  C2_3 
REMARK    2  A    between atoms: C6_8  and  C7_9 
REMARK    3  A    between atoms: C7_9  and  O3_11 
REMARK    4  A    between atoms: C8_12  and  N2_13 
REMARK    5  A    between atoms: N2_13  and  C9_14 
REMARK    6  A    between atoms: C17_23  and  O4_24 
ROOT
HETATM    1  C2  UNL     1      25.115   0.171  53.758  1.00  0.00     0.103 A 
HETATM    2  C3  UNL     1      23.997   0.005  52.940  1.00  0.00     0.072 A 
HETATM    3  C4  UNL     1      23.544   1.038  52.131  1.00  0.00     0.071 A 
HETATM    4  N1  UNL     1      22.462   0.916  51.323  1.00  0.00    -0.259 NA
HETATM    5  C5  UNL     1      22.062   1.955  50.553  1.00  0.00     0.138 A 
HETATM    6  C6  UNL     1      22.746   3.150  50.579  1.00  0.00     0.082 A 
HETATM    7  C8  UNL     1      23.851   3.331  51.378  1.00  0.00     0.064 A 
HETATM    8  C15 UNL     1      24.235   2.250  52.153  1.00  0.00     0.023 A 
HETATM    9  C16 UNL     1      25.339   2.391  52.970  1.00  0.00     0.055 A 
HETATM   10  C17 UNL     1      25.805   1.388  53.776  1.00  0.00     0.102 A 
ENDROOT
BRANCH   7  11
HETATM   11  N2  UNL     1      24.604   4.535  51.453  1.00  0.00    -0.355 N 
HETATM   12  H7  UNL     1      24.466   5.132  52.303  1.00  0.00     0.166 HD
BRANCH  11  13
HETATM   13  C9  UNL     1      25.507   4.916  50.420  1.00  0.00     0.034 A 
HETATM   14  C10 UNL     1      26.358   3.963  49.903  1.00  0.00     0.029 A 
HETATM   15  C11 UNL     1      27.246   4.329  48.890  1.00  0.00     0.004 A 
HETATM   16  C12 UNL     1      27.211   5.656  48.464  1.00  0.00     0.024 A 
HETATM   17  C13 UNL     1      26.356   6.602  48.988  1.00  0.00     0.036 A 
HETATM   18 CL1  UNL     1      26.363   8.249  48.409  1.00  0.00    -0.084 Cl
HETATM   19  C14 UNL     1      25.498   6.214  49.978  1.00  0.00     0.053 A 
ENDBRANCH  11  13
ENDBRANCH   7  11
BRANCH   6  20
HETATM   20  C7  UNL     1      22.304   4.262  49.744  1.00  0.00     0.179 C 
HETATM   21  O2  UNL     1      21.748   5.263  50.259  1.00  0.00    -0.646 OA
BRANCH  20  22
HETATM   22  O3  UNL     1      22.473   4.261  48.382  1.00  0.00    -0.773 OA
HETATM   23  H6  UNL     1      21.790   3.728  47.827  1.00  0.00     0.167 HD
ENDBRANCH  20  22
ENDBRANCH   6  20
BRANCH  10  24
HETATM   24  O4  UNL     1      26.910   1.498  54.607  1.00  0.00    -0.353 OA
HETATM   25  C18 UNL     1      28.177   1.583  54.035  1.00  0.00     0.210 C 
ENDBRANCH  10  24
BRANCH   1  26
HETATM   26  O1  UNL     1      25.575  -0.857  54.569  1.00  0.00    -0.353 OA
HETATM   27  C1  UNL     1      24.783  -1.233  55.681  1.00  0.00     0.210 C 
ENDBRANCH   1  26
TORSDOF 6
ENDMDL
MODEL 8
REMARK VINA RESULT:      -7.2      6.380     10.030
REMARK  6 active torsions:
REMARK  status: ('A' for Active; 'I' for Inactive)
REMARK    1  A    between atoms: O1_2  and  C2_3 
REMARK    2  A    between atoms: C6_8  and  C7_9 
REMARK    3  A    between atoms: C7_9  and  O3_11 
REMARK    4  A    between atoms: C8_12  and  N2_13 
REMARK    5  A    between atoms: N2_13  and  C9_14 
REMARK    6  A    between atoms: C17_23  and  O4_24 
ROOT
HETATM    1  C2  UNL     1      32.711   6.146  48.853  1.00  0.00     0.103 A 
HETATM    2  C3  UNL     1      32.458   7.458  49.254  1.00  0.00     0.072 A 
HETATM    3  C4  UNL     1      31.195   8.017  49.116  1.00  0.00     0.071 A 
HETATM    4  N1  UNL     1      30.910   9.288  49.492  1.00  0.00    -0.259 NA
HETATM    5  C5  UNL     1      29.661   9.785  49.336  1.00  0.00     0.138 A 
HETATM    6  C6  UNL     1      28.662   9.008  48.793  1.00  0.00     0.082 A 
HETATM    7  C8  UNL     1      28.892   7.713  48.393  1.00  0.00     0.064 A 
HETATM    8  C15 UNL     1      30.179   7.234  48.566  1.00  0.00     0.023 A 
HETATM    9  C16 UNL     1      30.453   5.937  48.177  1.00  0.00     0.055 A 
HETATM   10  C17 UNL     1      31.688   5.365  48.303  1.00  0.00     0.102 A 
ENDROOT
BRANCH   7  11
HETATM   11  N2  UNL     1      27.909   6.856  47.826  1.00  0.00    -0.355 N 
HETATM   12  H7  UNL     1      27.790   6.889  46.785  1.00  0.00     0.166 HD
BRANCH  11  13
HETATM   13  C9  UNL     1      27.118   5.991  48.634  1.00  0.00     0.034 A 
HETATM   14  C10 UNL     1      27.460   4.658  48.705  1.00  0.00     0.029 A 
HETATM   15  C11 UNL     1      26.689   3.804  49.495  1.00  0.00     0.004 A 
HETATM   16  C12 UNL     1      25.607   4.367  50.169  1.00  0.00     0.024 A 
HETATM   17  C13 UNL     1      25.271   5.701  50.091  1.00  0.00     0.036 A 
HETATM   18 CL1  UNL     1      23.900   6.344  50.961  1.00  0.00    -0.084 Cl
HETATM   19  C14 UNL     1      26.045   6.513  49.310  1.00  0.00     0.053 A 
ENDBRANCH  11  13
ENDBRANCH   7  11
BRANCH   6  20
HETATM   20  C7  UNL     1      27.319   9.557  48.629  1.00  0.00     0.179 C 
HETATM   21  O2  UNL     1      26.772   9.575  47.499  1.00  0.00    -0.646 OA
BRANCH  20  22
HETATM   22  O3  UNL     1      26.608  10.067  49.686  1.00  0.00    -0.773 OA
HETATM   23  H6  UNL     1      25.642  10.366  49.497  1.00  0.00     0.167 HD
ENDBRANCH  20  22
ENDBRANCH   6  20
BRANCH  10  24
HETATM   24  O4  UNL     1      31.994   4.066  47.923  1.00  0.00    -0.353 OA
HETATM   25  C18 UNL     1      32.224   3.796  46.575  1.00  0.00     0.210 C 
ENDBRANCH  10  24
BRANCH   1  26
HETATM   26  O1  UNL     1      33.970   5.579  48.988  1.00  0.00    -0.353 OA
HETATM   27  C1  UNL     1      35.029   6.118  48.219  1.00  0.00     0.210 C 
ENDBRANCH   1  26
TORSDOF 6
ENDMDL
MODEL 9
REMARK VINA RESULT:      -7.1      3.123      6.364
REMARK  6 active torsions:
REMARK  status: ('A' for Active; 'I' for Inactive)
REMARK    1  A    between atoms: O1_2  and  C2_3 
REMARK    2  A    between atoms: C6_8  and  C7_9 
REMARK    3  A    between atoms: C7_9  and  O3_11 
REMARK    4  A    between atoms: C8_12  and  N2_13 
REMARK    5  A    between atoms: N2_13  and  C9_14 
REMARK    6  A    between atoms: C17_23  and  O4_24 
ROOT
HETATM    1  C2  UNL     1      25.312  -0.225  53.436  1.00  0.00     0.103 A 
HETATM    2  C3  UNL     1      24.054  -0.700  53.803  1.00  0.00     0.072 A 
HETATM    3  C4  UNL     1      22.898  -0.031  53.425  1.00  0.00     0.071 A 
HETATM    4  N1  UNL     1      21.657  -0.460  53.763  1.00  0.00    -0.259 NA
HETATM    5  C5  UNL     1      20.562   0.231  53.368  1.00  0.00     0.138 A 
HETATM    6  C6  UNL     1      20.692   1.379  52.619  1.00  0.00     0.082 A 
HETATM    7  C8  UNL     1      21.924   1.862  52.247  1.00  0.00     0.064 A 
HETATM    8  C15 UNL     1      23.024   1.134  52.666  1.00  0.00     0.023 A 
HETATM    9  C16 UNL     1      24.281   1.585  52.314  1.00  0.00     0.055 A 
HETATM   10  C17 UNL     1      25.433   0.943  52.674  1.00  0.00     0.102 A 
ENDROOT
BRANCH   7  11
HETATM   11  N2  UNL     1      22.131   3.039  51.476  1.00  0.00    -0.355 N 
HETATM   12  H7  UNL     1      22.265   3.936  52.000  1.00  0.00     0.166 HD
BRANCH  11  13
HETATM   13  C9  UNL     1      22.154   3.003  50.052  1.00  0.00     0.034 A 
HETATM   14  C10 UNL     1      21.944   1.797  49.419  1.00  0.00     0.029 A 
HETATM   15  C11 UNL     1      21.966   1.754  48.024  1.00  0.00     0.004 A 
HETATM   16  C12 UNL     1      22.203   2.954  47.356  1.00  0.00     0.024 A 
HETATM   17  C13 UNL     1      22.413   4.156  47.998  1.00  0.00     0.036 A 
HETATM   18 CL1  UNL     1      22.706   5.624  47.100  1.00  0.00    -0.084 Cl
HETATM   19  C14 UNL     1      22.386   4.166  49.364  1.00  0.00     0.053 A 
ENDBRANCH  11  13
ENDBRANCH   7  11
BRANCH   6  20
HETATM   20  C7  UNL     1      19.503   2.115  52.200  1.00  0.00     0.179 C 
HETATM   21  O2  UNL     1      19.407   3.347  52.420  1.00  0.00    -0.646 OA
BRANCH  20  22
HETATM   22  O3  UNL     1      18.456   1.501  51.559  1.00  0.00    -0.773 OA
HETATM   23  H6  UNL     1      18.621   1.186  50.593  1.00  0.00     0.167 HD
ENDBRANCH  20  22
ENDBRANCH   6  20
BRANCH  10  24
HETATM   24  O4  UNL     1      26.709   1.371  52.336  1.00  0.00    -0.353 OA
HETATM   25  C18 UNL     1      26.850   2.413  51.422  1.00  0.00     0.210 C 
ENDBRANCH  10  24
BRANCH   1  26
HETATM   26  O1  UNL     1      26.472  -0.888  53.809  1.00  0.00    -0.353 OA
HETATM   27  C1  UNL     1      27.055  -1.784  52.881  1.00  0.00     0.210 C 
ENDBRANCH   1  26
TORSDOF 6
ENDMDL
