MODEL 1
REMARK VINA RESULT:      -9.5      0.000      0.000
REMARK  6 active torsions:
REMARK  status: ('A' for Active; 'I' for Inactive)
REMARK    1  A    between atoms: C2_2  and  C3_3 
REMARK    2  A    between atoms: C2_2  and  C8_9 
REMARK    3  A    between atoms: C3_3  and  N1_4 
REMARK       I    between atoms: C8_9  and  N2_11 
REMARK    4  A    between atoms: N2_11  and  C9_12 
REMARK    5  A    between atoms: C16_21  and  N5_22 
REMARK    6  A    between atoms: N5_22  and  C17_23 
ROOT
HETATM    1  C9  UNL     1      23.743   3.205  49.888  1.00  0.00     0.036 A 
HETATM    2  C10 UNL     1      22.783   2.769  49.004  1.00  0.00     0.032 A 
HETATM    3  C11 UNL     1      21.924   1.739  49.318  1.00  0.00     0.035 A 
HETATM    4  C12 UNL     1      21.984   1.099  50.525  1.00  0.00     0.069 A 
HETATM    5  N3  UNL     1      21.159   0.084  50.867  1.00  0.00    -0.259 NA
HETATM    6  C13 UNL     1      21.254  -0.523  52.073  1.00  0.00     0.142 A 
HETATM    7  C14 UNL     1      22.197  -0.129  53.005  1.00  0.00     0.089 A 
HETATM    8  C15 UNL     1      22.363  -0.714  54.298  1.00  0.00     0.103 C 
HETATM    9  N4  UNL     1      22.479  -1.190  55.342  1.00  0.00    -0.191 NA
HETATM   10  C16 UNL     1      23.037   0.896  52.670  1.00  0.00     0.067 A 
HETATM   11  C23 UNL     1      22.939   1.518  51.432  1.00  0.00     0.023 A 
HETATM   12  C24 UNL     1      23.774   2.546  51.080  1.00  0.00     0.045 A 
ENDROOT
BRANCH  10  13
HETATM   13  N5  UNL     1      24.032   1.359  53.572  1.00  0.00    -0.354 N 
HETATM   14  H17 UNL     1      23.856   2.040  54.345  1.00  0.00     0.166 HD
BRANCH  13  15
HETATM   15  C17 UNL     1      25.375   0.876  53.437  1.00  0.00     0.034 A 
HETATM   16  C18 UNL     1      25.655  -0.436  53.092  1.00  0.00     0.032 A 
HETATM   17  C19 UNL     1      26.935  -0.933  52.956  1.00  0.00     0.046 A 
HETATM   18  C20 UNL     1      27.967  -0.045  53.185  1.00  0.00     0.138 A 
HETATM   19  F1  UNL     1      29.275  -0.451  53.072  1.00  0.00    -0.204 F 
HETATM   20  C21 UNL     1      27.762   1.274  53.532  1.00  0.00     0.074 A 
HETATM   21 CL1  UNL     1      29.042   2.422  53.830  1.00  0.00    -0.081 Cl
HETATM   22  C22 UNL     1      26.450   1.740  53.660  1.00  0.00     0.056 A 
ENDBRANCH  13  15
ENDBRANCH  10  13
BRANCH   1  23
HETATM   23  N2  UNL     1      24.580   4.267  49.473  1.00  0.00    -0.323 N 
HETATM   24  C8  UNL     1      25.983   4.277  49.275  1.00  0.00     0.253 C 
HETATM   25  O1  UNL     1      26.637   3.226  49.479  1.00  0.00    -0.268 OA
HETATM   26  H13 UNL     1      24.181   5.208  49.265  1.00  0.00     0.169 HD
BRANCH  24  27
HETATM   27  C2  UNL     1      26.770   5.421  48.842  1.00  0.00     0.029 C 
HETATM   28  C1  UNL     1      27.918   4.772  48.583  1.00  0.00     0.026 C 
BRANCH  27  29
HETATM   29  C3  UNL     1      26.085   6.728  48.843  1.00  0.00     0.315 C 
BRANCH  29  30
HETATM   30  N1  UNL     1      26.053   7.389  50.116  1.00  0.00     0.092 N 
HETATM   31  C4  UNL     1      26.647   8.705  50.079  1.00  0.00     0.273 C 
HETATM   32  C5  UNL     1      25.702   9.577  49.282  1.00  0.00     0.032 C 
HETATM   33  C6  UNL     1      24.383   8.884  49.457  1.00  0.00     0.032 C 
HETATM   34  C7  UNL     1      24.647   7.722  50.362  1.00  0.00     0.273 C 
ENDBRANCH  29  30
ENDBRANCH  27  29
ENDBRANCH  24  27
ENDBRANCH   1  23
TORSDOF 6
ENDMDL
MODEL 2
REMARK VINA RESULT:      -9.3      1.660      2.643
REMARK  6 active torsions:
REMARK  status: ('A' for Active; 'I' for Inactive)
REMARK    1  A    between atoms: C2_2  and  C3_3 
REMARK    2  A    between atoms: C2_2  and  C8_9 
REMARK    3  A    between atoms: C3_3  and  N1_4 
REMARK       I    between atoms: C8_9  and  N2_11 
REMARK    4  A    between atoms: N2_11  and  C9_12 
REMARK    5  A    between atoms: C16_21  and  N5_22 
REMARK    6  A    between atoms: N5_22  and  C17_23 
ROOT
HETATM    1  C9  UNL     1      24.255   3.686  49.459  1.00  0.00     0.036 A 
HETATM    2  C10 UNL     1      23.359   3.325  48.479  1.00  0.00     0.032 A 
HETATM    3  C11 UNL     1      22.402   2.359  48.694  1.00  0.00     0.035 A 
HETATM    4  C12 UNL     1      22.296   1.709  49.893  1.00  0.00     0.069 A 
HETATM    5  N3  UNL     1      21.371   0.755  50.141  1.00  0.00    -0.259 NA
HETATM    6  C13 UNL     1      21.302   0.137  51.342  1.00  0.00     0.142 A 
HETATM    7  C14 UNL     1      22.175   0.457  52.367  1.00  0.00     0.089 A 
HETATM    8  C15 UNL     1      22.170  -0.145  53.663  1.00  0.00     0.103 C 
HETATM    9  N4  UNL     1      22.147  -0.634  54.707  1.00  0.00    -0.191 NA
HETATM   10  C16 UNL     1      23.115   1.420  52.129  1.00  0.00     0.067 A 
HETATM   11  C23 UNL     1      23.184   2.054  50.895  1.00  0.00     0.023 A 
HETATM   12  C24 UNL     1      24.121   3.021  50.639  1.00  0.00     0.045 A 
ENDROOT
BRANCH  10  13
HETATM   13  N5  UNL     1      24.046   1.805  53.130  1.00  0.00    -0.354 N 
HETATM   14  H17 UNL     1      23.843   2.494  53.890  1.00  0.00     0.166 HD
BRANCH  13  15
HETATM   15  C17 UNL     1      25.357   1.226  53.123  1.00  0.00     0.034 A 
HETATM   16  C18 UNL     1      25.574  -0.102  52.794  1.00  0.00     0.032 A 
HETATM   17  C19 UNL     1      26.822  -0.692  52.780  1.00  0.00     0.046 A 
HETATM   18  C20 UNL     1      27.887   0.118  53.117  1.00  0.00     0.138 A 
HETATM   19  F1  UNL     1      29.168  -0.382  53.130  1.00  0.00    -0.204 F 
HETATM   20  C21 UNL     1      27.745   1.448  53.456  1.00  0.00     0.074 A 
HETATM   21 CL1  UNL     1      29.070   2.498  53.888  1.00  0.00    -0.081 Cl
HETATM   22  C22 UNL     1      26.465   2.008  53.459  1.00  0.00     0.056 A 
ENDBRANCH  13  15
ENDBRANCH  10  13
BRANCH   1  23
HETATM   23  N2  UNL     1      25.203   4.687  49.141  1.00  0.00    -0.323 N 
HETATM   24  C8  UNL     1      26.607   4.575  48.990  1.00  0.00     0.253 C 
HETATM   25  O1  UNL     1      27.152   3.457  49.148  1.00  0.00    -0.268 OA
HETATM   26  H13 UNL     1      24.902   5.672  48.981  1.00  0.00     0.169 HD
BRANCH  24  27
HETATM   27  C2  UNL     1      27.513   5.664  48.658  1.00  0.00     0.029 C 
HETATM   28  C1  UNL     1      26.607   6.656  48.614  1.00  0.00     0.026 C 
BRANCH  27  29
HETATM   29  C3  UNL     1      28.938   5.311  48.515  1.00  0.00     0.315 C 
BRANCH  29  30
HETATM   30  N1  UNL     1      29.699   6.207  47.692  1.00  0.00     0.092 N 
HETATM   31  C4  UNL     1      30.187   7.357  48.417  1.00  0.00     0.273 C 
HETATM   32  C5  UNL     1      31.263   6.846  49.351  1.00  0.00     0.032 C 
HETATM   33  C6  UNL     1      31.734   5.599  48.665  1.00  0.00     0.032 C 
HETATM   34  C7  UNL     1      30.955   5.511  47.392  1.00  0.00     0.273 C 
ENDBRANCH  29  30
ENDBRANCH  27  29
ENDBRANCH  24  27
ENDBRANCH   1  23
TORSDOF 6
ENDMDL
MODEL 3
REMARK VINA RESULT:      -8.9      4.156      7.612
REMARK  6 active torsions:
REMARK  status: ('A' for Active; 'I' for Inactive)
REMARK    1  A    between atoms: C2_2  and  C3_3 
REMARK    2  A    between atoms: C2_2  and  C8_9 
REMARK    3  A    between atoms: C3_3  and  N1_4 
REMARK       I    between atoms: C8_9  and  N2_11 
REMARK    4  A    between atoms: N2_11  and  C9_12 
REMARK    5  A    between atoms: C16_21  and  N5_22 
REMARK    6  A    between atoms: N5_22  and  C17_23 
ROOT
HETATM    1  C9  UNL     1      21.891  -0.903  53.623  1.00  0.00     0.036 A 
HETATM    2  C10 UNL     1      22.140  -1.539  54.817  1.00  0.00     0.032 A 
HETATM    3  C11 UNL     1      23.365  -1.452  55.442  1.00  0.00     0.035 A 
HETATM    4  C12 UNL     1      24.394  -0.731  54.904  1.00  0.00     0.069 A 
HETATM    5  N3  UNL     1      25.609  -0.624  55.487  1.00  0.00    -0.259 NA
HETATM    6  C13 UNL     1      26.600   0.101  54.918  1.00  0.00     0.142 A 
HETATM    7  C14 UNL     1      26.411   0.763  53.719  1.00  0.00     0.089 A 
HETATM    8  C15 UNL     1      27.402   1.549  53.053  1.00  0.00     0.103 C 
HETATM    9  N4  UNL     1      28.209   2.187  52.533  1.00  0.00    -0.191 NA
HETATM   10  C16 UNL     1      25.187   0.663  53.120  1.00  0.00     0.067 A 
HETATM   11  C23 UNL     1      24.170  -0.081  53.704  1.00  0.00     0.023 A 
HETATM   12  C24 UNL     1      22.936  -0.193  53.116  1.00  0.00     0.045 A 
ENDROOT
BRANCH  10  13
HETATM   13  N5  UNL     1      24.913   1.314  51.888  1.00  0.00    -0.354 N 
HETATM   14  H17 UNL     1      25.267   0.992  50.959  1.00  0.00     0.166 HD
BRANCH  13  15
HETATM   15  C17 UNL     1      24.097   2.493  51.888  1.00  0.00     0.034 A 
HETATM   16  C18 UNL     1      24.179   3.445  52.892  1.00  0.00     0.032 A 
HETATM   17  C19 UNL     1      23.408   4.589  52.923  1.00  0.00     0.046 A 
HETATM   18  C20 UNL     1      22.518   4.759  51.882  1.00  0.00     0.138 A 
HETATM   19  F1  UNL     1      21.708   5.869  51.830  1.00  0.00    -0.204 F 
HETATM   20  C21 UNL     1      22.383   3.853  50.851  1.00  0.00     0.074 A 
HETATM   21 CL1  UNL     1      21.268   4.037  49.522  1.00  0.00    -0.081 Cl
HETATM   22  C22 UNL     1      23.182   2.707  50.855  1.00  0.00     0.056 A 
ENDBRANCH  13  15
ENDBRANCH  10  13
BRANCH   1  23
HETATM   23  N2  UNL     1      20.602  -1.054  53.059  1.00  0.00    -0.323 N 
HETATM   24  C8  UNL     1      19.694  -0.059  52.622  1.00  0.00     0.253 C 
HETATM   25  O1  UNL     1      20.016   1.149  52.720  1.00  0.00    -0.268 OA
HETATM   26  H13 UNL     1      20.194  -2.002  52.913  1.00  0.00     0.169 HD
BRANCH  24  27
HETATM   27  C2  UNL     1      18.380  -0.304  52.048  1.00  0.00     0.029 C 
HETATM   28  C1  UNL     1      17.884  -1.071  53.034  1.00  0.00     0.026 C 
BRANCH  27  29
HETATM   29  C3  UNL     1      18.108   0.320  50.739  1.00  0.00     0.315 C 
BRANCH  29  30
HETATM   30  N1  UNL     1      16.864   1.031  50.658  1.00  0.00     0.092 N 
HETATM   31  C4  UNL     1      16.840   2.213  51.488  1.00  0.00     0.273 C 
HETATM   32  C5  UNL     1      17.778   3.208  50.840  1.00  0.00     0.032 C 
HETATM   33  C6  UNL     1      17.780   2.776  49.403  1.00  0.00     0.032 C 
HETATM   34  C7  UNL     1      16.827   1.627  49.319  1.00  0.00     0.273 C 
ENDBRANCH  29  30
ENDBRANCH  27  29
ENDBRANCH  24  27
ENDBRANCH   1  23
TORSDOF 6
ENDMDL
MODEL 4
REMARK VINA RESULT:      -8.9      3.590      5.835
REMARK  6 active torsions:
REMARK  status: ('A' for Active; 'I' for Inactive)
REMARK    1  A    between atoms: C2_2  and  C3_3 
REMARK    2  A    between atoms: C2_2  and  C8_9 
REMARK    3  A    between atoms: C3_3  and  N1_4 
REMARK       I    between atoms: C8_9  and  N2_11 
REMARK    4  A    between atoms: N2_11  and  C9_12 
REMARK    5  A    between atoms: C16_21  and  N5_22 
REMARK    6  A    between atoms: N5_22  and  C17_23 
ROOT
HETATM    1  C9  UNL     1      27.897   5.409  48.563  1.00  0.00     0.036 A 
HETATM    2  C10 UNL     1      27.267   6.631  48.622  1.00  0.00     0.032 A 
HETATM    3  C11 UNL     1      26.045   6.786  49.239  1.00  0.00     0.035 A 
HETATM    4  C12 UNL     1      25.398   5.732  49.821  1.00  0.00     0.069 A 
HETATM    5  N3  UNL     1      24.198   5.846  50.434  1.00  0.00    -0.259 NA
HETATM    6  C13 UNL     1      23.592   4.775  50.998  1.00  0.00     0.142 A 
HETATM    7  C14 UNL     1      24.175   3.521  50.971  1.00  0.00     0.089 A 
HETATM    8  C15 UNL     1      23.605   2.342  51.541  1.00  0.00     0.103 C 
HETATM    9  N4  UNL     1      23.136   1.400  52.015  1.00  0.00    -0.191 NA
HETATM   10  C16 UNL     1      25.388   3.393  50.354  1.00  0.00     0.067 A 
HETATM   11  C23 UNL     1      26.009   4.493  49.776  1.00  0.00     0.023 A 
HETATM   12  C24 UNL     1      27.225   4.383  49.153  1.00  0.00     0.045 A 
ENDROOT
BRANCH  10  13
HETATM   13  N5  UNL     1      26.053   2.140  50.286  1.00  0.00    -0.354 N 
HETATM   14  H17 UNL     1      26.121   1.555  49.422  1.00  0.00     0.166 HD
BRANCH  13  15
HETATM   15  C17 UNL     1      26.682   1.619  51.463  1.00  0.00     0.034 A 
HETATM   16  C18 UNL     1      27.296   2.440  52.395  1.00  0.00     0.032 A 
HETATM   17  C19 UNL     1      27.913   1.970  53.538  1.00  0.00     0.046 A 
HETATM   18  C20 UNL     1      27.896   0.603  53.727  1.00  0.00     0.138 A 
HETATM   19  F1  UNL     1      28.485   0.045  54.837  1.00  0.00    -0.204 F 
HETATM   20  C21 UNL     1      27.304  -0.273  52.842  1.00  0.00     0.074 A 
HETATM   21 CL1  UNL     1      27.266  -2.005  53.051  1.00  0.00    -0.081 Cl
HETATM   22  C22 UNL     1      26.690   0.241  51.696  1.00  0.00     0.056 A 
ENDBRANCH  13  15
ENDBRANCH  10  13
BRANCH   1  23
HETATM   23  N2  UNL     1      29.148   5.351  47.905  1.00  0.00    -0.323 N 
HETATM   24  C8  UNL     1      30.297   6.158  48.093  1.00  0.00     0.253 C 
HETATM   25  O1  UNL     1      30.268   7.073  48.951  1.00  0.00    -0.268 OA
HETATM   26  H13 UNL     1      29.326   4.640  47.164  1.00  0.00     0.169 HD
BRANCH  24  27
HETATM   27  C2  UNL     1      31.552   6.028  47.370  1.00  0.00     0.029 C 
HETATM   28  C1  UNL     1      31.380   7.046  46.509  1.00  0.00     0.026 C 
BRANCH  27  29
HETATM   29  C3  UNL     1      32.453   4.945  47.808  1.00  0.00     0.315 C 
BRANCH  29  30
HETATM   30  N1  UNL     1      32.395   3.754  47.010  1.00  0.00     0.092 N 
HETATM   31  C4  UNL     1      33.054   3.901  45.734  1.00  0.00     0.273 C 
HETATM   32  C5  UNL     1      34.537   3.973  46.027  1.00  0.00     0.032 C 
HETATM   33  C6  UNL     1      34.653   3.253  47.338  1.00  0.00     0.032 C 
HETATM   34  C7  UNL     1      33.273   2.783  47.671  1.00  0.00     0.273 C 
ENDBRANCH  29  30
ENDBRANCH  27  29
ENDBRANCH  24  27
ENDBRANCH   1  23
TORSDOF 6
ENDMDL
MODEL 5
REMARK VINA RESULT:      -8.8      3.774      7.908
REMARK  6 active torsions:
REMARK  status: ('A' for Active; 'I' for Inactive)
REMARK    1  A    between atoms: C2_2  and  C3_3 
REMARK    2  A    between atoms: C2_2  and  C8_9 
REMARK    3  A    between atoms: C3_3  and  N1_4 
REMARK       I    between atoms: C8_9  and  N2_11 
REMARK    4  A    between atoms: N2_11  and  C9_12 
REMARK    5  A    between atoms: C16_21  and  N5_22 
REMARK    6  A    between atoms: N5_22  and  C17_23 
ROOT
HETATM    1  C9  UNL     1      21.726  -1.050  53.912  1.00  0.00     0.036 A 
HETATM    2  C10 UNL     1      22.158  -1.628  55.083  1.00  0.00     0.032 A 
HETATM    3  C11 UNL     1      23.448  -1.464  55.539  1.00  0.00     0.035 A 
HETATM    4  C12 UNL     1      24.362  -0.720  54.847  1.00  0.00     0.069 A 
HETATM    5  N3  UNL     1      25.637  -0.538  55.261  1.00  0.00    -0.259 NA
HETATM    6  C13 UNL     1      26.510   0.207  54.544  1.00  0.00     0.142 A 
HETATM    7  C14 UNL     1      26.134   0.814  53.359  1.00  0.00     0.089 A 
HETATM    8  C15 UNL     1      26.991   1.615  52.544  1.00  0.00     0.103 C 
HETATM    9  N4  UNL     1      27.693   2.268  51.902  1.00  0.00    -0.191 NA
HETATM   10  C16 UNL     1      24.849   0.637  52.929  1.00  0.00     0.067 A 
HETATM   11  C23 UNL     1      23.954  -0.128  53.666  1.00  0.00     0.023 A 
HETATM   12  C24 UNL     1      22.661  -0.316  53.249  1.00  0.00     0.045 A 
ENDROOT
BRANCH  10  13
HETATM   13  N5  UNL     1      24.387   1.228  51.724  1.00  0.00    -0.354 N 
HETATM   14  H17 UNL     1      24.192   0.698  50.844  1.00  0.00     0.166 HD
BRANCH  13  15
HETATM   15  C17 UNL     1      24.162   2.643  51.682  1.00  0.00     0.034 A 
HETATM   16  C18 UNL     1      23.645   3.339  52.762  1.00  0.00     0.032 A 
HETATM   17  C19 UNL     1      23.414   4.700  52.754  1.00  0.00     0.046 A 
HETATM   18  C20 UNL     1      23.727   5.369  51.589  1.00  0.00     0.138 A 
HETATM   19  F1  UNL     1      23.532   6.726  51.488  1.00  0.00    -0.204 F 
HETATM   20  C21 UNL     1      24.244   4.741  50.475  1.00  0.00     0.074 A 
HETATM   21 CL1  UNL     1      24.650   5.557  48.986  1.00  0.00    -0.081 Cl
HETATM   22  C22 UNL     1      24.464   3.361  50.522  1.00  0.00     0.056 A 
ENDBRANCH  13  15
ENDBRANCH  10  13
BRANCH   1  23
HETATM   23  N2  UNL     1      20.384  -1.279  53.527  1.00  0.00    -0.323 N 
HETATM   24  C8  UNL     1      19.431  -0.365  53.016  1.00  0.00     0.253 C 
HETATM   25  O1  UNL     1      19.759   0.836  52.857  1.00  0.00    -0.268 OA
HETATM   26  H13 UNL     1      19.965  -2.231  53.602  1.00  0.00     0.169 HD
BRANCH  24  27
HETATM   27  C2  UNL     1      18.063  -0.687  52.641  1.00  0.00     0.029 C 
HETATM   28  C1  UNL     1      17.934  -1.819  53.354  1.00  0.00     0.026 C 
BRANCH  27  29
HETATM   29  C3  UNL     1      17.395   0.252  51.720  1.00  0.00     0.315 C 
BRANCH  29  30
HETATM   30  N1  UNL     1      17.677   0.034  50.330  1.00  0.00     0.092 N 
HETATM   31  C4  UNL     1      16.527  -0.435  49.592  1.00  0.00     0.273 C 
HETATM   32  C5  UNL     1      15.569   0.734  49.508  1.00  0.00     0.032 C 
HETATM   33  C6  UNL     1      16.479   1.919  49.645  1.00  0.00     0.032 C 
HETATM   34  C7  UNL     1      17.864   1.365  49.743  1.00  0.00     0.273 C 
ENDBRANCH  29  30
ENDBRANCH  27  29
ENDBRANCH  24  27
ENDBRANCH   1  23
TORSDOF 6
ENDMDL
MODEL 6
REMARK VINA RESULT:      -8.8      2.912      4.474
REMARK  6 active torsions:
REMARK  status: ('A' for Active; 'I' for Inactive)
REMARK    1  A    between atoms: C2_2  and  C3_3 
REMARK    2  A    between atoms: C2_2  and  C8_9 
REMARK    3  A    between atoms: C3_3  and  N1_4 
REMARK       I    between atoms: C8_9  and  N2_11 
REMARK    4  A    between atoms: N2_11  and  C9_12 
REMARK    5  A    between atoms: C16_21  and  N5_22 
REMARK    6  A    between atoms: N5_22  and  C17_23 
ROOT
HETATM    1  C9  UNL     1      26.141   2.594  51.438  1.00  0.00     0.036 A 
HETATM    2  C10 UNL     1      27.006   1.610  51.861  1.00  0.00     0.032 A 
HETATM    3  C11 UNL     1      26.565   0.512  52.566  1.00  0.00     0.035 A 
HETATM    4  C12 UNL     1      25.245   0.347  52.881  1.00  0.00     0.069 A 
HETATM    5  N3  UNL     1      24.775  -0.717  53.573  1.00  0.00    -0.259 NA
HETATM    6  C13 UNL     1      23.459  -0.840  53.864  1.00  0.00     0.142 A 
HETATM    7  C14 UNL     1      22.541   0.115  53.466  1.00  0.00     0.089 A 
HETATM    8  C15 UNL     1      21.138   0.060  53.730  1.00  0.00     0.103 C 
HETATM    9  N4  UNL     1      20.007  -0.003  53.944  1.00  0.00    -0.191 NA
HETATM   10  C16 UNL     1      23.004   1.194  52.767  1.00  0.00     0.067 A 
HETATM   11  C23 UNL     1      24.354   1.320  52.468  1.00  0.00     0.023 A 
HETATM   12  C24 UNL     1      24.835   2.397  51.769  1.00  0.00     0.045 A 
ENDROOT
BRANCH  10  13
HETATM   13  N5  UNL     1      22.124   2.217  52.322  1.00  0.00    -0.354 N 
HETATM   14  H17 UNL     1      21.661   2.911  52.951  1.00  0.00     0.166 HD
BRANCH  13  15
HETATM   15  C17 UNL     1      21.837   2.330  50.922  1.00  0.00     0.034 A 
HETATM   16  C18 UNL     1      21.560   1.224  50.135  1.00  0.00     0.032 A 
HETATM   17  C19 UNL     1      21.282   1.297  48.785  1.00  0.00     0.046 A 
HETATM   18  C20 UNL     1      21.291   2.558  48.224  1.00  0.00     0.138 A 
HETATM   19  F1  UNL     1      21.025   2.729  46.886  1.00  0.00    -0.204 F 
HETATM   20  C21 UNL     1      21.559   3.702  48.946  1.00  0.00     0.074 A 
HETATM   21 CL1  UNL     1      21.579   5.310  48.268  1.00  0.00    -0.081 Cl
HETATM   22  C22 UNL     1      21.836   3.586  50.311  1.00  0.00     0.056 A 
ENDBRANCH  13  15
ENDBRANCH  10  13
BRANCH   1  23
HETATM   23  N2  UNL     1      26.691   3.684  50.723  1.00  0.00    -0.323 N 
HETATM   24  C8  UNL     1      26.208   4.323  49.555  1.00  0.00     0.253 C 
HETATM   25  O1  UNL     1      25.146   3.913  49.029  1.00  0.00    -0.268 OA
HETATM   26  H13 UNL     1      27.577   4.134  51.039  1.00  0.00     0.169 HD
BRANCH  24  27
HETATM   27  C2  UNL     1      26.839   5.447  48.881  1.00  0.00     0.029 C 
HETATM   28  C1  UNL     1      27.988   4.839  48.537  1.00  0.00     0.026 C 
BRANCH  27  29
HETATM   29  C3  UNL     1      26.063   6.700  48.827  1.00  0.00     0.315 C 
BRANCH  29  30
HETATM   30  N1  UNL     1      25.986   7.414  50.069  1.00  0.00     0.092 N 
HETATM   31  C4  UNL     1      26.430   8.783  49.958  1.00  0.00     0.273 C 
HETATM   32  C5  UNL     1      25.377   9.508  49.148  1.00  0.00     0.032 C 
HETATM   33  C6  UNL     1      24.147   8.684  49.389  1.00  0.00     0.032 C 
HETATM   34  C7  UNL     1      24.556   7.603  50.337  1.00  0.00     0.273 C 
ENDBRANCH  29  30
ENDBRANCH  27  29
ENDBRANCH  24  27
ENDBRANCH   1  23
TORSDOF 6
ENDMDL
MODEL 7
REMARK VINA RESULT:      -8.7      2.686      4.116
REMARK  6 active torsions:
REMARK  status: ('A' for Active; 'I' for Inactive)
REMARK    1  A    between atoms: C2_2  and  C3_3 
REMARK    2  A    between atoms: C2_2  and  C8_9 
REMARK    3  A    between atoms: C3_3  and  N1_4 
REMARK       I    between atoms: C8_9  and  N2_11 
REMARK    4  A    between atoms: N2_11  and  C9_12 
REMARK    5  A    between atoms: C16_21  and  N5_22 
REMARK    6  A    between atoms: N5_22  and  C17_23 
ROOT
HETATM    1  C9  UNL     1      25.742   5.931  49.953  1.00  0.00     0.036 A 
HETATM    2  C10 UNL     1      24.784   6.825  50.373  1.00  0.00     0.032 A 
HETATM    3  C11 UNL     1      23.690   6.423  51.107  1.00  0.00     0.035 A 
HETATM    4  C12 UNL     1      23.502   5.113  51.453  1.00  0.00     0.069 A 
HETATM    5  N3  UNL     1      22.441   4.681  52.171  1.00  0.00    -0.259 NA
HETATM    6  C13 UNL     1      22.294   3.374  52.491  1.00  0.00     0.142 A 
HETATM    7  C14 UNL     1      23.224   2.428  52.099  1.00  0.00     0.089 A 
HETATM    8  C15 UNL     1      23.145   1.032  52.396  1.00  0.00     0.103 C 
HETATM    9  N4  UNL     1      23.072  -0.090  52.651  1.00  0.00    -0.191 NA
HETATM   10  C16 UNL     1      24.301   2.853  51.373  1.00  0.00     0.067 A 
HETATM   11  C23 UNL     1      24.450   4.194  51.045  1.00  0.00     0.023 A 
HETATM   12  C24 UNL     1      25.524   4.637  50.317  1.00  0.00     0.045 A 
ENDROOT
BRANCH  10  13
HETATM   13  N5  UNL     1      25.299   1.943  50.934  1.00  0.00    -0.354 N 
HETATM   14  H17 UNL     1      25.365   1.565  49.962  1.00  0.00     0.166 HD
BRANCH  13  15
HETATM   15  C17 UNL     1      26.296   1.500  51.863  1.00  0.00     0.034 A 
HETATM   16  C18 UNL     1      26.989   2.381  52.677  1.00  0.00     0.032 A 
HETATM   17  C19 UNL     1      27.956   1.988  53.580  1.00  0.00     0.046 A 
HETATM   18  C20 UNL     1      28.219   0.634  53.648  1.00  0.00     0.138 A 
HETATM   19  F1  UNL     1      29.165   0.150  54.519  1.00  0.00    -0.204 F 
HETATM   20  C21 UNL     1      27.568  -0.299  52.869  1.00  0.00     0.074 A 
HETATM   21 CL1  UNL     1      27.876  -2.016  52.930  1.00  0.00    -0.081 Cl
HETATM   22  C22 UNL     1      26.595   0.139  51.966  1.00  0.00     0.056 A 
ENDBRANCH  13  15
ENDBRANCH  10  13
BRANCH   1  23
HETATM   23  N2  UNL     1      26.827   6.441  49.203  1.00  0.00    -0.323 N 
HETATM   24  C8  UNL     1      27.878   5.741  48.561  1.00  0.00     0.253 C 
HETATM   25  O1  UNL     1      27.911   4.489  48.628  1.00  0.00    -0.268 OA
HETATM   26  H13 UNL     1      26.937   7.467  49.058  1.00  0.00     0.169 HD
BRANCH  24  27
HETATM   27  C2  UNL     1      28.961   6.349  47.802  1.00  0.00     0.029 C 
HETATM   28  C1  UNL     1      28.254   7.333  47.221  1.00  0.00     0.026 C 
BRANCH  27  29
HETATM   29  C3  UNL     1      30.291   5.727  47.943  1.00  0.00     0.315 C 
BRANCH  29  30
HETATM   30  N1  UNL     1      30.998   6.084  49.140  1.00  0.00     0.092 N 
HETATM   31  C4  UNL     1      32.343   5.560  49.174  1.00  0.00     0.273 C 
HETATM   32  C5  UNL     1      33.129   6.334  48.138  1.00  0.00     0.032 C 
HETATM   33  C6  UNL     1      32.368   7.623  48.040  1.00  0.00     0.032 C 
HETATM   34  C7  UNL     1      31.259   7.523  49.038  1.00  0.00     0.273 C 
ENDBRANCH  29  30
ENDBRANCH  27  29
ENDBRANCH  24  27
ENDBRANCH   1  23
TORSDOF 6
ENDMDL
MODEL 8
REMARK VINA RESULT:      -8.5      3.912      6.891
REMARK  6 active torsions:
REMARK  status: ('A' for Active; 'I' for Inactive)
REMARK    1  A    between atoms: C2_2  and  C3_3 
REMARK    2  A    between atoms: C2_2  and  C8_9 
REMARK    3  A    between atoms: C3_3  and  N1_4 
REMARK       I    between atoms: C8_9  and  N2_11 
REMARK    4  A    between atoms: N2_11  and  C9_12 
REMARK    5  A    between atoms: C16_21  and  N5_22 
REMARK    6  A    between atoms: N5_22  and  C17_23 
ROOT
HETATM    1  C9  UNL     1      22.895  -0.319  53.237  1.00  0.00     0.036 A 
HETATM    2  C10 UNL     1      22.362  -0.988  54.315  1.00  0.00     0.032 A 
HETATM    3  C11 UNL     1      21.012  -1.244  54.413  1.00  0.00     0.035 A 
HETATM    4  C12 UNL     1      20.135  -0.844  53.443  1.00  0.00     0.069 A 
HETATM    5  N3  UNL     1      18.804  -1.076  53.506  1.00  0.00    -0.259 NA
HETATM    6  C13 UNL     1      17.972  -0.662  52.523  1.00  0.00     0.142 A 
HETATM    7  C14 UNL     1      18.447   0.014  51.414  1.00  0.00     0.089 A 
HETATM    8  C15 UNL     1      17.639   0.484  50.334  1.00  0.00     0.103 C 
HETATM    9  N4  UNL     1      16.974   0.849  49.465  1.00  0.00    -0.191 NA
HETATM   10  C16 UNL     1      19.791   0.255  51.340  1.00  0.00     0.067 A 
HETATM   11  C23 UNL     1      20.645  -0.170  52.349  1.00  0.00     0.023 A 
HETATM   12  C24 UNL     1      21.994   0.063  52.291  1.00  0.00     0.045 A 
ENDROOT
BRANCH  10  13
HETATM   13  N5  UNL     1      20.357   0.943  50.233  1.00  0.00    -0.354 N 
HETATM   14  H17 UNL     1      20.389   0.566  49.259  1.00  0.00     0.166 HD
BRANCH  13  15
HETATM   15  C17 UNL     1      20.926   2.242  50.437  1.00  0.00     0.034 A 
HETATM   16  C18 UNL     1      20.271   3.230  51.154  1.00  0.00     0.032 A 
HETATM   17  C19 UNL     1      20.789   4.491  51.366  1.00  0.00     0.046 A 
HETATM   18  C20 UNL     1      22.031   4.745  50.819  1.00  0.00     0.138 A 
HETATM   19  F1  UNL     1      22.627   5.973  50.979  1.00  0.00    -0.204 F 
HETATM   20  C21 UNL     1      22.740   3.810  50.094  1.00  0.00     0.074 A 
HETATM   21 CL1  UNL     1      24.310   4.099  49.389  1.00  0.00    -0.081 Cl
HETATM   22  C22 UNL     1      22.180   2.544  49.901  1.00  0.00     0.056 A 
ENDBRANCH  13  15
ENDBRANCH  10  13
BRANCH   1  23
HETATM   23  N2  UNL     1      24.293  -0.102  53.229  1.00  0.00    -0.323 N 
HETATM   24  C8  UNL     1      25.008   1.119  53.168  1.00  0.00     0.253 C 
HETATM   25  O1  UNL     1      24.373   2.199  53.111  1.00  0.00    -0.268 OA
HETATM   26  H13 UNL     1      24.956  -0.905  53.271  1.00  0.00     0.169 HD
BRANCH  24  27
HETATM   27  C2  UNL     1      26.457   1.253  53.166  1.00  0.00     0.029 C 
HETATM   28  C1  UNL     1      26.530   2.506  53.649  1.00  0.00     0.026 C 
BRANCH  27  29
HETATM   29  C3  UNL     1      27.224   0.087  52.691  1.00  0.00     0.315 C 
BRANCH  29  30
HETATM   30  N1  UNL     1      27.624  -0.830  53.720  1.00  0.00     0.092 N 
HETATM   31  C4  UNL     1      28.677  -1.723  53.298  1.00  0.00     0.273 C 
HETATM   32  C5  UNL     1      29.926  -0.878  53.169  1.00  0.00     0.032 C 
HETATM   33  C6  UNL     1      29.652   0.264  54.103  1.00  0.00     0.032 C 
HETATM   34  C7  UNL     1      28.324  -0.025  54.726  1.00  0.00     0.273 C 
ENDBRANCH  29  30
ENDBRANCH  27  29
ENDBRANCH  24  27
ENDBRANCH   1  23
TORSDOF 6
ENDMDL
MODEL 9
REMARK VINA RESULT:      -8.4      3.821      6.392
REMARK  6 active torsions:
REMARK  status: ('A' for Active; 'I' for Inactive)
REMARK    1  A    between atoms: C2_2  and  C3_3 
REMARK    2  A    between atoms: C2_2  and  C8_9 
REMARK    3  A    between atoms: C3_3  and  N1_4 
REMARK       I    between atoms: C8_9  and  N2_11 
REMARK    4  A    between atoms: N2_11  and  C9_12 
REMARK    5  A    between atoms: C16_21  and  N5_22 
REMARK    6  A    between atoms: N5_22  and  C17_23 
ROOT
HETATM    1  C9  UNL     1      20.853  -0.151  52.604  1.00  0.00     0.036 A 
HETATM    2  C10 UNL     1      20.426  -0.825  53.725  1.00  0.00     0.032 A 
HETATM    3  C11 UNL     1      21.304  -1.229  54.706  1.00  0.00     0.035 A 
HETATM    4  C12 UNL     1      22.646  -0.981  54.612  1.00  0.00     0.069 A 
HETATM    5  N3  UNL     1      23.538  -1.364  55.554  1.00  0.00    -0.259 NA
HETATM    6  C13 UNL     1      24.858  -1.098  55.421  1.00  0.00     0.142 A 
HETATM    7  C14 UNL     1      25.349  -0.423  54.318  1.00  0.00     0.089 A 
HETATM    8  C15 UNL     1      26.724  -0.103  54.101  1.00  0.00     0.103 C 
HETATM    9  N4  UNL     1      27.837   0.157  53.944  1.00  0.00    -0.191 NA
HETATM   10  C16 UNL     1      24.457  -0.032  53.359  1.00  0.00     0.067 A 
HETATM   11  C23 UNL     1      23.102  -0.305  53.496  1.00  0.00     0.023 A 
HETATM   12  C24 UNL     1      22.194   0.080  52.544  1.00  0.00     0.045 A 
ENDROOT
BRANCH  10  13
HETATM   13  N5  UNL     1      24.882   0.666  52.197  1.00  0.00    -0.354 N 
HETATM   14  H17 UNL     1      25.471   0.249  51.442  1.00  0.00     0.166 HD
BRANCH  13  15
HETATM   15  C17 UNL     1      24.489   2.033  52.022  1.00  0.00     0.034 A 
HETATM   16  C18 UNL     1      24.296   2.888  53.096  1.00  0.00     0.032 A 
HETATM   17  C19 UNL     1      23.916   4.208  52.962  1.00  0.00     0.046 A 
HETATM   18  C20 UNL     1      23.727   4.666  51.674  1.00  0.00     0.138 A 
HETATM   19  F1  UNL     1      23.348   5.967  51.444  1.00  0.00    -0.204 F 
HETATM   20  C21 UNL     1      23.900   3.872  50.560  1.00  0.00     0.074 A 
HETATM   21 CL1  UNL     1      23.668   4.418  48.919  1.00  0.00    -0.081 Cl
HETATM   22  C22 UNL     1      24.285   2.540  50.736  1.00  0.00     0.056 A 
ENDBRANCH  13  15
ENDBRANCH  10  13
BRANCH   1  23
HETATM   23  N2  UNL     1      19.875   0.220  51.652  1.00  0.00    -0.323 N 
HETATM   24  C8  UNL     1      19.181   1.446  51.513  1.00  0.00     0.253 C 
HETATM   25  O1  UNL     1      19.420   2.379  52.317  1.00  0.00    -0.268 OA
HETATM   26  H13 UNL     1      19.569  -0.452  50.916  1.00  0.00     0.169 HD
BRANCH  24  27
HETATM   27  C2  UNL     1      18.184   1.746  50.497  1.00  0.00     0.029 C 
HETATM   28  C1  UNL     1      17.876   0.482  50.157  1.00  0.00     0.026 C 
BRANCH  27  29
HETATM   29  C3  UNL     1      17.908   3.174  50.248  1.00  0.00     0.315 C 
BRANCH  29  30
HETATM   30  N1  UNL     1      18.218   3.624  48.921  1.00  0.00     0.092 N 
HETATM   31  C4  UNL     1      17.997   5.040  48.743  1.00  0.00     0.273 C 
HETATM   32  C5  UNL     1      19.074   5.743  49.541  1.00  0.00     0.032 C 
HETATM   33  C6  UNL     1      20.169   4.718  49.595  1.00  0.00     0.032 C 
HETATM   34  C7  UNL     1      19.678   3.550  48.802  1.00  0.00     0.273 C 
ENDBRANCH  29  30
ENDBRANCH  27  29
ENDBRANCH  24  27
ENDBRANCH   1  23
TORSDOF 6
ENDMDL
