MODEL 1
REMARK VINA RESULT:      -8.1      0.000      0.000
REMARK  4 active torsions:
REMARK  status: ('A' for Active; 'I' for Inactive)
REMARK    1  A    between atoms: C2_2  and  C3_3 
REMARK    2  A    between atoms: C6_6  and  C7_7 
REMARK    3  A    between atoms: C10_11  and  N2_12 
REMARK       I    between atoms: N2_12  and  C11_13 
REMARK    4  A    between atoms: C13_17  and  C14_18 
ROOT
HETATM    1  C7  UNL     1      23.029   1.213  53.117  1.00  0.00     0.171 A 
HETATM    2  N1  UNL     1      23.548   2.380  52.923  1.00  0.00     0.011 N 
HETATM    3  C8  UNL     1      25.042   2.031  52.751  1.00  0.00     0.232 A 
HETATM    4  C9  UNL     1      26.412   1.775  52.587  1.00  0.00     0.048 A 
HETATM    5  C10 UNL     1      26.426   0.401  52.730  1.00  0.00     0.033 A 
HETATM    6  C12 UNL     1      25.057   0.228  52.938  1.00  0.00     0.050 A 
HETATM    7  C13 UNL     1      24.427   1.570  52.885  1.00  0.00     0.237 A 
HETATM    8  C14 UNL     1      24.241   3.015  52.760  1.00  0.00     0.290 A 
ENDROOT
BRANCH   1   9
HETATM    9  C6  UNL     1      21.963   0.301  53.367  1.00  0.00    -0.002 A 
HETATM   10  C5  UNL     1      20.881   0.680  52.611  1.00  0.00     0.014 A 
HETATM   11  C4  UNL     1      19.719  -0.046  52.680  1.00  0.00     0.008 A 
HETATM   12  C3  UNL     1      19.748  -1.127  53.532  1.00  0.00    -0.059 A 
HETATM   13  C16 UNL     1      20.819  -1.516  54.291  1.00  0.00     0.008 A 
HETATM   14  C15 UNL     1      21.963  -0.766  54.195  1.00  0.00     0.014 A 
BRANCH  12  15
HETATM   15  C2  UNL     1      18.525  -1.959  53.658  1.00  0.00     0.034 C 
HETATM   16  C1  UNL     1      17.340  -1.345  52.943  1.00  0.00     0.010 C 
ENDBRANCH  12  15
ENDBRANCH   1   9
BRANCH   5  17
HETATM   17  N2  UNL     1      27.670  -0.180  52.620  1.00  0.00    -0.314 N 
HETATM   18  C11 UNL     1      28.226  -0.489  53.890  1.00  0.00     0.319 C 
HETATM   19  O1  UNL     1      27.563  -0.219  54.924  1.00  0.00    -0.254 OA
HETATM   20 CL1  UNL     1      29.825  -1.229  53.689  1.00  0.00    -0.020 Cl
HETATM   21  H9  UNL     1      27.912  -0.255  51.614  1.00  0.00     0.170 HD
ENDBRANCH   5  17
TORSDOF 4
ENDMDL
MODEL 2
REMARK VINA RESULT:      -8.0      3.988      7.173
REMARK  4 active torsions:
REMARK  status: ('A' for Active; 'I' for Inactive)
REMARK    1  A    between atoms: C2_2  and  C3_3 
REMARK    2  A    between atoms: C6_6  and  C7_7 
REMARK    3  A    between atoms: C10_11  and  N2_12 
REMARK       I    between atoms: N2_12  and  C11_13 
REMARK    4  A    between atoms: C13_17  and  C14_18 
ROOT
HETATM    1  C7  UNL     1      23.832  -0.724  54.048  1.00  0.00     0.171 A 
HETATM    2  N1  UNL     1      22.844  -1.214  54.719  1.00  0.00     0.011 N 
HETATM    3  C8  UNL     1      21.633  -0.644  53.951  1.00  0.00     0.232 A 
HETATM    4  C9  UNL     1      20.493  -0.155  53.293  1.00  0.00     0.048 A 
HETATM    5  C10 UNL     1      21.086   0.584  52.288  1.00  0.00     0.033 A 
HETATM    6  C12 UNL     1      22.414   0.324  52.633  1.00  0.00     0.050 A 
HETATM    7  C13 UNL     1      22.398  -0.555  53.827  1.00  0.00     0.237 A 
HETATM    8  C14 UNL     1      21.932  -1.376  54.944  1.00  0.00     0.290 A 
ENDROOT
BRANCH   1   9
HETATM    9  C6  UNL     1      25.210  -0.506  53.754  1.00  0.00    -0.002 A 
HETATM   10  C5  UNL     1      25.828  -0.041  54.888  1.00  0.00     0.014 A 
HETATM   11  C4  UNL     1      27.168   0.249  54.858  1.00  0.00     0.008 A 
HETATM   12  C3  UNL     1      27.792   0.038  53.649  1.00  0.00    -0.059 A 
HETATM   13  C16 UNL     1      27.188  -0.426  52.511  1.00  0.00     0.008 A 
HETATM   14  C15 UNL     1      25.848  -0.705  52.580  1.00  0.00     0.014 A 
BRANCH  12  15
HETATM   15  C2  UNL     1      29.243   0.330  53.543  1.00  0.00     0.034 C 
HETATM   16  C1  UNL     1      30.090  -0.915  53.705  1.00  0.00     0.010 C 
ENDBRANCH  12  15
ENDBRANCH   1   9
BRANCH   5  17
HETATM   17  N2  UNL     1      20.207   1.218  51.439  1.00  0.00    -0.314 N 
HETATM   18  C11 UNL     1      19.875   2.522  51.892  1.00  0.00     0.319 C 
HETATM   19  O1  UNL     1      20.391   2.942  52.959  1.00  0.00    -0.254 OA
HETATM   20 CL1  UNL     1      18.739   3.286  50.765  1.00  0.00    -0.020 Cl
HETATM   21  H9  UNL     1      19.988   0.577  50.652  1.00  0.00     0.170 HD
ENDBRANCH   5  17
TORSDOF 4
ENDMDL
MODEL 3
REMARK VINA RESULT:      -7.8      2.863      3.537
REMARK  4 active torsions:
REMARK  status: ('A' for Active; 'I' for Inactive)
REMARK    1  A    between atoms: C2_2  and  C3_3 
REMARK    2  A    between atoms: C6_6  and  C7_7 
REMARK    3  A    between atoms: C10_11  and  N2_12 
REMARK       I    between atoms: N2_12  and  C11_13 
REMARK    4  A    between atoms: C13_17  and  C14_18 
ROOT
HETATM    1  C7  UNL     1      24.181  -0.116  53.078  1.00  0.00     0.171 A 
HETATM    2  N1  UNL     1      25.351  -0.512  53.451  1.00  0.00     0.011 N 
HETATM    3  C8  UNL     1      26.261   0.558  52.812  1.00  0.00     0.232 A 
HETATM    4  C9  UNL     1      27.138   1.502  52.254  1.00  0.00     0.048 A 
HETATM    5  C10 UNL     1      26.237   2.329  51.613  1.00  0.00     0.033 A 
HETATM    6  C12 UNL     1      25.076   1.642  51.972  1.00  0.00     0.050 A 
HETATM    7  C13 UNL     1      25.486   0.478  52.795  1.00  0.00     0.237 A 
HETATM    8  C14 UNL     1      26.302  -0.492  53.523  1.00  0.00     0.290 A 
ENDROOT
BRANCH   1   9
HETATM    9  C6  UNL     1      22.760  -0.191  52.992  1.00  0.00    -0.002 A 
HETATM   10  C5  UNL     1      22.303  -0.971  54.025  1.00  0.00     0.014 A 
HETATM   11  C4  UNL     1      20.957  -1.198  54.158  1.00  0.00     0.008 A 
HETATM   12  C3  UNL     1      20.160  -0.599  53.209  1.00  0.00    -0.059 A 
HETATM   13  C16 UNL     1      20.602   0.182  52.174  1.00  0.00     0.008 A 
HETATM   14  C15 UNL     1      21.954   0.386  52.074  1.00  0.00     0.014 A 
BRANCH  12  15
HETATM   15  C2  UNL     1      18.692  -0.801  53.289  1.00  0.00     0.034 C 
HETATM   16  C1  UNL     1      18.010  -0.581  51.955  1.00  0.00     0.010 C 
ENDBRANCH  12  15
ENDBRANCH   1   9
BRANCH   5  17
HETATM   17  N2  UNL     1      26.801   3.392  50.943  1.00  0.00    -0.314 N 
HETATM   18  C11 UNL     1      26.093   3.705  49.752  1.00  0.00     0.319 C 
HETATM   19  O1  UNL     1      25.082   3.022  49.450  1.00  0.00    -0.254 OA
HETATM   20 CL1  UNL     1      26.865   5.074  48.930  1.00  0.00    -0.020 Cl
HETATM   21  H9  UNL     1      27.628   3.718  51.478  1.00  0.00     0.170 HD
ENDBRANCH   5  17
TORSDOF 4
ENDMDL
MODEL 4
REMARK VINA RESULT:      -7.7      3.996      6.711
REMARK  4 active torsions:
REMARK  status: ('A' for Active; 'I' for Inactive)
REMARK    1  A    between atoms: C2_2  and  C3_3 
REMARK    2  A    between atoms: C6_6  and  C7_7 
REMARK    3  A    between atoms: C10_11  and  N2_12 
REMARK       I    between atoms: N2_12  and  C11_13 
REMARK    4  A    between atoms: C13_17  and  C14_18 
ROOT
HETATM    1  C7  UNL     1      24.188   1.103  52.933  1.00  0.00     0.171 A 
HETATM    2  N1  UNL     1      22.914   1.028  52.738  1.00  0.00     0.011 N 
HETATM    3  C8  UNL     1      22.550   2.507  52.487  1.00  0.00     0.232 A 
HETATM    4  C9  UNL     1      22.158   3.834  52.252  1.00  0.00     0.048 A 
HETATM    5  C10 UNL     1      23.377   4.475  52.367  1.00  0.00     0.033 A 
HETATM    6  C12 UNL     1      24.149   3.345  52.637  1.00  0.00     0.050 A 
HETATM    7  C13 UNL     1      23.238   2.174  52.642  1.00  0.00     0.237 A 
HETATM    8  C14 UNL     1      22.035   1.349  52.555  1.00  0.00     0.290 A 
ENDROOT
BRANCH   1   9
HETATM    9  C6  UNL     1      25.483   0.579  53.217  1.00  0.00    -0.002 A 
HETATM   10  C5  UNL     1      25.768  -0.395  52.293  1.00  0.00     0.014 A 
HETATM   11  C4  UNL     1      26.967  -1.058  52.356  1.00  0.00     0.008 A 
HETATM   12  C3  UNL     1      27.804  -0.669  53.378  1.00  0.00    -0.059 A 
HETATM   13  C16 UNL     1      27.532   0.301  54.305  1.00  0.00     0.008 A 
HETATM   14  C15 UNL     1      26.324   0.941  54.209  1.00  0.00     0.014 A 
BRANCH  12  15
HETATM   15  C2  UNL     1      29.120  -1.343  53.509  1.00  0.00     0.034 C 
HETATM   16  C1  UNL     1      30.264  -0.354  53.586  1.00  0.00     0.010 C 
ENDBRANCH  12  15
ENDBRANCH   1   9
BRANCH   5  17
HETATM   17  N2  UNL     1      23.333   5.839  52.186  1.00  0.00    -0.314 N 
HETATM   18  C11 UNL     1      24.071   6.249  51.044  1.00  0.00     0.319 C 
HETATM   19  O1  UNL     1      24.653   5.374  50.353  1.00  0.00    -0.254 OA
HETATM   20 CL1  UNL     1      23.983   8.011  50.864  1.00  0.00    -0.020 Cl
HETATM   21  H9  UNL     1      22.759   6.255  52.945  1.00  0.00     0.170 HD
ENDBRANCH   5  17
TORSDOF 4
ENDMDL
MODEL 5
REMARK VINA RESULT:      -7.6      3.388      6.790
REMARK  4 active torsions:
REMARK  status: ('A' for Active; 'I' for Inactive)
REMARK    1  A    between atoms: C2_2  and  C3_3 
REMARK    2  A    between atoms: C6_6  and  C7_7 
REMARK    3  A    between atoms: C10_11  and  N2_12 
REMARK       I    between atoms: N2_12  and  C11_13 
REMARK    4  A    between atoms: C13_17  and  C14_18 
ROOT
HETATM    1  C7  UNL     1      24.991   2.051  52.766  1.00  0.00     0.171 A 
HETATM    2  N1  UNL     1      24.384   3.182  52.625  1.00  0.00     0.011 N 
HETATM    3  C8  UNL     1      22.919   2.729  52.445  1.00  0.00     0.232 A 
HETATM    4  C9  UNL     1      21.571   2.377  52.275  1.00  0.00     0.048 A 
HETATM    5  C10 UNL     1      21.662   1.001  52.356  1.00  0.00     0.033 A 
HETATM    6  C12 UNL     1      23.042   0.924  52.552  1.00  0.00     0.050 A 
HETATM    7  C13 UNL     1      23.568   2.310  52.555  1.00  0.00     0.237 A 
HETATM    8  C14 UNL     1      23.645   3.769  52.493  1.00  0.00     0.290 A 
ENDROOT
BRANCH   1   9
HETATM    9  C6  UNL     1      26.126   1.211  52.960  1.00  0.00    -0.002 A 
HETATM   10  C5  UNL     1      27.166   1.985  53.413  1.00  0.00     0.014 A 
HETATM   11  C4  UNL     1      28.380   1.402  53.674  1.00  0.00     0.008 A 
HETATM   12  C3  UNL     1      28.445   0.046  53.449  1.00  0.00    -0.059 A 
HETATM   13  C16 UNL     1      27.416  -0.738  52.998  1.00  0.00     0.008 A 
HETATM   14  C15 UNL     1      26.218  -0.120  52.749  1.00  0.00     0.014 A 
BRANCH  12  15
HETATM   15  C2  UNL     1      29.728  -0.653  53.709  1.00  0.00     0.034 C 
HETATM   16  C1  UNL     1      29.658  -2.126  53.364  1.00  0.00     0.010 C 
ENDBRANCH  12  15
ENDBRANCH   1   9
BRANCH   5  17
HETATM   17  N2  UNL     1      20.466   0.333  52.220  1.00  0.00    -0.314 N 
HETATM   18  C11 UNL     1      20.028  -0.229  53.448  1.00  0.00     0.319 C 
HETATM   19  O1  UNL     1      20.735  -0.066  54.475  1.00  0.00    -0.254 OA
HETATM   20 CL1  UNL     1      18.490  -1.080  53.213  1.00  0.00    -0.020 Cl
HETATM   21  H9  UNL     1      20.162   0.398  51.229  1.00  0.00     0.170 HD
ENDBRANCH   5  17
TORSDOF 4
ENDMDL
MODEL 6
REMARK VINA RESULT:      -7.5      4.506      7.783
REMARK  4 active torsions:
REMARK  status: ('A' for Active; 'I' for Inactive)
REMARK    1  A    between atoms: C2_2  and  C3_3 
REMARK    2  A    between atoms: C6_6  and  C7_7 
REMARK    3  A    between atoms: C10_11  and  N2_12 
REMARK       I    between atoms: N2_12  and  C11_13 
REMARK    4  A    between atoms: C13_17  and  C14_18 
ROOT
HETATM    1  C7  UNL     1      25.494   3.966  49.811  1.00  0.00     0.171 A 
HETATM    2  N1  UNL     1      24.373   3.385  50.079  1.00  0.00     0.011 N 
HETATM    3  C8  UNL     1      24.824   2.267  51.043  1.00  0.00     0.232 A 
HETATM    4  C9  UNL     1      25.175   1.232  51.924  1.00  0.00     0.048 A 
HETATM    5  C10 UNL     1      26.541   1.427  52.003  1.00  0.00     0.033 A 
HETATM    6  C12 UNL     1      26.615   2.526  51.146  1.00  0.00     0.050 A 
HETATM    7  C13 UNL     1      25.238   2.817  50.677  1.00  0.00     0.237 A 
HETATM    8  C14 UNL     1      23.791   2.747  50.484  1.00  0.00     0.290 A 
ENDROOT
BRANCH   1   9
HETATM    9  C6  UNL     1      26.325   4.936  49.178  1.00  0.00    -0.002 A 
HETATM   10  C5  UNL     1      25.616   6.105  49.060  1.00  0.00     0.014 A 
HETATM   11  C4  UNL     1      26.204   7.197  48.475  1.00  0.00     0.008 A 
HETATM   12  C3  UNL     1      27.499   7.013  48.046  1.00  0.00    -0.059 A 
HETATM   13  C16 UNL     1      28.218   5.853  48.159  1.00  0.00     0.008 A 
HETATM   14  C15 UNL     1      27.597   4.783  48.749  1.00  0.00     0.014 A 
BRANCH  12  15
HETATM   15  C2  UNL     1      28.200   8.152  47.403  1.00  0.00     0.034 C 
HETATM   16  C1  UNL     1      29.229   7.693  46.391  1.00  0.00     0.010 C 
ENDBRANCH  12  15
ENDBRANCH   1   9
BRANCH   5  17
HETATM   17  N2  UNL     1      27.206   0.538  52.818  1.00  0.00    -0.314 N 
HETATM   18  C11 UNL     1      27.770   1.178  53.954  1.00  0.00     0.319 C 
HETATM   19  O1  UNL     1      27.611   2.417  54.093  1.00  0.00    -0.254 OA
HETATM   20 CL1  UNL     1      28.616  -0.010  54.961  1.00  0.00    -0.020 Cl
HETATM   21  H9  UNL     1      27.138  -0.409  52.399  1.00  0.00     0.170 HD
ENDBRANCH   5  17
TORSDOF 4
ENDMDL
MODEL 7
REMARK VINA RESULT:      -7.2      2.508      3.887
REMARK  4 active torsions:
REMARK  status: ('A' for Active; 'I' for Inactive)
REMARK    1  A    between atoms: C2_2  and  C3_3 
REMARK    2  A    between atoms: C6_6  and  C7_7 
REMARK    3  A    between atoms: C10_11  and  N2_12 
REMARK       I    between atoms: N2_12  and  C11_13 
REMARK    4  A    between atoms: C13_17  and  C14_18 
ROOT
HETATM    1  C7  UNL     1      21.864   0.150  53.073  1.00  0.00     0.171 A 
HETATM    2  N1  UNL     1      21.667  -0.478  54.184  1.00  0.00     0.011 N 
HETATM    3  C8  UNL     1      23.110  -0.834  54.600  1.00  0.00     0.232 A 
HETATM    4  C9  UNL     1      24.399  -1.187  55.030  1.00  0.00     0.048 A 
HETATM    5  C10 UNL     1      25.156  -0.655  54.004  1.00  0.00     0.033 A 
HETATM    6  C12 UNL     1      24.100  -0.135  53.253  1.00  0.00     0.050 A 
HETATM    7  C13 UNL     1      22.843  -0.452  53.975  1.00  0.00     0.237 A 
HETATM    8  C14 UNL     1      21.903  -0.955  54.975  1.00  0.00     0.290 A 
ENDROOT
BRANCH   1   9
HETATM    9  C6  UNL     1      21.463   0.854  51.900  1.00  0.00    -0.002 A 
HETATM   10  C5  UNL     1      21.062   2.115  52.266  1.00  0.00     0.014 A 
HETATM   11  C4  UNL     1      20.623   2.991  51.307  1.00  0.00     0.008 A 
HETATM   12  C3  UNL     1      20.628   2.507  50.018  1.00  0.00    -0.059 A 
HETATM   13  C16 UNL     1      21.026   1.253  49.639  1.00  0.00     0.008 A 
HETATM   14  C15 UNL     1      21.457   0.406  50.626  1.00  0.00     0.014 A 
BRANCH  12  15
HETATM   15  C2  UNL     1      20.166   3.401  48.926  1.00  0.00     0.034 C 
HETATM   16  C1  UNL     1      20.689   2.966  47.573  1.00  0.00     0.010 C 
ENDBRANCH  12  15
ENDBRANCH   1   9
BRANCH   5  17
HETATM   17  N2  UNL     1      26.514  -0.841  54.130  1.00  0.00    -0.314 N 
HETATM   18  C11 UNL     1      27.176   0.341  54.555  1.00  0.00     0.319 C 
HETATM   19  O1  UNL     1      26.493   1.376  54.764  1.00  0.00    -0.254 OA
HETATM   20 CL1  UNL     1      28.918   0.045  54.695  1.00  0.00    -0.020 Cl
HETATM   21  H9  UNL     1      26.738  -1.823  53.877  1.00  0.00     0.170 HD
ENDBRANCH   5  17
TORSDOF 4
ENDMDL
MODEL 8
REMARK VINA RESULT:      -7.1      4.113      6.928
REMARK  4 active torsions:
REMARK  status: ('A' for Active; 'I' for Inactive)
REMARK    1  A    between atoms: C2_2  and  C3_3 
REMARK    2  A    between atoms: C6_6  and  C7_7 
REMARK    3  A    between atoms: C10_11  and  N2_12 
REMARK       I    between atoms: N2_12  and  C11_13 
REMARK    4  A    between atoms: C13_17  and  C14_18 
ROOT
HETATM    1  C7  UNL     1      23.965   0.873  52.392  1.00  0.00     0.171 A 
HETATM    2  N1  UNL     1      22.708   0.578  52.357  1.00  0.00     0.011 N 
HETATM    3  C8  UNL     1      22.243   1.346  51.101  1.00  0.00     0.232 A 
HETATM    4  C9  UNL     1      21.762   2.022  49.969  1.00  0.00     0.048 A 
HETATM    5  C10 UNL     1      22.923   2.628  49.531  1.00  0.00     0.033 A 
HETATM    6  C12 UNL     1      23.768   2.139  50.528  1.00  0.00     0.050 A 
HETATM    7  C13 UNL     1      22.948   1.294  51.430  1.00  0.00     0.237 A 
HETATM    8  C14 UNL     1      21.815   0.587  52.024  1.00  0.00     0.290 A 
ENDROOT
BRANCH   1   9
HETATM    9  C6  UNL     1      25.284   0.837  52.930  1.00  0.00    -0.002 A 
HETATM   10  C5  UNL     1      25.787  -0.429  52.762  1.00  0.00     0.014 A 
HETATM   11  C4  UNL     1      27.051  -0.720  53.206  1.00  0.00     0.008 A 
HETATM   12  C3  UNL     1      27.724   0.324  53.799  1.00  0.00    -0.059 A 
HETATM   13  C16 UNL     1      27.235   1.591  53.972  1.00  0.00     0.008 A 
HETATM   14  C15 UNL     1      25.968   1.844  53.516  1.00  0.00     0.014 A 
BRANCH  12  15
HETATM   15  C2  UNL     1      29.099   0.083  54.304  1.00  0.00     0.034 C 
HETATM   16  C1  UNL     1      29.820  -0.987  53.510  1.00  0.00     0.010 C 
ENDBRANCH  12  15
ENDBRANCH   1   9
BRANCH   5  17
HETATM   17  N2  UNL     1      22.783   3.396  48.397  1.00  0.00    -0.314 N 
HETATM   18  C11 UNL     1      22.845   4.786  48.685  1.00  0.00     0.319 C 
HETATM   19  O1  UNL     1      23.014   5.151  49.876  1.00  0.00    -0.254 OA
HETATM   20 CL1  UNL     1      22.655   5.724  47.192  1.00  0.00    -0.020 Cl
HETATM   21  H9  UNL     1      22.662   2.764  47.582  1.00  0.00     0.170 HD
ENDBRANCH   5  17
TORSDOF 4
ENDMDL
MODEL 9
REMARK VINA RESULT:      -7.1      4.009      6.932
REMARK  4 active torsions:
REMARK  status: ('A' for Active; 'I' for Inactive)
REMARK    1  A    between atoms: C2_2  and  C3_3 
REMARK    2  A    between atoms: C6_6  and  C7_7 
REMARK    3  A    between atoms: C10_11  and  N2_12 
REMARK       I    between atoms: N2_12  and  C11_13 
REMARK    4  A    between atoms: C13_17  and  C14_18 
ROOT
HETATM    1  C7  UNL     1      24.655   1.929  52.674  1.00  0.00     0.171 A 
HETATM    2  N1  UNL     1      24.234   3.145  52.573  1.00  0.00     0.011 N 
HETATM    3  C8  UNL     1      22.712   2.936  52.421  1.00  0.00     0.232 A 
HETATM    4  C9  UNL     1      21.322   2.808  52.280  1.00  0.00     0.048 A 
HETATM    5  C10 UNL     1      21.194   1.433  52.328  1.00  0.00     0.033 A 
HETATM    6  C12 UNL     1      22.548   1.132  52.486  1.00  0.00     0.050 A 
HETATM    7  C13 UNL     1      23.288   2.417  52.506  1.00  0.00     0.237 A 
HETATM    8  C14 UNL     1      23.595   3.846  52.473  1.00  0.00     0.290 A 
ENDROOT
BRANCH   1   9
HETATM    9  C6  UNL     1      25.647   0.915  52.819  1.00  0.00    -0.002 A 
HETATM   10  C5  UNL     1      26.879   1.518  52.879  1.00  0.00     0.014 A 
HETATM   11  C4  UNL     1      28.004   0.746  53.016  1.00  0.00     0.008 A 
HETATM   12  C3  UNL     1      27.785  -0.611  53.086  1.00  0.00    -0.059 A 
HETATM   13  C16 UNL     1      26.562  -1.225  53.029  1.00  0.00     0.008 A 
HETATM   14  C15 UNL     1      25.461  -0.421  52.891  1.00  0.00     0.014 A 
BRANCH  12  15
HETATM   15  C2  UNL     1      28.957  -1.509  53.235  1.00  0.00     0.034 C 
HETATM   16  C1  UNL     1      30.180  -0.774  53.744  1.00  0.00     0.010 C 
ENDBRANCH  12  15
ENDBRANCH   1   9
BRANCH   5  17
HETATM   17  N2  UNL     1      19.904   0.966  52.209  1.00  0.00    -0.314 N 
HETATM   18  C11 UNL     1      19.585   0.619  50.869  1.00  0.00     0.319 C 
HETATM   19  O1  UNL     1      20.463   0.763  49.981  1.00  0.00    -0.254 OA
HETATM   20 CL1  UNL     1      17.915   0.031  50.775  1.00  0.00    -0.020 Cl
HETATM   21  H9  UNL     1      19.460   0.980  53.147  1.00  0.00     0.170 HD
ENDBRANCH   5  17
TORSDOF 4
ENDMDL
