MODEL 1
REMARK VINA RESULT:      -7.0      0.000      0.000
REMARK  5 active torsions:
REMARK  status: ('A' for Active; 'I' for Inactive)
REMARK    1  A    between atoms: C2_2  and  N1_3 
REMARK    2  A    between atoms: N1_3  and  O1_4 
REMARK    3  A    between atoms: N1_3  and  C3_5 
REMARK    4  A    between atoms: C4_6  and  C5_7 
REMARK    5  A    between atoms: C8_11  and  N3_12 
ROOT
HETATM    1  C5  UNL     1      24.213   1.593  52.636  1.00  0.00     0.022 C 
HETATM    2  C6  UNL     1      24.696   2.857  52.756  1.00  0.00     0.149 C 
HETATM    3  N2  UNL     1      25.623   2.785  51.588  1.00  0.00    -0.364 N 
HETATM    4  C7  UNL     1      25.112   3.909  50.703  1.00  0.00     0.179 C 
HETATM    5  C8  UNL     1      23.581   3.842  50.711  1.00  0.00     0.038 C 
HETATM    6  C14 UNL     1      22.895   3.880  51.883  1.00  0.00    -0.027 C 
HETATM    7  C15 UNL     1      23.211   4.724  53.119  1.00  0.00     0.214 C 
HETATM    8  O2  UNL     1      24.396   3.956  53.706  1.00  0.00    -0.331 OA
HETATM    9  C16 UNL     1      21.842   2.747  51.837  1.00  0.00     0.077 C 
HETATM   10  C17 UNL     1      22.711   1.571  52.434  1.00  0.00    -0.044 C 
HETATM   11  C18 UNL     1      22.198   0.405  52.739  1.00  0.00    -0.023 C 
HETATM   12  C19 UNL     1      20.765   0.148  52.625  1.00  0.00     0.036 C 
HETATM   13  H7  UNL     1      26.250   1.993  51.840  1.00  0.00     0.162 HD
ENDROOT
BRANCH   5  14
HETATM   14  N3  UNL     1      22.768   3.700  49.575  1.00  0.00    -0.333 N 
HETATM   15  C9  UNL     1      23.004   2.507  48.833  1.00  0.00     0.095 A 
HETATM   16  C10 UNL     1      22.314   2.279  47.731  1.00  0.00     0.033 A 
HETATM   17  C11 UNL     1      21.292   3.145  47.155  1.00  0.00     0.240 A 
HETATM   18  F1  UNL     1      20.069   2.521  47.082  1.00  0.00    -0.239 F 
HETATM   19  C12 UNL     1      21.069   4.386  47.966  1.00  0.00     0.065 A 
HETATM   20 CL1  UNL     1      19.888   5.577  47.483  1.00  0.00    -0.084 Cl
HETATM   21  C13 UNL     1      21.787   4.557  49.054  1.00  0.00     0.119 A 
ENDBRANCH   5  14
BRANCH   1  22
HETATM   22  C4  UNL     1      25.090   0.510  52.614  1.00  0.00     0.036 C 
HETATM   23  C3  UNL     1      25.804  -0.339  53.282  1.00  0.00     0.123 C 
BRANCH  23  24
HETATM   24  N1  UNL     1      26.637  -1.389  52.948  1.00  0.00    -0.248 N 
BRANCH  24  25
HETATM   25  C2  UNL     1      27.416  -2.448  52.570  1.00  0.00     0.112 C 
HETATM   26  C1  UNL     1      28.673  -2.498  53.008  1.00  0.00     0.032 C 
ENDBRANCH  24  25
BRANCH  24  27
HETATM   27  O1  UNL     1      27.494  -0.988  53.970  1.00  0.00    -0.284 OA
HETATM   28  H4  UNL     1      28.415  -1.036  53.576  1.00  0.00     0.245 HD
ENDBRANCH  24  27
ENDBRANCH  23  24
ENDBRANCH   1  22
TORSDOF 5
ENDMDL
MODEL 2
REMARK VINA RESULT:      -6.7      3.961      7.109
REMARK  5 active torsions:
REMARK  status: ('A' for Active; 'I' for Inactive)
REMARK    1  A    between atoms: C2_2  and  N1_3 
REMARK    2  A    between atoms: N1_3  and  O1_4 
REMARK    3  A    between atoms: N1_3  and  C3_5 
REMARK    4  A    between atoms: C4_6  and  C5_7 
REMARK    5  A    between atoms: C8_11  and  N3_12 
ROOT
HETATM    1  C5  UNL     1      21.456   4.221  50.450  1.00  0.00     0.022 C 
HETATM    2  C6  UNL     1      22.273   5.239  50.829  1.00  0.00     0.149 C 
HETATM    3  N2  UNL     1      21.969   5.151  52.289  1.00  0.00    -0.364 N 
HETATM    4  C7  UNL     1      23.339   4.878  52.886  1.00  0.00     0.179 C 
HETATM    5  C8  UNL     1      24.033   3.844  51.991  1.00  0.00     0.038 C 
HETATM    6  C14 UNL     1      24.189   4.075  50.662  1.00  0.00    -0.027 C 
HETATM    7  C15 UNL     1      24.526   5.404  49.982  1.00  0.00     0.214 C 
HETATM    8  O2  UNL     1      23.183   6.128  50.067  1.00  0.00    -0.331 OA
HETATM    9  C16 UNL     1      23.750   2.792  49.917  1.00  0.00     0.077 C 
HETATM   10  C17 UNL     1      22.213   3.111  49.749  1.00  0.00    -0.044 C 
HETATM   11  C18 UNL     1      21.417   2.364  49.026  1.00  0.00    -0.023 C 
HETATM   12  C19 UNL     1      21.923   1.231  48.257  1.00  0.00     0.036 C 
HETATM   13  H7  UNL     1      20.941   5.308  52.320  1.00  0.00     0.162 HD
ENDROOT
BRANCH   5  14
HETATM   14  N3  UNL     1      24.520   2.598  52.418  1.00  0.00    -0.333 N 
HETATM   15  C9  UNL     1      23.509   1.694  52.855  1.00  0.00     0.095 A 
HETATM   16  C10 UNL     1      23.852   0.500  53.300  1.00  0.00     0.033 A 
HETATM   17  C11 UNL     1      25.208  -0.028  53.406  1.00  0.00     0.240 A 
HETATM   18  F1  UNL     1      25.381  -1.156  52.641  1.00  0.00    -0.239 F 
HETATM   19  C12 UNL     1      26.241   0.949  52.932  1.00  0.00     0.065 A 
HETATM   20 CL1  UNL     1      27.939   0.545  52.953  1.00  0.00    -0.084 Cl
HETATM   21  C13 UNL     1      25.837   2.123  52.500  1.00  0.00     0.119 A 
ENDBRANCH   5  14
BRANCH   1  22
HETATM   22  C4  UNL     1      20.107   4.243  50.798  1.00  0.00     0.036 C 
HETATM   23  C3  UNL     1      18.881   4.439  50.432  1.00  0.00     0.123 C 
BRANCH  23  24
HETATM   24  N1  UNL     1      17.652   4.374  51.061  1.00  0.00    -0.248 N 
BRANCH  24  25
HETATM   25  C2  UNL     1      16.411   4.351  51.636  1.00  0.00     0.112 C 
HETATM   26  C1  UNL     1      15.405   3.814  50.949  1.00  0.00     0.032 C 
ENDBRANCH  24  25
BRANCH  24  27
HETATM   27  O1  UNL     1      18.239   3.586  52.047  1.00  0.00    -0.284 OA
HETATM   28  H4  UNL     1      17.685   2.749  52.080  1.00  0.00     0.245 HD
ENDBRANCH  24  27
ENDBRANCH  23  24
ENDBRANCH   1  22
TORSDOF 5
ENDMDL
MODEL 3
REMARK VINA RESULT:      -6.7      3.935      6.022
REMARK  5 active torsions:
REMARK  status: ('A' for Active; 'I' for Inactive)
REMARK    1  A    between atoms: C2_2  and  N1_3 
REMARK    2  A    between atoms: N1_3  and  O1_4 
REMARK    3  A    between atoms: N1_3  and  C3_5 
REMARK    4  A    between atoms: C4_6  and  C5_7 
REMARK    5  A    between atoms: C8_11  and  N3_12 
ROOT
HETATM    1  C5  UNL     1      23.339   4.156  50.294  1.00  0.00     0.022 C 
HETATM    2  C6  UNL     1      22.344   3.776  49.450  1.00  0.00     0.149 C 
HETATM    3  N2  UNL     1      23.029   2.550  48.940  1.00  0.00    -0.364 N 
HETATM    4  C7  UNL     1      22.050   1.454  49.322  1.00  0.00     0.179 C 
HETATM    5  C8  UNL     1      21.557   1.751  50.743  1.00  0.00     0.038 C 
HETATM    6  C14 UNL     1      20.989   2.948  51.041  1.00  0.00    -0.027 C 
HETATM    7  C15 UNL     1      20.041   3.771  50.166  1.00  0.00     0.214 C 
HETATM    8  O2  UNL     1      21.015   4.357  49.144  1.00  0.00    -0.331 OA
HETATM    9  C16 UNL     1      21.642   3.455  52.349  1.00  0.00     0.077 C 
HETATM   10  C17 UNL     1      22.868   4.238  51.733  1.00  0.00    -0.044 C 
HETATM   11  C18 UNL     1      23.658   4.987  52.459  1.00  0.00    -0.023 C 
HETATM   12  C19 UNL     1      23.402   5.214  53.879  1.00  0.00     0.036 C 
HETATM   13  H7  UNL     1      23.906   2.931  48.528  1.00  0.00     0.162 HD
ENDROOT
BRANCH   5  14
HETATM   14  N3  UNL     1      21.671   0.881  51.840  1.00  0.00    -0.333 N 
HETATM   15  C9  UNL     1      20.428   0.368  52.311  1.00  0.00     0.095 A 
HETATM   16  C10 UNL     1      20.411  -0.441  53.353  1.00  0.00     0.033 A 
HETATM   17  C11 UNL     1      21.569  -0.891  54.119  1.00  0.00     0.240 A 
HETATM   18  F1  UNL     1      21.709  -2.258  54.083  1.00  0.00    -0.239 F 
HETATM   19  C12 UNL     1      22.856  -0.334  53.590  1.00  0.00     0.065 A 
HETATM   20 CL1  UNL     1      24.383  -0.734  54.336  1.00  0.00    -0.084 Cl
HETATM   21  C13 UNL     1      22.808   0.467  52.549  1.00  0.00     0.119 A 
ENDBRANCH   5  14
BRANCH   1  22
HETATM   22  C4  UNL     1      24.634   4.332  49.812  1.00  0.00     0.036 C 
HETATM   23  C3  UNL     1      25.494   5.104  49.227  1.00  0.00     0.123 C 
BRANCH  23  24
HETATM   24  N1  UNL     1      26.820   4.986  48.859  1.00  0.00    -0.248 N 
BRANCH  24  25
HETATM   25  C2  UNL     1      28.121   4.910  48.442  1.00  0.00     0.112 C 
HETATM   26  C1  UNL     1      28.780   6.044  48.213  1.00  0.00     0.032 C 
ENDBRANCH  24  25
BRANCH  24  27
HETATM   27  O1  UNL     1      26.999   4.102  49.920  1.00  0.00    -0.284 OA
HETATM   28  H4  UNL     1      26.486   3.278  49.666  1.00  0.00     0.245 HD
ENDBRANCH  24  27
ENDBRANCH  23  24
ENDBRANCH   1  22
TORSDOF 5
ENDMDL
MODEL 4
REMARK VINA RESULT:      -6.7      8.449     10.638
REMARK  5 active torsions:
REMARK  status: ('A' for Active; 'I' for Inactive)
REMARK    1  A    between atoms: C2_2  and  N1_3 
REMARK    2  A    between atoms: N1_3  and  O1_4 
REMARK    3  A    between atoms: N1_3  and  C3_5 
REMARK    4  A    between atoms: C4_6  and  C5_7 
REMARK    5  A    between atoms: C8_11  and  N3_12 
ROOT
HETATM    1  C5  UNL     1      29.224   7.504  48.009  1.00  0.00     0.022 C 
HETATM    2  C6  UNL     1      30.204   7.843  48.887  1.00  0.00     0.149 C 
HETATM    3  N2  UNL     1      30.540   6.446  49.296  1.00  0.00    -0.364 N 
HETATM    4  C7  UNL     1      32.007   6.344  48.914  1.00  0.00     0.179 C 
HETATM    5  C8  UNL     1      32.172   7.002  47.539  1.00  0.00     0.038 C 
HETATM    6  C14 UNL     1      31.768   8.283  47.334  1.00  0.00    -0.027 C 
HETATM    7  C15 UNL     1      31.892   9.463  48.300  1.00  0.00     0.214 C 
HETATM    8  O2  UNL     1      30.774   9.150  49.294  1.00  0.00    -0.331 OA
HETATM    9  C16 UNL     1      30.954   8.304  46.019  1.00  0.00     0.077 C 
HETATM   10  C17 UNL     1      29.520   7.992  46.605  1.00  0.00    -0.044 C 
HETATM   11  C18 UNL     1      28.436   8.052  45.874  1.00  0.00    -0.023 C 
HETATM   12  C19 UNL     1      28.476   8.498  44.484  1.00  0.00     0.036 C 
HETATM   13  H7  UNL     1      29.638   6.094  49.677  1.00  0.00     0.162 HD
ENDROOT
BRANCH   5  14
HETATM   14  N3  UNL     1      32.690   6.374  46.396  1.00  0.00    -0.333 N 
HETATM   15  C9  UNL     1      32.406   4.980  46.314  1.00  0.00     0.095 A 
HETATM   16  C10 UNL     1      32.864   4.281  45.293  1.00  0.00     0.033 A 
HETATM   17  C11 UNL     1      33.668   4.790  44.187  1.00  0.00     0.240 A 
HETATM   18  F1  UNL     1      33.040   4.622  42.976  1.00  0.00    -0.239 F 
HETATM   19  C12 UNL     1      33.940   6.259  44.305  1.00  0.00     0.065 A 
HETATM   20 CL1  UNL     1      34.877   7.101  43.097  1.00  0.00    -0.084 Cl
HETATM   21  C13 UNL     1      33.457   6.901  45.346  1.00  0.00     0.119 A 
ENDBRANCH   5  14
BRANCH   1  22
HETATM   22  C4  UNL     1      28.156   6.713  48.427  1.00  0.00     0.036 C 
HETATM   23  C3  UNL     1      26.900   6.635  48.735  1.00  0.00     0.123 C 
BRANCH  23  24
HETATM   24  N1  UNL     1      26.057   5.620  49.144  1.00  0.00    -0.248 N 
BRANCH  24  25
HETATM   25  C2  UNL     1      25.222   4.592  49.485  1.00  0.00     0.112 C 
HETATM   26  C1  UNL     1      25.737   3.369  49.600  1.00  0.00     0.032 C 
ENDBRANCH  24  25
BRANCH  24  27
HETATM   27  O1  UNL     1      26.049   6.187  50.415  1.00  0.00    -0.284 OA
HETATM   28  H4  UNL     1      26.712   6.939  50.372  1.00  0.00     0.245 HD
ENDBRANCH  24  27
ENDBRANCH  23  24
ENDBRANCH   1  22
TORSDOF 5
ENDMDL
MODEL 5
REMARK VINA RESULT:      -6.6      7.883      9.665
REMARK  5 active torsions:
REMARK  status: ('A' for Active; 'I' for Inactive)
REMARK    1  A    between atoms: C2_2  and  N1_3 
REMARK    2  A    between atoms: N1_3  and  O1_4 
REMARK    3  A    between atoms: N1_3  and  C3_5 
REMARK    4  A    between atoms: C4_6  and  C5_7 
REMARK    5  A    between atoms: C8_11  and  N3_12 
ROOT
HETATM    1  C5  UNL     1      27.872   7.477  47.521  1.00  0.00     0.022 C 
HETATM    2  C6  UNL     1      26.802   7.308  48.342  1.00  0.00     0.149 C 
HETATM    3  N2  UNL     1      27.483   7.771  49.588  1.00  0.00    -0.364 N 
HETATM    4  C7  UNL     1      26.619   8.948  50.006  1.00  0.00     0.179 C 
HETATM    5  C8  UNL     1      26.292   9.751  48.742  1.00  0.00     0.038 C 
HETATM    6  C14 UNL     1      25.702   9.151  47.676  1.00  0.00    -0.027 C 
HETATM    7  C15 UNL     1      24.609   8.080  47.699  1.00  0.00     0.214 C 
HETATM    8  O2  UNL     1      25.416   6.843  48.095  1.00  0.00    -0.331 OA
HETATM    9  C16 UNL     1      26.484   9.583  46.413  1.00  0.00     0.077 C 
HETATM   10  C17 UNL     1      27.579   8.446  46.393  1.00  0.00    -0.044 C 
HETATM   11  C18 UNL     1      28.412   8.293  45.395  1.00  0.00    -0.023 C 
HETATM   12  C19 UNL     1      28.323   9.116  44.192  1.00  0.00     0.036 C 
HETATM   13  H7  UNL     1      28.280   7.108  49.675  1.00  0.00     0.162 HD
ENDROOT
BRANCH   5  14
HETATM   14  N3  UNL     1      26.587  11.110  48.544  1.00  0.00    -0.333 N 
HETATM   15  C9  UNL     1      27.930  11.468  48.856  1.00  0.00     0.095 A 
HETATM   16  C10 UNL     1      28.315  12.724  48.730  1.00  0.00     0.033 A 
HETATM   17  C11 UNL     1      27.488  13.843  48.291  1.00  0.00     0.240 A 
HETATM   18  F1  UNL     1      27.977  14.427  47.148  1.00  0.00    -0.239 F 
HETATM   19  C12 UNL     1      26.085  13.425  47.968  1.00  0.00     0.065 A 
HETATM   20 CL1  UNL     1      24.905  14.587  47.414  1.00  0.00    -0.084 Cl
HETATM   21  C13 UNL     1      25.762  12.160  48.114  1.00  0.00     0.119 A 
ENDBRANCH   5  14
BRANCH   1  22
HETATM   22  C4  UNL     1      29.086   6.863  47.822  1.00  0.00     0.036 C 
HETATM   23  C3  UNL     1      29.754   5.764  47.974  1.00  0.00     0.123 C 
BRANCH  23  24
HETATM   24  N1  UNL     1      31.061   5.453  48.299  1.00  0.00    -0.248 N 
BRANCH  24  25
HETATM   25  C2  UNL     1      32.367   5.138  48.554  1.00  0.00     0.112 C 
HETATM   26  C1  UNL     1      33.226   6.131  48.777  1.00  0.00     0.032 C 
ENDBRANCH  24  25
BRANCH  24  27
HETATM   27  O1  UNL     1      30.713   5.552  49.643  1.00  0.00    -0.284 OA
HETATM   28  H4  UNL     1      30.661   6.536  49.831  1.00  0.00     0.245 HD
ENDBRANCH  24  27
ENDBRANCH  23  24
ENDBRANCH   1  22
TORSDOF 5
ENDMDL
MODEL 6
REMARK VINA RESULT:      -6.5      3.527      6.862
REMARK  5 active torsions:
REMARK  status: ('A' for Active; 'I' for Inactive)
REMARK    1  A    between atoms: C2_2  and  N1_3 
REMARK    2  A    between atoms: N1_3  and  O1_4 
REMARK    3  A    between atoms: N1_3  and  C3_5 
REMARK    4  A    between atoms: C4_6  and  C5_7 
REMARK    5  A    between atoms: C8_11  and  N3_12 
ROOT
HETATM    1  C5  UNL     1      23.819   4.446  50.040  1.00  0.00     0.022 C 
HETATM    2  C6  UNL     1      24.816   4.272  50.947  1.00  0.00     0.149 C 
HETATM    3  N2  UNL     1      24.125   4.962  52.077  1.00  0.00    -0.364 N 
HETATM    4  C7  UNL     1      24.051   3.865  53.125  1.00  0.00     0.179 C 
HETATM    5  C8  UNL     1      23.651   2.570  52.409  1.00  0.00     0.038 C 
HETATM    6  C14 UNL     1      24.382   2.107  51.362  1.00  0.00    -0.027 C 
HETATM    7  C15 UNL     1      25.903   2.134  51.204  1.00  0.00     0.214 C 
HETATM    8  O2  UNL     1      26.139   3.606  50.865  1.00  0.00    -0.331 OA
HETATM    9  C16 UNL     1      23.387   1.732  50.237  1.00  0.00     0.077 C 
HETATM   10  C17 UNL     1      23.299   3.127  49.503  1.00  0.00    -0.044 C 
HETATM   11  C18 UNL     1      22.673   3.281  48.364  1.00  0.00    -0.023 C 
HETATM   12  C19 UNL     1      22.087   2.147  47.655  1.00  0.00     0.036 C 
HETATM   13  H7  UNL     1      23.963   5.918  51.699  1.00  0.00     0.162 HD
ENDROOT
BRANCH   5  14
HETATM   14  N3  UNL     1      22.526   1.787  52.715  1.00  0.00    -0.333 N 
HETATM   15  C9  UNL     1      21.283   2.386  52.361  1.00  0.00     0.095 A 
HETATM   16  C10 UNL     1      20.157   1.751  52.622  1.00  0.00     0.033 A 
HETATM   17  C11 UNL     1      20.027   0.448  53.265  1.00  0.00     0.240 A 
HETATM   18  F1  UNL     1      19.407  -0.468  52.449  1.00  0.00    -0.239 F 
HETATM   19  C12 UNL     1      21.355  -0.151  53.617  1.00  0.00     0.065 A 
HETATM   20 CL1  UNL     1      21.461  -1.713  54.390  1.00  0.00    -0.084 Cl
HETATM   21  C13 UNL     1      22.442   0.530  53.331  1.00  0.00     0.119 A 
ENDBRANCH   5  14
BRANCH   1  22
HETATM   22  C4  UNL     1      23.333   5.724  49.773  1.00  0.00     0.036 C 
HETATM   23  C3  UNL     1      23.455   6.830  49.111  1.00  0.00     0.123 C 
BRANCH  23  24
HETATM   24  N1  UNL     1      22.751   8.018  49.057  1.00  0.00    -0.248 N 
BRANCH  24  25
HETATM   25  C2  UNL     1      22.021   9.169  48.950  1.00  0.00     0.112 C 
HETATM   26  C1  UNL     1      20.701   9.100  49.116  1.00  0.00     0.032 C 
ENDBRANCH  24  25
BRANCH  24  27
HETATM   27  O1  UNL     1      23.526   8.484  50.115  1.00  0.00    -0.284 OA
HETATM   28  H4  UNL     1      23.274   7.910  50.899  1.00  0.00     0.245 HD
ENDBRANCH  24  27
ENDBRANCH  23  24
ENDBRANCH   1  22
TORSDOF 5
ENDMDL
MODEL 7
REMARK VINA RESULT:      -6.5      3.462      7.144
REMARK  5 active torsions:
REMARK  status: ('A' for Active; 'I' for Inactive)
REMARK    1  A    between atoms: C2_2  and  N1_3 
REMARK    2  A    between atoms: N1_3  and  O1_4 
REMARK    3  A    between atoms: N1_3  and  C3_5 
REMARK    4  A    between atoms: C4_6  and  C5_7 
REMARK    5  A    between atoms: C8_11  and  N3_12 
ROOT
HETATM    1  C5  UNL     1      22.897   4.887  49.937  1.00  0.00     0.022 C 
HETATM    2  C6  UNL     1      23.991   5.124  50.708  1.00  0.00     0.149 C 
HETATM    3  N2  UNL     1      23.237   5.469  51.951  1.00  0.00    -0.364 N 
HETATM    4  C7  UNL     1      23.746   4.429  52.933  1.00  0.00     0.179 C 
HETATM    5  C8  UNL     1      23.805   3.087  52.194  1.00  0.00     0.038 C 
HETATM    6  C14 UNL     1      24.514   2.964  51.042  1.00  0.00    -0.027 C 
HETATM    7  C15 UNL     1      25.863   3.604  50.707  1.00  0.00     0.214 C 
HETATM    8  O2  UNL     1      25.445   5.048  50.431  1.00  0.00    -0.331 OA
HETATM    9  C16 UNL     1      23.612   2.228  50.023  1.00  0.00     0.077 C 
HETATM   10  C17 UNL     1      22.879   3.474  49.388  1.00  0.00    -0.044 C 
HETATM   11  C18 UNL     1      22.099   3.371  48.342  1.00  0.00    -0.023 C 
HETATM   12  C19 UNL     1      21.925   2.102  47.642  1.00  0.00     0.036 C 
HETATM   13  H7  UNL     1      22.660   6.282  51.652  1.00  0.00     0.162 HD
ENDROOT
BRANCH   5  14
HETATM   14  N3  UNL     1      23.137   1.915  52.584  1.00  0.00    -0.333 N 
HETATM   15  C9  UNL     1      23.991   0.896  53.094  1.00  0.00     0.095 A 
HETATM   16  C10 UNL     1      23.475  -0.259  53.470  1.00  0.00     0.033 A 
HETATM   17  C11 UNL     1      22.066  -0.634  53.419  1.00  0.00     0.240 A 
HETATM   18  F1  UNL     1      21.567  -0.929  54.665  1.00  0.00    -0.239 F 
HETATM   19  C12 UNL     1      21.200   0.465  52.882  1.00  0.00     0.065 A 
HETATM   20 CL1  UNL     1      19.473   0.257  52.730  1.00  0.00    -0.084 Cl
HETATM   21  C13 UNL     1      21.773   1.592  52.524  1.00  0.00     0.119 A 
ENDBRANCH   5  14
BRANCH   1  22
HETATM   22  C4  UNL     1      21.911   5.863  49.807  1.00  0.00     0.036 C 
HETATM   23  C3  UNL     1      21.525   6.968  49.252  1.00  0.00     0.123 C 
BRANCH  23  24
HETATM   24  N1  UNL     1      20.391   7.754  49.329  1.00  0.00    -0.248 N 
BRANCH  24  25
HETATM   25  C2  UNL     1      19.308   8.587  49.395  1.00  0.00     0.112 C 
HETATM   26  C1  UNL     1      19.392   9.677  50.155  1.00  0.00     0.032 C 
ENDBRANCH  24  25
BRANCH  24  27
HETATM   27  O1  UNL     1      19.658   6.607  49.617  1.00  0.00    -0.284 OA
HETATM   28  H4  UNL     1      19.370   6.247  48.726  1.00  0.00     0.245 HD
ENDBRANCH  24  27
ENDBRANCH  23  24
ENDBRANCH   1  22
TORSDOF 5
ENDMDL
MODEL 8
REMARK VINA RESULT:      -6.5      8.841     10.897
REMARK  5 active torsions:
REMARK  status: ('A' for Active; 'I' for Inactive)
REMARK    1  A    between atoms: C2_2  and  N1_3 
REMARK    2  A    between atoms: N1_3  and  O1_4 
REMARK    3  A    between atoms: N1_3  and  C3_5 
REMARK    4  A    between atoms: C4_6  and  C5_7 
REMARK    5  A    between atoms: C8_11  and  N3_12 
ROOT
HETATM    1  C5  UNL     1      27.817   8.892  48.059  1.00  0.00     0.022 C 
HETATM    2  C6  UNL     1      28.174   9.816  48.990  1.00  0.00     0.149 C 
HETATM    3  N2  UNL     1      29.122   8.934  49.734  1.00  0.00    -0.364 N 
HETATM    4  C7  UNL     1      30.429   9.699  49.620  1.00  0.00     0.179 C 
HETATM    5  C8  UNL     1      30.536  10.216  48.181  1.00  0.00     0.038 C 
HETATM    6  C14 UNL     1      29.549  10.982  47.648  1.00  0.00    -0.027 C 
HETATM    7  C15 UNL     1      28.736  12.072  48.348  1.00  0.00     0.214 C 
HETATM    8  O2  UNL     1      27.782  11.231  49.196  1.00  0.00    -0.331 OA
HETATM    9  C16 UNL     1      29.230  10.410  46.246  1.00  0.00     0.077 C 
HETATM   10  C17 UNL     1      28.131   9.350  46.649  1.00  0.00    -0.044 C 
HETATM   11  C18 UNL     1      27.429   8.694  45.760  1.00  0.00    -0.023 C 
HETATM   12  C19 UNL     1      27.562   8.966  44.331  1.00  0.00     0.036 C 
HETATM   13  H7  UNL     1      28.515   8.143  50.033  1.00  0.00     0.162 HD
ENDROOT
BRANCH   5  14
HETATM   14  N3  UNL     1      31.588   9.936  47.294  1.00  0.00    -0.333 N 
HETATM   15  C9  UNL     1      32.324  11.083  46.879  1.00  0.00     0.095 A 
HETATM   16  C10 UNL     1      33.321  10.943  46.027  1.00  0.00     0.033 A 
HETATM   17  C11 UNL     1      33.779   9.694  45.428  1.00  0.00     0.240 A 
HETATM   18  F1  UNL     1      35.086   9.417  45.751  1.00  0.00    -0.239 F 
HETATM   19  C12 UNL     1      32.984   8.511  45.892  1.00  0.00     0.065 A 
HETATM   20 CL1  UNL     1      33.346   6.902  45.320  1.00  0.00    -0.084 Cl
HETATM   21  C13 UNL     1      32.002   8.715  46.742  1.00  0.00     0.119 A 
ENDBRANCH   5  14
BRANCH   1  22
HETATM   22  C4  UNL     1      27.317   7.655  48.461  1.00  0.00     0.036 C 
HETATM   23  C3  UNL     1      27.399   6.364  48.399  1.00  0.00     0.123 C 
BRANCH  23  24
HETATM   24  N1  UNL     1      26.702   5.313  48.964  1.00  0.00    -0.248 N 
BRANCH  24  25
HETATM   25  C2  UNL     1      25.954   4.304  49.504  1.00  0.00     0.112 C 
HETATM   26  C1  UNL     1      26.562   3.160  49.814  1.00  0.00     0.032 C 
ENDBRANCH  24  25
BRANCH  24  27
HETATM   27  O1  UNL     1      27.917   4.777  49.380  1.00  0.00    -0.284 OA
HETATM   28  H4  UNL     1      28.570   5.009  48.655  1.00  0.00     0.245 HD
ENDBRANCH  24  27
ENDBRANCH  23  24
ENDBRANCH   1  22
TORSDOF 5
ENDMDL
MODEL 9
REMARK VINA RESULT:      -6.5      5.531      8.001
REMARK  5 active torsions:
REMARK  status: ('A' for Active; 'I' for Inactive)
REMARK    1  A    between atoms: C2_2  and  N1_3 
REMARK    2  A    between atoms: N1_3  and  O1_4 
REMARK    3  A    between atoms: N1_3  and  C3_5 
REMARK    4  A    between atoms: C4_6  and  C5_7 
REMARK    5  A    between atoms: C8_11  and  N3_12 
ROOT
HETATM    1  C5  UNL     1      26.319   7.339  48.617  1.00  0.00     0.022 C 
HETATM    2  C6  UNL     1      26.006   6.353  49.498  1.00  0.00     0.149 C 
HETATM    3  N2  UNL     1      25.916   7.236  50.699  1.00  0.00    -0.364 N 
HETATM    4  C7  UNL     1      24.484   7.015  51.154  1.00  0.00     0.179 C 
HETATM    5  C8  UNL     1      23.599   7.012  49.903  1.00  0.00     0.038 C 
HETATM    6  C14 UNL     1      23.855   6.158  48.878  1.00  0.00    -0.027 C 
HETATM    7  C15 UNL     1      24.324   4.705  48.973  1.00  0.00     0.214 C 
HETATM    8  O2  UNL     1      25.797   4.894  49.335  1.00  0.00    -0.331 OA
HETATM    9  C16 UNL     1      23.796   6.980  47.568  1.00  0.00     0.077 C 
HETATM   10  C17 UNL     1      25.303   7.449  47.497  1.00  0.00    -0.044 C 
HETATM   11  C18 UNL     1      25.796   8.069  46.455  1.00  0.00    -0.023 C 
HETATM   12  C19 UNL     1      25.000   8.291  45.252  1.00  0.00     0.036 C 
HETATM   13  H7  UNL     1      26.867   7.657  50.748  1.00  0.00     0.162 HD
ENDROOT
BRANCH   5  14
HETATM   14  N3  UNL     1      22.512   7.872  49.675  1.00  0.00    -0.333 N 
HETATM   15  C9  UNL     1      21.249   7.332  50.051  1.00  0.00     0.095 A 
HETATM   16  C10 UNL     1      20.154   8.043  49.861  1.00  0.00     0.033 A 
HETATM   17  C11 UNL     1      20.080   9.379  49.280  1.00  0.00     0.240 A 
HETATM   18  F1  UNL     1      19.547  10.293  50.158  1.00  0.00    -0.239 F 
HETATM   19  C12 UNL     1      21.428   9.915  48.902  1.00  0.00     0.065 A 
HETATM   20 CL1  UNL     1      21.600  11.501  48.194  1.00  0.00    -0.084 Cl
HETATM   21  C13 UNL     1      22.482   9.159  49.116  1.00  0.00     0.119 A 
ENDBRANCH   5  14
BRANCH   1  22
HETATM   22  C4  UNL     1      27.416   8.165  48.854  1.00  0.00     0.036 C 
HETATM   23  C3  UNL     1      28.695   8.344  48.770  1.00  0.00     0.123 C 
BRANCH  23  24
HETATM   24  N1  UNL     1      29.564   9.360  49.120  1.00  0.00    -0.248 N 
BRANCH  24  25
HETATM   25  C2  UNL     1      30.457  10.355  49.408  1.00  0.00     0.112 C 
HETATM   26  C1  UNL     1      30.999  11.032  48.398  1.00  0.00     0.032 C 
ENDBRANCH  24  25
BRANCH  24  27
HETATM   27  O1  UNL     1      28.867   9.495  50.317  1.00  0.00    -0.284 OA
HETATM   28  H4  UNL     1      29.301   8.848  50.949  1.00  0.00     0.245 HD
ENDBRANCH  24  27
ENDBRANCH  23  24
ENDBRANCH   1  22
TORSDOF 5
ENDMDL
