MODEL 1
REMARK VINA RESULT:      -8.1      0.000      0.000
REMARK  7 active torsions:
REMARK  status: ('A' for Active; 'I' for Inactive)
REMARK    1  A    between atoms: C2_2  and  S1_3 
REMARK    2  A    between atoms: S1_3  and  N1_6 
REMARK    3  A    between atoms: N1_6  and  C3_7 
REMARK    4  A    between atoms: C3_7  and  C4_8 
REMARK    5  A    between atoms: C4_8  and  C5_9 
REMARK    6  A    between atoms: C10_17  and  N4_18 
REMARK    7  A    between atoms: N4_18  and  C11_19 
ROOT
HETATM    1  C5  UNL     1      25.177   2.295  52.651  1.00  0.00     0.002 C 
HETATM    2  C6  UNL     1      24.228   3.020  52.094  1.00  0.00     0.030 C 
HETATM    3  C7  UNL     1      22.911   2.442  51.775  1.00  0.00     0.234 C 
HETATM    4  O3  UNL     1      21.923   3.464  51.614  1.00  0.00    -0.327 OA
HETATM    5  C8  UNL     1      22.242   4.766  51.346  1.00  0.00     0.197 A 
HETATM    6  N2  UNL     1      21.189   5.556  50.983  1.00  0.00    -0.216 NA
HETATM    7  C9  UNL     1      21.415   6.871  50.697  1.00  0.00     0.238 A 
HETATM    8  N3  UNL     1      22.657   7.352  50.779  1.00  0.00    -0.222 NA
HETATM    9  C10 UNL     1      23.735   6.642  51.127  1.00  0.00     0.160 A 
HETATM   10  C17 UNL     1      23.504   5.314  51.415  1.00  0.00     0.132 A 
HETATM   11  N5  UNL     1      24.504   4.382  51.805  1.00  0.00    -0.351 N 
HETATM   12  H20 UNL     1      25.474   4.692  51.885  1.00  0.00     0.166 HD
ENDROOT
BRANCH   1  13
HETATM   13  C4  UNL     1      25.114   0.877  53.035  1.00  0.00     0.044 C 
BRANCH  13  14
HETATM   14  C3  UNL     1      26.000   0.686  54.262  1.00  0.00     0.108 C 
BRANCH  14  15
HETATM   15  N1  UNL     1      26.834   1.851  54.434  1.00  0.00    -0.220 NA
HETATM   16  H6  UNL     1      26.613   2.587  53.730  1.00  0.00     0.139 HD
BRANCH  15  17
HETATM   17  S1  UNL     1      28.509   1.463  54.144  1.00  0.00     0.209 S 
HETATM   18  O1  UNL     1      29.404   2.360  54.948  1.00  0.00    -0.211 OA
HETATM   19  O2  UNL     1      28.861   1.674  52.699  1.00  0.00    -0.211 OA
BRANCH  17  20
HETATM   20  C2  UNL     1      28.889  -0.206  54.581  1.00  0.00     0.153 C 
HETATM   21  C1  UNL     1      29.372  -0.966  53.339  1.00  0.00     0.022 C 
ENDBRANCH  17  20
ENDBRANCH  15  17
ENDBRANCH  14  15
ENDBRANCH  13  14
ENDBRANCH   1  13
BRANCH   9  22
HETATM   22  N4  UNL     1      25.049   7.136  51.218  1.00  0.00    -0.339 N 
HETATM   23  H15 UNL     1      25.458   7.403  52.113  1.00  0.00     0.167 HD
BRANCH  22  24
HETATM   24  C11 UNL     1      25.985   7.342  50.177  1.00  0.00     0.035 A 
HETATM   25  C12 UNL     1      26.277   6.390  49.228  1.00  0.00     0.029 A 
HETATM   26  C13 UNL     1      27.183   6.546  48.203  1.00  0.00     0.004 A 
HETATM   27  C14 UNL     1      27.872   7.731  48.080  1.00  0.00     0.019 A 
HETATM   28  C15 UNL     1      27.622   8.721  49.001  1.00  0.00     0.013 A 
HETATM   29 BR1  UNL     1      28.535  10.376  48.893  1.00  0.00    -0.051 Br
HETATM   30  C16 UNL     1      26.705   8.495  49.998  1.00  0.00     0.048 A 
ENDBRANCH  22  24
ENDBRANCH   9  22
TORSDOF 7
ENDMDL
MODEL 2
REMARK VINA RESULT:      -8.0      4.273      5.820
REMARK  7 active torsions:
REMARK  status: ('A' for Active; 'I' for Inactive)
REMARK    1  A    between atoms: C2_2  and  S1_3 
REMARK    2  A    between atoms: S1_3  and  N1_6 
REMARK    3  A    between atoms: N1_6  and  C3_7 
REMARK    4  A    between atoms: C3_7  and  C4_8 
REMARK    5  A    between atoms: C4_8  and  C5_9 
REMARK    6  A    between atoms: C10_17  and  N4_18 
REMARK    7  A    between atoms: N4_18  and  C11_19 
ROOT
HETATM    1  C5  UNL     1      26.898   3.911  49.632  1.00  0.00     0.002 C 
HETATM    2  C6  UNL     1      26.989   5.073  49.016  1.00  0.00     0.030 C 
HETATM    3  C7  UNL     1      25.786   5.811  48.593  1.00  0.00     0.234 C 
HETATM    4  O3  UNL     1      26.079   7.194  48.373  1.00  0.00    -0.327 OA
HETATM    5  C8  UNL     1      27.346   7.656  48.148  1.00  0.00     0.197 A 
HETATM    6  N2  UNL     1      27.421   8.950  47.720  1.00  0.00    -0.216 NA
HETATM    7  C9  UNL     1      28.647   9.495  47.470  1.00  0.00     0.238 A 
HETATM    8  N3  UNL     1      29.740   8.751  47.651  1.00  0.00    -0.222 NA
HETATM    9  C10 UNL     1      29.745   7.481  48.067  1.00  0.00     0.160 A 
HETATM   10  C17 UNL     1      28.506   6.933  48.318  1.00  0.00     0.132 A 
HETATM   11  N5  UNL     1      28.282   5.603  48.767  1.00  0.00    -0.351 N 
HETATM   12  H20 UNL     1      29.081   4.986  48.924  1.00  0.00     0.166 HD
ENDROOT
BRANCH   1  13
HETATM   13  C4  UNL     1      25.673   3.179  49.990  1.00  0.00     0.044 C 
BRANCH  13  14
HETATM   14  C3  UNL     1      25.941   2.430  51.291  1.00  0.00     0.108 C 
BRANCH  14  15
HETATM   15  N1  UNL     1      27.244   2.796  51.792  1.00  0.00    -0.220 NA
HETATM   16  H6  UNL     1      28.005   2.447  51.171  1.00  0.00     0.139 HD
BRANCH  15  17
HETATM   17  S1  UNL     1      27.554   2.032  53.328  1.00  0.00     0.209 S 
HETATM   18  O1  UNL     1      26.371   2.181  54.239  1.00  0.00    -0.211 OA
HETATM   19  O2  UNL     1      28.721   2.679  54.018  1.00  0.00    -0.211 OA
BRANCH  17  20
HETATM   20  C2  UNL     1      27.886   0.305  53.157  1.00  0.00     0.153 C 
HETATM   21  C1  UNL     1      29.316   0.007  53.623  1.00  0.00     0.022 C 
ENDBRANCH  17  20
ENDBRANCH  15  17
ENDBRANCH  14  15
ENDBRANCH  13  14
ENDBRANCH   1  13
BRANCH   9  22
HETATM   22  N4  UNL     1      30.889   6.685  48.262  1.00  0.00    -0.339 N 
HETATM   23  H15 UNL     1      31.355   6.633  49.167  1.00  0.00     0.167 HD
BRANCH  22  24
HETATM   24  C11 UNL     1      31.563   5.869  47.322  1.00  0.00     0.035 A 
HETATM   25  C12 UNL     1      32.146   6.363  46.179  1.00  0.00     0.029 A 
HETATM   26  C13 UNL     1      32.806   5.606  45.236  1.00  0.00     0.004 A 
HETATM   27  C14 UNL     1      32.914   4.245  45.413  1.00  0.00     0.019 A 
HETATM   28  C15 UNL     1      32.349   3.694  46.539  1.00  0.00     0.013 A 
HETATM   29 BR1  UNL     1      32.458   1.830  46.845  1.00  0.00    -0.051 Br
HETATM   30  C16 UNL     1      31.706   4.511  47.436  1.00  0.00     0.048 A 
ENDBRANCH  22  24
ENDBRANCH   9  22
TORSDOF 7
ENDMDL
MODEL 3
REMARK VINA RESULT:      -7.9      3.941      6.823
REMARK  7 active torsions:
REMARK  status: ('A' for Active; 'I' for Inactive)
REMARK    1  A    between atoms: C2_2  and  S1_3 
REMARK    2  A    between atoms: S1_3  and  N1_6 
REMARK    3  A    between atoms: N1_6  and  C3_7 
REMARK    4  A    between atoms: C3_7  and  C4_8 
REMARK    5  A    between atoms: C4_8  and  C5_9 
REMARK    6  A    between atoms: C10_17  and  N4_18 
REMARK    7  A    between atoms: N4_18  and  C11_19 
ROOT
HETATM    1  C5  UNL     1      23.003  -0.971  53.522  1.00  0.00     0.002 C 
HETATM    2  C6  UNL     1      24.151  -0.461  53.920  1.00  0.00     0.030 C 
HETATM    3  C7  UNL     1      24.611  -0.606  55.313  1.00  0.00     0.234 C 
HETATM    4  O3  UNL     1      26.022  -0.396  55.416  1.00  0.00    -0.327 OA
HETATM    5  C8  UNL     1      26.742   0.275  54.467  1.00  0.00     0.197 A 
HETATM    6  N2  UNL     1      28.018   0.596  54.832  1.00  0.00    -0.216 NA
HETATM    7  C9  UNL     1      28.811   1.267  53.945  1.00  0.00     0.238 A 
HETATM    8  N3  UNL     1      28.319   1.591  52.747  1.00  0.00    -0.222 NA
HETATM    9  C10 UNL     1      27.085   1.310  52.321  1.00  0.00     0.160 A 
HETATM   10  C17 UNL     1      26.286   0.633  53.218  1.00  0.00     0.132 A 
HETATM   11  N5  UNL     1      24.943   0.236  52.971  1.00  0.00    -0.351 N 
HETATM   12  H20 UNL     1      24.514   0.457  52.071  1.00  0.00     0.166 HD
ENDROOT
BRANCH   1  13
HETATM   13  C4  UNL     1      22.029  -1.725  54.325  1.00  0.00     0.044 C 
BRANCH  13  14
HETATM   14  C3  UNL     1      20.634  -1.249  53.935  1.00  0.00     0.108 C 
BRANCH  14  15
HETATM   15  N1  UNL     1      20.682   0.158  53.617  1.00  0.00    -0.220 NA
HETATM   16  H6  UNL     1      20.133   0.723  54.299  1.00  0.00     0.139 HD
BRANCH  15  17
HETATM   17  S1  UNL     1      19.918   0.472  52.081  1.00  0.00     0.209 S 
HETATM   18  O1  UNL     1      18.710  -0.401  51.905  1.00  0.00    -0.211 OA
HETATM   19  O2  UNL     1      20.853   0.157  50.948  1.00  0.00    -0.211 OA
BRANCH  17  20
HETATM   20  C2  UNL     1      19.394   2.153  51.931  1.00  0.00     0.153 C 
HETATM   21  C1  UNL     1      20.518   3.086  52.397  1.00  0.00     0.022 C 
ENDBRANCH  17  20
ENDBRANCH  15  17
ENDBRANCH  14  15
ENDBRANCH  13  14
ENDBRANCH   1  13
BRANCH   9  22
HETATM   22  N4  UNL     1      26.554   1.645  51.062  1.00  0.00    -0.339 N 
HETATM   23  H15 UNL     1      26.404   0.940  50.342  1.00  0.00     0.167 HD
BRANCH  22  24
HETATM   24  C11 UNL     1      26.157   2.918  50.585  1.00  0.00     0.035 A 
HETATM   25  C12 UNL     1      26.840   3.600  49.606  1.00  0.00     0.029 A 
HETATM   26  C13 UNL     1      26.494   4.840  49.116  1.00  0.00     0.004 A 
HETATM   27  C14 UNL     1      25.385   5.482  49.618  1.00  0.00     0.019 A 
HETATM   28  C15 UNL     1      24.661   4.848  50.602  1.00  0.00     0.013 A 
HETATM   29 BR1  UNL     1      23.126   5.673  51.338  1.00  0.00    -0.051 Br
HETATM   30  C16 UNL     1      25.067   3.611  51.041  1.00  0.00     0.048 A 
ENDBRANCH  22  24
ENDBRANCH   9  22
TORSDOF 7
ENDMDL
MODEL 4
REMARK VINA RESULT:      -7.9      1.998      2.824
REMARK  7 active torsions:
REMARK  status: ('A' for Active; 'I' for Inactive)
REMARK    1  A    between atoms: C2_2  and  S1_3 
REMARK    2  A    between atoms: S1_3  and  N1_6 
REMARK    3  A    between atoms: N1_6  and  C3_7 
REMARK    4  A    between atoms: C3_7  and  C4_8 
REMARK    5  A    between atoms: C4_8  and  C5_9 
REMARK    6  A    between atoms: C10_17  and  N4_18 
REMARK    7  A    between atoms: N4_18  and  C11_19 
ROOT
HETATM    1  C5  UNL     1      25.011   0.562  52.568  1.00  0.00     0.002 C 
HETATM    2  C6  UNL     1      23.748   0.932  52.480  1.00  0.00     0.030 C 
HETATM    3  C7  UNL     1      22.702   0.278  53.285  1.00  0.00     0.234 C 
HETATM    4  O3  UNL     1      21.534   1.099  53.380  1.00  0.00    -0.327 OA
HETATM    5  C8  UNL     1      21.264   2.107  52.496  1.00  0.00     0.197 A 
HETATM    6  N2  UNL     1      20.005   2.627  52.581  1.00  0.00    -0.216 NA
HETATM    7  C9  UNL     1      19.647   3.638  51.737  1.00  0.00     0.238 A 
HETATM    8  N3  UNL     1      20.536   4.092  50.851  1.00  0.00    -0.222 NA
HETATM    9  C10 UNL     1      21.784   3.635  50.709  1.00  0.00     0.160 A 
HETATM   10  C17 UNL     1      22.142   2.613  51.563  1.00  0.00     0.132 A 
HETATM   11  N5  UNL     1      23.415   1.981  51.584  1.00  0.00    -0.351 N 
HETATM   12  H20 UNL     1      24.137   2.287  50.929  1.00  0.00     0.166 HD
ENDROOT
BRANCH   1  13
HETATM   13  C4  UNL     1      25.580  -0.492  53.421  1.00  0.00     0.044 C 
BRANCH  13  14
HETATM   14  C3  UNL     1      26.075   0.164  54.705  1.00  0.00     0.108 C 
BRANCH  14  15
HETATM   15  N1  UNL     1      26.646   1.452  54.393  1.00  0.00    -0.220 NA
HETATM   16  H6  UNL     1      26.239   1.849  53.519  1.00  0.00     0.139 HD
BRANCH  15  17
HETATM   17  S1  UNL     1      28.350   1.309  54.052  1.00  0.00     0.209 S 
HETATM   18  O1  UNL     1      29.121   2.384  54.761  1.00  0.00    -0.211 OA
HETATM   19  O2  UNL     1      28.614   1.479  52.583  1.00  0.00    -0.211 OA
BRANCH  17  20
HETATM   20  C2  UNL     1      29.002  -0.250  54.567  1.00  0.00     0.153 C 
HETATM   21  C1  UNL     1      29.418  -1.066  53.337  1.00  0.00     0.022 C 
ENDBRANCH  17  20
ENDBRANCH  15  17
ENDBRANCH  14  15
ENDBRANCH  13  14
ENDBRANCH   1  13
BRANCH   9  22
HETATM   22  N4  UNL     1      22.731   4.104  49.781  1.00  0.00    -0.339 N 
HETATM   23  H15 UNL     1      22.803   3.705  48.845  1.00  0.00     0.167 HD
BRANCH  22  24
HETATM   24  C11 UNL     1      23.689   5.132  49.945  1.00  0.00     0.035 A 
HETATM   25  C12 UNL     1      23.498   6.213  50.774  1.00  0.00     0.029 A 
HETATM   26  C13 UNL     1      24.398   7.237  50.960  1.00  0.00     0.004 A 
HETATM   27  C14 UNL     1      25.597   7.218  50.283  1.00  0.00     0.019 A 
HETATM   28  C15 UNL     1      25.845   6.161  49.439  1.00  0.00     0.013 A 
HETATM   29 BR1  UNL     1      27.472   6.071  48.476  1.00  0.00    -0.051 Br
HETATM   30  C16 UNL     1      24.899   5.175  49.303  1.00  0.00     0.048 A 
ENDBRANCH  22  24
ENDBRANCH   9  22
TORSDOF 7
ENDMDL
MODEL 5
REMARK VINA RESULT:      -7.8      5.229      6.887
REMARK  7 active torsions:
REMARK  status: ('A' for Active; 'I' for Inactive)
REMARK    1  A    between atoms: C2_2  and  S1_3 
REMARK    2  A    between atoms: S1_3  and  N1_6 
REMARK    3  A    between atoms: N1_6  and  C3_7 
REMARK    4  A    between atoms: C3_7  and  C4_8 
REMARK    5  A    between atoms: C4_8  and  C5_9 
REMARK    6  A    between atoms: C10_17  and  N4_18 
REMARK    7  A    between atoms: N4_18  and  C11_19 
ROOT
HETATM    1  C5  UNL     1      26.993   3.900  49.329  1.00  0.00     0.002 C 
HETATM    2  C6  UNL     1      27.500   4.988  48.785  1.00  0.00     0.030 C 
HETATM    3  C7  UNL     1      26.694   6.210  48.620  1.00  0.00     0.234 C 
HETATM    4  O3  UNL     1      27.526   7.360  48.446  1.00  0.00    -0.327 OA
HETATM    5  C8  UNL     1      28.829   7.276  48.040  1.00  0.00     0.197 A 
HETATM    6  N2  UNL     1      29.402   8.465  47.690  1.00  0.00    -0.216 NA
HETATM    7  C9  UNL     1      30.702   8.476  47.273  1.00  0.00     0.238 A 
HETATM    8  N3  UNL     1      31.378   7.326  47.217  1.00  0.00    -0.222 NA
HETATM    9  C10 UNL     1      30.885   6.128  47.542  1.00  0.00     0.160 A 
HETATM   10  C17 UNL     1      29.572   6.119  47.963  1.00  0.00     0.132 A 
HETATM   11  N5  UNL     1      28.853   4.958  48.356  1.00  0.00    -0.351 N 
HETATM   12  H20 UNL     1      29.319   4.049  48.334  1.00  0.00     0.166 HD
ENDROOT
BRANCH   1  13
HETATM   13  C4  UNL     1      25.628   3.706  49.841  1.00  0.00     0.044 C 
BRANCH  13  14
HETATM   14  C3  UNL     1      25.732   3.008  51.193  1.00  0.00     0.108 C 
BRANCH  14  15
HETATM   15  N1  UNL     1      27.123   2.841  51.538  1.00  0.00    -0.220 NA
HETATM   16  H6  UNL     1      27.607   2.202  50.872  1.00  0.00     0.139 HD
BRANCH  15  17
HETATM   17  S1  UNL     1      27.287   2.058  53.087  1.00  0.00     0.209 S 
HETATM   18  O1  UNL     1      25.997   2.128  53.852  1.00  0.00    -0.211 OA
HETATM   19  O2  UNL     1      28.329   2.746  53.923  1.00  0.00    -0.211 OA
BRANCH  17  20
HETATM   20  C2  UNL     1      27.725   0.354  52.928  1.00  0.00     0.153 C 
HETATM   21  C1  UNL     1      26.642  -0.384  52.131  1.00  0.00     0.022 C 
ENDBRANCH  17  20
ENDBRANCH  15  17
ENDBRANCH  14  15
ENDBRANCH  13  14
ENDBRANCH   1  13
BRANCH   9  22
HETATM   22  N4  UNL     1      31.586   4.909  47.488  1.00  0.00    -0.339 N 
HETATM   23  H15 UNL     1      31.319   4.114  48.067  1.00  0.00     0.167 HD
BRANCH  22  24
HETATM   24  C11 UNL     1      32.705   4.573  46.689  1.00  0.00     0.035 A 
HETATM   25  C12 UNL     1      33.852   4.011  47.199  1.00  0.00     0.029 A 
HETATM   26  C13 UNL     1      34.964   3.673  46.460  1.00  0.00     0.004 A 
HETATM   27  C14 UNL     1      34.971   3.898  45.102  1.00  0.00     0.019 A 
HETATM   28  C15 UNL     1      33.850   4.459  44.535  1.00  0.00     0.013 A 
HETATM   29 BR1  UNL     1      33.791   4.797  42.674  1.00  0.00    -0.051 Br
HETATM   30  C16 UNL     1      32.778   4.770  45.334  1.00  0.00     0.048 A 
ENDBRANCH  22  24
ENDBRANCH   9  22
TORSDOF 7
ENDMDL
MODEL 6
REMARK VINA RESULT:      -7.8      3.932      6.941
REMARK  7 active torsions:
REMARK  status: ('A' for Active; 'I' for Inactive)
REMARK    1  A    between atoms: C2_2  and  S1_3 
REMARK    2  A    between atoms: S1_3  and  N1_6 
REMARK    3  A    between atoms: N1_6  and  C3_7 
REMARK    4  A    between atoms: C3_7  and  C4_8 
REMARK    5  A    between atoms: C4_8  and  C5_9 
REMARK    6  A    between atoms: C10_17  and  N4_18 
REMARK    7  A    between atoms: N4_18  and  C11_19 
ROOT
HETATM    1  C5  UNL     1      26.786   5.724  49.275  1.00  0.00     0.002 C 
HETATM    2  C6  UNL     1      25.633   5.206  49.647  1.00  0.00     0.030 C 
HETATM    3  C7  UNL     1      24.408   5.417  48.856  1.00  0.00     0.234 C 
HETATM    4  O3  UNL     1      23.417   4.433  49.165  1.00  0.00    -0.327 OA
HETATM    5  C8  UNL     1      23.431   3.706  50.322  1.00  0.00     0.197 A 
HETATM    6  N2  UNL     1      22.293   2.995  50.571  1.00  0.00    -0.216 NA
HETATM    7  C9  UNL     1      22.219   2.238  51.705  1.00  0.00     0.238 A 
HETATM    8  N3  UNL     1      23.259   2.214  52.541  1.00  0.00    -0.222 NA
HETATM    9  C10 UNL     1      24.403   2.882  52.365  1.00  0.00     0.160 A 
HETATM   10  C17 UNL     1      24.475   3.645  51.219  1.00  0.00     0.132 A 
HETATM   11  N5  UNL     1      25.595   4.433  50.836  1.00  0.00    -0.351 N 
HETATM   12  H20 UNL     1      26.421   4.453  51.437  1.00  0.00     0.166 HD
ENDROOT
BRANCH   1  13
HETATM   13  C4  UNL     1      27.058   6.552  48.090  1.00  0.00     0.044 C 
BRANCH  13  14
HETATM   14  C3  UNL     1      28.564   6.544  47.851  1.00  0.00     0.108 C 
BRANCH  14  15
HETATM   15  N1  UNL     1      29.211   5.811  48.913  1.00  0.00    -0.220 NA
HETATM   16  H6  UNL     1      29.099   6.290  49.831  1.00  0.00     0.139 HD
BRANCH  15  17
HETATM   17  S1  UNL     1      30.936   5.752  48.662  1.00  0.00     0.209 S 
HETATM   18  O1  UNL     1      31.298   4.607  47.761  1.00  0.00    -0.211 OA
HETATM   19  O2  UNL     1      31.655   5.530  49.962  1.00  0.00    -0.211 OA
BRANCH  17  20
HETATM   20  C2  UNL     1      31.551   7.233  47.921  1.00  0.00     0.153 C 
HETATM   21  C1  UNL     1      32.323   8.048  48.966  1.00  0.00     0.022 C 
ENDBRANCH  17  20
ENDBRANCH  15  17
ENDBRANCH  14  15
ENDBRANCH  13  14
ENDBRANCH   1  13
BRANCH   9  22
HETATM   22  N4  UNL     1      25.507   2.866  53.237  1.00  0.00    -0.339 N 
HETATM   23  H15 UNL     1      25.642   3.591  53.940  1.00  0.00     0.167 HD
BRANCH  22  24
HETATM   24  C11 UNL     1      26.559   1.921  53.306  1.00  0.00     0.035 A 
HETATM   25  C12 UNL     1      27.827   2.238  53.733  1.00  0.00     0.029 A 
HETATM   26  C13 UNL     1      28.880   1.354  53.811  1.00  0.00     0.004 A 
HETATM   27  C14 UNL     1      28.693   0.041  53.442  1.00  0.00     0.019 A 
HETATM   28  C15 UNL     1      27.443  -0.335  53.006  1.00  0.00     0.013 A 
HETATM   29 BR1  UNL     1      27.115  -2.124  52.484  1.00  0.00    -0.051 Br
HETATM   30  C16 UNL     1      26.440   0.602  52.955  1.00  0.00     0.048 A 
ENDBRANCH  22  24
ENDBRANCH   9  22
TORSDOF 7
ENDMDL
MODEL 7
REMARK VINA RESULT:      -7.8      3.772      5.273
REMARK  7 active torsions:
REMARK  status: ('A' for Active; 'I' for Inactive)
REMARK    1  A    between atoms: C2_2  and  S1_3 
REMARK    2  A    between atoms: S1_3  and  N1_6 
REMARK    3  A    between atoms: N1_6  and  C3_7 
REMARK    4  A    between atoms: C3_7  and  C4_8 
REMARK    5  A    between atoms: C4_8  and  C5_9 
REMARK    6  A    between atoms: C10_17  and  N4_18 
REMARK    7  A    between atoms: N4_18  and  C11_19 
ROOT
HETATM    1  C5  UNL     1      26.694   3.939  49.388  1.00  0.00     0.002 C 
HETATM    2  C6  UNL     1      26.695   5.252  49.278  1.00  0.00     0.030 C 
HETATM    3  C7  UNL     1      25.642   6.074  49.900  1.00  0.00     0.234 C 
HETATM    4  O3  UNL     1      26.065   7.432  50.047  1.00  0.00    -0.327 OA
HETATM    5  C8  UNL     1      27.088   7.972  49.319  1.00  0.00     0.197 A 
HETATM    6  N2  UNL     1      27.202   9.330  49.403  1.00  0.00    -0.216 NA
HETATM    7  C9  UNL     1      28.198   9.955  48.708  1.00  0.00     0.238 A 
HETATM    8  N3  UNL     1      29.032   9.225  47.965  1.00  0.00    -0.222 NA
HETATM    9  C10 UNL     1      28.982   7.896  47.834  1.00  0.00     0.160 A 
HETATM   10  C17 UNL     1      27.976   7.267  48.537  1.00  0.00     0.132 A 
HETATM   11  N5  UNL     1      27.742   5.865  48.540  1.00  0.00    -0.351 N 
HETATM   12  H20 UNL     1      28.349   5.255  47.990  1.00  0.00     0.166 HD
ENDROOT
BRANCH   1  13
HETATM   13  C4  UNL     1      25.718   3.099  50.098  1.00  0.00     0.044 C 
BRANCH  13  14
HETATM   14  C3  UNL     1      26.494   2.118  50.970  1.00  0.00     0.108 C 
BRANCH  14  15
HETATM   15  N1  UNL     1      27.389   2.851  51.833  1.00  0.00    -0.220 NA
HETATM   16  H6  UNL     1      28.353   2.888  51.439  1.00  0.00     0.139 HD
BRANCH  15  17
HETATM   17  S1  UNL     1      27.577   2.039  53.364  1.00  0.00     0.209 S 
HETATM   18  O1  UNL     1      26.348   2.214  54.208  1.00  0.00    -0.211 OA
HETATM   19  O2  UNL     1      28.725   2.621  54.138  1.00  0.00    -0.211 OA
BRANCH  17  20
HETATM   20  C2  UNL     1      27.850   0.304  53.168  1.00  0.00     0.153 C 
HETATM   21  C1  UNL     1      26.633  -0.470  53.687  1.00  0.00     0.022 C 
ENDBRANCH  17  20
ENDBRANCH  15  17
ENDBRANCH  14  15
ENDBRANCH  13  14
ENDBRANCH   1  13
BRANCH   9  22
HETATM   22  N4  UNL     1      29.854   7.114  47.055  1.00  0.00    -0.339 N 
HETATM   23  H15 UNL     1      29.656   6.908  46.077  1.00  0.00     0.167 HD
BRANCH  22  24
HETATM   24  C11 UNL     1      31.074   6.508  47.441  1.00  0.00     0.035 A 
HETATM   25  C12 UNL     1      31.205   5.157  47.664  1.00  0.00     0.029 A 
HETATM   26  C13 UNL     1      32.369   4.527  48.045  1.00  0.00     0.004 A 
HETATM   27  C14 UNL     1      33.514   5.270  48.228  1.00  0.00     0.019 A 
HETATM   28  C15 UNL     1      33.443   6.627  48.020  1.00  0.00     0.013 A 
HETATM   29 BR1  UNL     1      34.978   7.709  48.254  1.00  0.00    -0.051 Br
HETATM   30  C16 UNL     1      32.247   7.187  47.641  1.00  0.00     0.048 A 
ENDBRANCH  22  24
ENDBRANCH   9  22
TORSDOF 7
ENDMDL
MODEL 8
REMARK VINA RESULT:      -7.7      3.796      6.752
REMARK  7 active torsions:
REMARK  status: ('A' for Active; 'I' for Inactive)
REMARK    1  A    between atoms: C2_2  and  S1_3 
REMARK    2  A    between atoms: S1_3  and  N1_6 
REMARK    3  A    between atoms: N1_6  and  C3_7 
REMARK    4  A    between atoms: C3_7  and  C4_8 
REMARK    5  A    between atoms: C4_8  and  C5_9 
REMARK    6  A    between atoms: C10_17  and  N4_18 
REMARK    7  A    between atoms: N4_18  and  C11_19 
ROOT
HETATM    1  C5  UNL     1      26.972   5.588  48.854  1.00  0.00     0.002 C 
HETATM    2  C6  UNL     1      25.955   5.623  49.692  1.00  0.00     0.030 C 
HETATM    3  C7  UNL     1      25.306   6.894  50.056  1.00  0.00     0.234 C 
HETATM    4  O3  UNL     1      23.995   6.673  50.586  1.00  0.00    -0.327 OA
HETATM    5  C8  UNL     1      23.596   5.468  51.095  1.00  0.00     0.197 A 
HETATM    6  N2  UNL     1      22.413   5.493  51.775  1.00  0.00    -0.216 NA
HETATM    7  C9  UNL     1      21.936   4.334  52.317  1.00  0.00     0.238 A 
HETATM    8  N3  UNL     1      22.638   3.209  52.170  1.00  0.00    -0.222 NA
HETATM    9  C10 UNL     1      23.801   3.108  51.519  1.00  0.00     0.160 A 
HETATM   10  C17 UNL     1      24.280   4.279  50.972  1.00  0.00     0.132 A 
HETATM   11  N5  UNL     1      25.494   4.398  50.242  1.00  0.00    -0.351 N 
HETATM   12  H20 UNL     1      26.073   3.569  50.096  1.00  0.00     0.166 HD
ENDROOT
BRANCH   1  13
HETATM   13  C4  UNL     1      27.610   6.723  48.171  1.00  0.00     0.044 C 
BRANCH  13  14
HETATM   14  C3  UNL     1      29.032   6.309  47.808  1.00  0.00     0.108 C 
BRANCH  14  15
HETATM   15  N1  UNL     1      29.627   5.616  48.925  1.00  0.00    -0.220 NA
HETATM   16  H6  UNL     1      29.156   5.861  49.822  1.00  0.00     0.139 HD
BRANCH  15  17
HETATM   17  S1  UNL     1      31.282   6.116  49.154  1.00  0.00     0.209 S 
HETATM   18  O1  UNL     1      31.843   5.518  50.412  1.00  0.00    -0.211 OA
HETATM   19  O2  UNL     1      31.371   7.608  49.302  1.00  0.00    -0.211 OA
BRANCH  17  20
HETATM   20  C2  UNL     1      32.318   5.618  47.813  1.00  0.00     0.153 C 
HETATM   21  C1  UNL     1      32.020   4.159  47.446  1.00  0.00     0.022 C 
ENDBRANCH  17  20
ENDBRANCH  15  17
ENDBRANCH  14  15
ENDBRANCH  13  14
ENDBRANCH   1  13
BRANCH   9  22
HETATM   22  N4  UNL     1      24.551   1.929  51.356  1.00  0.00    -0.339 N 
HETATM   23  H15 UNL     1      24.685   1.505  50.439  1.00  0.00     0.167 HD
BRANCH  22  24
HETATM   24  C11 UNL     1      25.212   1.163  52.346  1.00  0.00     0.035 A 
HETATM   25  C12 UNL     1      24.556   0.292  53.184  1.00  0.00     0.029 A 
HETATM   26  C13 UNL     1      25.157  -0.468  54.163  1.00  0.00     0.004 A 
HETATM   27  C14 UNL     1      26.518  -0.380  54.351  1.00  0.00     0.019 A 
HETATM   28  C15 UNL     1      27.227   0.476  53.541  1.00  0.00     0.013 A 
HETATM   29 BR1  UNL     1      29.101   0.648  53.745  1.00  0.00    -0.051 Br
HETATM   30  C16 UNL     1      26.561   1.203  52.586  1.00  0.00     0.048 A 
ENDBRANCH  22  24
ENDBRANCH   9  22
TORSDOF 7
ENDMDL
MODEL 9
REMARK VINA RESULT:      -7.7      2.870      3.421
REMARK  7 active torsions:
REMARK  status: ('A' for Active; 'I' for Inactive)
REMARK    1  A    between atoms: C2_2  and  S1_3 
REMARK    2  A    between atoms: S1_3  and  N1_6 
REMARK    3  A    between atoms: N1_6  and  C3_7 
REMARK    4  A    between atoms: C3_7  and  C4_8 
REMARK    5  A    between atoms: C4_8  and  C5_9 
REMARK    6  A    between atoms: C10_17  and  N4_18 
REMARK    7  A    between atoms: N4_18  and  C11_19 
ROOT
HETATM    1  C5  UNL     1      23.318  -0.091  53.358  1.00  0.00     0.002 C 
HETATM    2  C6  UNL     1      22.311   0.662  52.962  1.00  0.00     0.030 C 
HETATM    3  C7  UNL     1      21.044   0.702  53.712  1.00  0.00     0.234 C 
HETATM    4  O3  UNL     1      20.290   1.875  53.392  1.00  0.00    -0.327 OA
HETATM    5  C8  UNL     1      20.495   2.597  52.250  1.00  0.00     0.197 A 
HETATM    6  N2  UNL     1      19.539   3.535  51.981  1.00  0.00    -0.216 NA
HETATM    7  C9  UNL     1      19.663   4.304  50.860  1.00  0.00     0.238 A 
HETATM    8  N3  UNL     1      20.712   4.120  50.056  1.00  0.00    -0.222 NA
HETATM    9  C10 UNL     1      21.685   3.225  50.254  1.00  0.00     0.160 A 
HETATM   10  C17 UNL     1      21.558   2.450  51.387  1.00  0.00     0.132 A 
HETATM   11  N5  UNL     1      22.475   1.440  51.787  1.00  0.00    -0.351 N 
HETATM   12  H20 UNL     1      23.298   1.255  51.211  1.00  0.00     0.166 HD
ENDROOT
BRANCH   1  13
HETATM   13  C4  UNL     1      23.371  -0.972  54.535  1.00  0.00     0.044 C 
BRANCH  13  14
HETATM   14  C3  UNL     1      24.779  -0.893  55.113  1.00  0.00     0.108 C 
BRANCH  14  15
HETATM   15  N1  UNL     1      25.742  -1.019  54.045  1.00  0.00    -0.220 NA
HETATM   16  H6  UNL     1      26.226  -1.941  54.075  1.00  0.00     0.139 HD
BRANCH  15  17
HETATM   17  S1  UNL     1      27.022   0.151  54.223  1.00  0.00     0.209 S 
HETATM   18  O1  UNL     1      28.311  -0.530  54.583  1.00  0.00    -0.211 OA
HETATM   19  O2  UNL     1      26.712   1.114  55.333  1.00  0.00    -0.211 OA
BRANCH  17  20
HETATM   20  C2  UNL     1      27.296   1.068  52.738  1.00  0.00     0.153 C 
HETATM   21  C1  UNL     1      26.535   0.411  51.580  1.00  0.00     0.022 C 
ENDBRANCH  17  20
ENDBRANCH  15  17
ENDBRANCH  14  15
ENDBRANCH  13  14
ENDBRANCH   1  13
BRANCH   9  22
HETATM   22  N4  UNL     1      22.796   3.021  49.416  1.00  0.00    -0.339 N 
HETATM   23  H15 UNL     1      22.816   2.267  48.730  1.00  0.00     0.167 HD
BRANCH  22  24
HETATM   24  C11 UNL     1      24.004   3.758  49.362  1.00  0.00     0.035 A 
HETATM   25  C12 UNL     1      25.222   3.232  49.724  1.00  0.00     0.029 A 
HETATM   26  C13 UNL     1      26.419   3.913  49.692  1.00  0.00     0.004 A 
HETATM   27  C14 UNL     1      26.443   5.224  49.272  1.00  0.00     0.019 A 
HETATM   28  C15 UNL     1      25.254   5.804  48.898  1.00  0.00     0.013 A 
HETATM   29 BR1  UNL     1      25.214   7.602  48.310  1.00  0.00    -0.051 Br
HETATM   30  C16 UNL     1      24.098   5.063  48.955  1.00  0.00     0.048 A 
ENDBRANCH  22  24
ENDBRANCH   9  22
TORSDOF 7
ENDMDL
