MODEL 1
REMARK VINA RESULT:      -7.6      0.000      0.000
REMARK  4 active torsions:
REMARK  status: ('A' for Active; 'I' for Inactive)
REMARK    1  A    between atoms: C2_2  and  C3_3 
REMARK    2  A    between atoms: C7_8  and  S1_9 
REMARK    3  A    between atoms: S1_9  and  N2_10 
REMARK    4  A    between atoms: N2_10  and  C8_11 
ROOT
HETATM    1  C3  UNL     1      27.136   5.785  48.714  1.00  0.00     0.004 C 
HETATM    2  C4  UNL     1      26.103   5.028  49.095  1.00  0.00    -0.052 C 
HETATM    3  C5  UNL     1      26.486   3.567  49.291  1.00  0.00     0.156 C 
HETATM    4  N1  UNL     1      25.559   2.954  50.299  1.00  0.00    -0.370 N 
HETATM    5  C6  UNL     1      24.219   3.537  50.098  1.00  0.00     0.135 C 
HETATM    6  C7  UNL     1      24.158   3.893  51.437  1.00  0.00     0.156 C 
HETATM    7  N3  UNL     1      23.938   5.369  51.583  1.00  0.00    -0.252 NA
HETATM    8  C14 UNL     1      24.546   6.160  50.686  1.00  0.00     0.102 C 
HETATM    9  C15 UNL     1      24.838   5.807  49.224  1.00  0.00     0.074 C 
HETATM   10  C16 UNL     1      23.644   5.168  48.603  1.00  0.00     0.136 C 
HETATM   11  N4  UNL     1      23.307   3.820  49.009  1.00  0.00    -0.373 N 
HETATM   12  H7  UNL     1      25.682   2.274  51.071  1.00  0.00     0.161 HD
HETATM   13  H17 UNL     1      22.528   3.385  48.458  1.00  0.00     0.161 HD
ENDROOT
BRANCH   6  14
HETATM   14  S1  UNL     1      24.465   2.576  52.587  1.00  0.00     0.010 SA
BRANCH  14  15
HETATM   15  N2  UNL     1      25.969   2.831  53.432  1.00  0.00    -0.325 N 
HETATM   16  H8  UNL     1      26.279   3.685  53.988  1.00  0.00     0.174 HD
BRANCH  15  17
HETATM   17  C8  UNL     1      26.969   1.795  53.422  1.00  0.00     0.039 A 
HETATM   18  C9  UNL     1      28.280   1.952  53.787  1.00  0.00     0.030 A 
HETATM   19  C10 UNL     1      29.203   0.947  53.766  1.00  0.00     0.004 A 
HETATM   20  C11 UNL     1      28.835  -0.312  53.361  1.00  0.00     0.019 A 
HETATM   21  C12 UNL     1      27.531  -0.545  52.978  1.00  0.00     0.013 A 
HETATM   22 BR1  UNL     1      27.022  -2.293  52.416  1.00  0.00    -0.051 Br
HETATM   23  C13 UNL     1      26.645   0.505  53.019  1.00  0.00     0.049 A 
ENDBRANCH  15  17
ENDBRANCH  14  15
ENDBRANCH   6  14
BRANCH   1  24
HETATM   24  C2  UNL     1      28.550   5.771  48.396  1.00  0.00    -0.010 C 
HETATM   25  C1  UNL     1      29.567   6.637  48.257  1.00  0.00     0.011 C 
ENDBRANCH   1  24
TORSDOF 4
ENDMDL
MODEL 2
REMARK VINA RESULT:      -7.4      3.163      3.818
REMARK  4 active torsions:
REMARK  status: ('A' for Active; 'I' for Inactive)
REMARK    1  A    between atoms: C2_2  and  C3_3 
REMARK    2  A    between atoms: C7_8  and  S1_9 
REMARK    3  A    between atoms: S1_9  and  N2_10 
REMARK    4  A    between atoms: N2_10  and  C8_11 
ROOT
HETATM    1  C3  UNL     1      26.268   6.081  48.911  1.00  0.00     0.004 C 
HETATM    2  C4  UNL     1      25.605   4.998  49.325  1.00  0.00    -0.052 C 
HETATM    3  C5  UNL     1      26.523   3.812  49.588  1.00  0.00     0.156 C 
HETATM    4  N1  UNL     1      25.890   2.927  50.622  1.00  0.00    -0.370 N 
HETATM    5  C6  UNL     1      24.432   2.933  50.394  1.00  0.00     0.135 C 
HETATM    6  C7  UNL     1      24.213   3.292  51.715  1.00  0.00     0.156 C 
HETATM    7  N3  UNL     1      23.432   4.570  51.794  1.00  0.00    -0.252 NA
HETATM    8  C14 UNL     1      23.701   5.498  50.862  1.00  0.00     0.102 C 
HETATM    9  C15 UNL     1      24.134   5.226  49.418  1.00  0.00     0.074 C 
HETATM   10  C16 UNL     1      23.295   4.146  48.825  1.00  0.00     0.136 C 
HETATM   11  N4  UNL     1      23.502   2.792  49.292  1.00  0.00    -0.373 N 
HETATM   12  H7  UNL     1      26.253   2.382  51.424  1.00  0.00     0.161 HD
HETATM   13  H17 UNL     1      22.965   2.065  48.761  1.00  0.00     0.161 HD
ENDROOT
BRANCH   6  14
HETATM   14  S1  UNL     1      24.987   2.248  52.924  1.00  0.00     0.010 SA
BRANCH  14  15
HETATM   15  N2  UNL     1      24.591   0.574  52.639  1.00  0.00    -0.325 N 
HETATM   16  H8  UNL     1      25.165  -0.164  52.128  1.00  0.00     0.174 HD
BRANCH  15  17
HETATM   17  C8  UNL     1      23.345   0.049  53.133  1.00  0.00     0.039 A 
HETATM   18  C9  UNL     1      23.197  -0.728  54.252  1.00  0.00     0.030 A 
HETATM   19  C10 UNL     1      21.999  -1.210  54.694  1.00  0.00     0.004 A 
HETATM   20  C11 UNL     1      20.848  -0.919  54.003  1.00  0.00     0.019 A 
HETATM   21  C12 UNL     1      20.920  -0.141  52.867  1.00  0.00     0.013 A 
HETATM   22 BR1  UNL     1      19.322   0.261  51.911  1.00  0.00    -0.051 Br
HETATM   23  C13 UNL     1      22.154   0.315  52.469  1.00  0.00     0.049 A 
ENDBRANCH  15  17
ENDBRANCH  14  15
ENDBRANCH   6  14
BRANCH   1  24
HETATM   24  C2  UNL     1      27.581   6.606  48.595  1.00  0.00    -0.010 C 
HETATM   25  C1  UNL     1      28.685   6.242  47.923  1.00  0.00     0.011 C 
ENDBRANCH   1  24
TORSDOF 4
ENDMDL
MODEL 3
REMARK VINA RESULT:      -7.4      3.230      6.147
REMARK  4 active torsions:
REMARK  status: ('A' for Active; 'I' for Inactive)
REMARK    1  A    between atoms: C2_2  and  C3_3 
REMARK    2  A    between atoms: C7_8  and  S1_9 
REMARK    3  A    between atoms: S1_9  and  N2_10 
REMARK    4  A    between atoms: N2_10  and  C8_11 
ROOT
HETATM    1  C3  UNL     1      24.314   0.929  52.334  1.00  0.00     0.004 C 
HETATM    2  C4  UNL     1      23.630   2.076  52.303  1.00  0.00    -0.052 C 
HETATM    3  C5  UNL     1      24.226   3.140  53.215  1.00  0.00     0.156 C 
HETATM    4  N1  UNL     1      23.883   4.495  52.670  1.00  0.00    -0.370 N 
HETATM    5  C6  UNL     1      22.524   4.425  52.099  1.00  0.00     0.135 C 
HETATM    6  C7  UNL     1      22.988   4.933  50.896  1.00  0.00     0.156 C 
HETATM    7  N3  UNL     1      22.680   3.993  49.769  1.00  0.00    -0.252 NA
HETATM    8  C14 UNL     1      22.761   2.681  50.041  1.00  0.00     0.102 C 
HETATM    9  C15 UNL     1      22.454   2.019  51.388  1.00  0.00     0.074 C 
HETATM   10  C16 UNL     1      21.192   2.572  51.956  1.00  0.00     0.136 C 
HETATM   11  N4  UNL     1      21.214   3.926  52.466  1.00  0.00    -0.373 N 
HETATM   12  H7  UNL     1      24.395   5.392  52.595  1.00  0.00     0.161 HD
HETATM   13  H17 UNL     1      20.332   4.219  52.953  1.00  0.00     0.161 HD
ENDROOT
BRANCH   6  14
HETATM   14  S1  UNL     1      23.897   6.453  51.014  1.00  0.00     0.010 SA
BRANCH  14  15
HETATM   15  N2  UNL     1      24.611   6.866  49.477  1.00  0.00    -0.325 N 
HETATM   16  H8  UNL     1      24.233   7.521  48.727  1.00  0.00     0.174 HD
BRANCH  15  17
HETATM   17  C8  UNL     1      25.877   6.288  49.110  1.00  0.00     0.039 A 
HETATM   18  C9  UNL     1      26.198   4.958  49.195  1.00  0.00     0.030 A 
HETATM   19  C10 UNL     1      27.410   4.442  48.837  1.00  0.00     0.004 A 
HETATM   20  C11 UNL     1      28.393   5.272  48.357  1.00  0.00     0.019 A 
HETATM   21  C12 UNL     1      28.141   6.623  48.244  1.00  0.00     0.013 A 
HETATM   22 BR1  UNL     1      29.507   7.772  47.578  1.00  0.00    -0.051 Br
HETATM   23  C13 UNL     1      26.904   7.086  48.620  1.00  0.00     0.049 A 
ENDBRANCH  15  17
ENDBRANCH  14  15
ENDBRANCH   6  14
BRANCH   1  24
HETATM   24  C2  UNL     1      25.456   0.256  52.919  1.00  0.00    -0.010 C 
HETATM   25  C1  UNL     1      26.396  -0.637  52.569  1.00  0.00     0.011 C 
ENDBRANCH   1  24
TORSDOF 4
ENDMDL
MODEL 4
REMARK VINA RESULT:      -7.3      5.632      8.647
REMARK  4 active torsions:
REMARK  status: ('A' for Active; 'I' for Inactive)
REMARK    1  A    between atoms: C2_2  and  C3_3 
REMARK    2  A    between atoms: C7_8  and  S1_9 
REMARK    3  A    between atoms: S1_9  and  N2_10 
REMARK    4  A    between atoms: N2_10  and  C8_11 
ROOT
HETATM    1  C3  UNL     1      34.400   4.593  44.504  1.00  0.00     0.004 C 
HETATM    2  C4  UNL     1      34.156   4.889  45.784  1.00  0.00    -0.052 C 
HETATM    3  C5  UNL     1      34.077   6.389  46.035  1.00  0.00     0.156 C 
HETATM    4  N1  UNL     1      33.190   6.638  47.219  1.00  0.00    -0.370 N 
HETATM    5  C6  UNL     1      33.414   5.550  48.191  1.00  0.00     0.135 C 
HETATM    6  C7  UNL     1      32.054   5.286  48.229  1.00  0.00     0.156 C 
HETATM    7  N3  UNL     1      31.781   3.859  47.856  1.00  0.00    -0.252 NA
HETATM    8  C14 UNL     1      32.561   3.327  46.903  1.00  0.00     0.102 C 
HETATM    9  C15 UNL     1      34.029   3.675  46.640  1.00  0.00     0.074 C 
HETATM   10  C16 UNL     1      34.780   3.736  47.927  1.00  0.00     0.136 C 
HETATM   11  N4  UNL     1      34.524   4.855  48.809  1.00  0.00    -0.373 N 
HETATM   12  H7  UNL     1      32.481   7.357  47.450  1.00  0.00     0.161 HD
HETATM   13  H17 UNL     1      35.161   4.902  49.641  1.00  0.00     0.161 HD
ENDROOT
BRANCH   6  14
HETATM   14  S1  UNL     1      31.018   6.684  48.582  1.00  0.00     0.010 SA
BRANCH  14  15
HETATM   15  N2  UNL     1      29.695   6.773  47.449  1.00  0.00    -0.325 N 
HETATM   16  H8  UNL     1      29.726   7.017  46.413  1.00  0.00     0.174 HD
BRANCH  15  17
HETATM   17  C8  UNL     1      28.358   6.489  47.902  1.00  0.00     0.039 A 
HETATM   18  C9  UNL     1      27.284   7.333  47.788  1.00  0.00     0.030 A 
HETATM   19  C10 UNL     1      26.027   7.032  48.229  1.00  0.00     0.004 A 
HETATM   20  C11 UNL     1      25.784   5.820  48.826  1.00  0.00     0.019 A 
HETATM   21  C12 UNL     1      26.818   4.920  48.975  1.00  0.00     0.013 A 
HETATM   22 BR1  UNL     1      26.476   3.239  49.805  1.00  0.00    -0.051 Br
HETATM   23  C13 UNL     1      28.061   5.277  48.513  1.00  0.00     0.049 A 
ENDBRANCH  15  17
ENDBRANCH  14  15
ENDBRANCH   6  14
BRANCH   1  24
HETATM   24  C2  UNL     1      34.632   5.157  43.190  1.00  0.00    -0.010 C 
HETATM   25  C1  UNL     1      33.950   5.418  42.063  1.00  0.00     0.011 C 
ENDBRANCH   1  24
TORSDOF 4
ENDMDL
MODEL 5
REMARK VINA RESULT:      -7.2      2.374      3.020
REMARK  4 active torsions:
REMARK  status: ('A' for Active; 'I' for Inactive)
REMARK    1  A    between atoms: C2_2  and  C3_3 
REMARK    2  A    between atoms: C7_8  and  S1_9 
REMARK    3  A    between atoms: S1_9  and  N2_10 
REMARK    4  A    between atoms: N2_10  and  C8_11 
ROOT
HETATM    1  C3  UNL     1      27.243   5.854  48.513  1.00  0.00     0.004 C 
HETATM    2  C4  UNL     1      26.033   5.464  48.920  1.00  0.00    -0.052 C 
HETATM    3  C5  UNL     1      26.023   4.034  49.445  1.00  0.00     0.156 C 
HETATM    4  N1  UNL     1      24.914   3.891  50.446  1.00  0.00    -0.370 N 
HETATM    5  C6  UNL     1      23.778   4.713  49.986  1.00  0.00     0.135 C 
HETATM    6  C7  UNL     1      23.732   5.359  51.212  1.00  0.00     0.156 C 
HETATM    7  N3  UNL     1      23.883   6.841  51.037  1.00  0.00    -0.252 NA
HETATM    8  C14 UNL     1      24.721   7.250  50.072  1.00  0.00     0.102 C 
HETATM    9  C15 UNL     1      24.999   6.525  48.752  1.00  0.00     0.074 C 
HETATM   10  C16 UNL     1      23.720   6.062  48.142  1.00  0.00     0.136 C 
HETATM   11  N4  UNL     1      23.031   4.955  48.769  1.00  0.00    -0.373 N 
HETATM   12  H7  UNL     1      24.817   3.388  51.346  1.00  0.00     0.161 HD
HETATM   13  H17 UNL     1      22.201   4.603  48.233  1.00  0.00     0.161 HD
ENDROOT
BRANCH   6  14
HETATM   14  S1  UNL     1      23.630   4.293  52.629  1.00  0.00     0.010 SA
BRANCH  14  15
HETATM   15  N2  UNL     1      22.406   3.073  52.397  1.00  0.00    -0.325 N 
HETATM   16  H8  UNL     1      21.431   3.184  51.982  1.00  0.00     0.174 HD
BRANCH  15  17
HETATM   17  C8  UNL     1      22.680   1.715  52.791  1.00  0.00     0.039 A 
HETATM   18  C9  UNL     1      21.744   0.805  53.208  1.00  0.00     0.030 A 
HETATM   19  C10 UNL     1      22.038  -0.477  53.575  1.00  0.00     0.004 A 
HETATM   20  C11 UNL     1      23.338  -0.919  53.538  1.00  0.00     0.019 A 
HETATM   21  C12 UNL     1      24.333  -0.056  53.129  1.00  0.00     0.013 A 
HETATM   22 BR1  UNL     1      26.136  -0.672  53.078  1.00  0.00    -0.051 Br
HETATM   23  C13 UNL     1      23.979   1.222  52.771  1.00  0.00     0.049 A 
ENDBRANCH  15  17
ENDBRANCH  14  15
ENDBRANCH   6  14
BRANCH   1  24
HETATM   24  C2  UNL     1      28.623   5.441  48.361  1.00  0.00    -0.010 C 
HETATM   25  C1  UNL     1      29.843   5.995  48.253  1.00  0.00     0.011 C 
ENDBRANCH   1  24
TORSDOF 4
ENDMDL
MODEL 6
REMARK VINA RESULT:      -7.1      3.394      6.060
REMARK  4 active torsions:
REMARK  status: ('A' for Active; 'I' for Inactive)
REMARK    1  A    between atoms: C2_2  and  C3_3 
REMARK    2  A    between atoms: C7_8  and  S1_9 
REMARK    3  A    between atoms: S1_9  and  N2_10 
REMARK    4  A    between atoms: N2_10  and  C8_11 
ROOT
HETATM    1  C3  UNL     1      21.884  -0.120  52.256  1.00  0.00     0.004 C 
HETATM    2  C4  UNL     1      21.264   0.939  51.730  1.00  0.00    -0.052 C 
HETATM    3  C5  UNL     1      20.895   1.983  52.775  1.00  0.00     0.156 C 
HETATM    4  N1  UNL     1      20.845   3.331  52.119  1.00  0.00    -0.370 N 
HETATM    5  C6  UNL     1      20.299   3.155  50.759  1.00  0.00     0.135 C 
HETATM    6  C7  UNL     1      21.393   3.814  50.221  1.00  0.00     0.156 C 
HETATM    7  N3  UNL     1      22.097   2.943  49.222  1.00  0.00    -0.252 NA
HETATM    8  C14 UNL     1      22.149   1.631  49.499  1.00  0.00     0.102 C 
HETATM    9  C15 UNL     1      21.086   0.826  50.253  1.00  0.00     0.074 C 
HETATM   10  C16 UNL     1      19.726   1.182  49.758  1.00  0.00     0.136 C 
HETATM   11  N4  UNL     1      19.194   2.481  50.109  1.00  0.00    -0.373 N 
HETATM   12  H7  UNL     1      21.129   4.285  52.408  1.00  0.00     0.161 HD
HETATM   13  H17 UNL     1      18.194   2.629  49.828  1.00  0.00     0.161 HD
ENDROOT
BRANCH   6  14
HETATM   14  S1  UNL     1      21.735   5.412  50.913  1.00  0.00     0.010 SA
BRANCH  14  15
HETATM   15  N2  UNL     1      23.313   5.439  51.656  1.00  0.00    -0.325 N 
HETATM   16  H8  UNL     1      23.651   6.039  52.469  1.00  0.00     0.174 HD
BRANCH  15  17
HETATM   17  C8  UNL     1      24.341   4.562  51.161  1.00  0.00     0.039 A 
HETATM   18  C9  UNL     1      25.164   4.823  50.097  1.00  0.00     0.030 A 
HETATM   19  C10 UNL     1      26.131   3.967  49.652  1.00  0.00     0.004 A 
HETATM   20  C11 UNL     1      26.322   2.763  50.284  1.00  0.00     0.019 A 
HETATM   21  C12 UNL     1      25.530   2.432  51.363  1.00  0.00     0.013 A 
HETATM   22 BR1  UNL     1      25.797   0.761  52.237  1.00  0.00    -0.051 Br
HETATM   23  C13 UNL     1      24.572   3.332  51.765  1.00  0.00     0.049 A 
ENDBRANCH  15  17
ENDBRANCH  14  15
ENDBRANCH   6  14
BRANCH   1  24
HETATM   24  C2  UNL     1      22.371  -0.706  53.488  1.00  0.00    -0.010 C 
HETATM   25  C1  UNL     1      21.888  -1.163  54.655  1.00  0.00     0.011 C 
ENDBRANCH   1  24
TORSDOF 4
ENDMDL
MODEL 7
REMARK VINA RESULT:      -7.0      3.681      5.834
REMARK  4 active torsions:
REMARK  status: ('A' for Active; 'I' for Inactive)
REMARK    1  A    between atoms: C2_2  and  C3_3 
REMARK    2  A    between atoms: C7_8  and  S1_9 
REMARK    3  A    between atoms: S1_9  and  N2_10 
REMARK    4  A    between atoms: N2_10  and  C8_11 
ROOT
HETATM    1  C3  UNL     1      19.325   0.618  51.020  1.00  0.00     0.004 C 
HETATM    2  C4  UNL     1      19.957   1.768  50.773  1.00  0.00    -0.052 C 
HETATM    3  C5  UNL     1      20.067   2.654  52.006  1.00  0.00     0.156 C 
HETATM    4  N1  UNL     1      21.278   3.529  51.870  1.00  0.00    -0.370 N 
HETATM    5  C6  UNL     1      21.408   3.906  50.449  1.00  0.00     0.135 C 
HETATM    6  C7  UNL     1      22.717   3.448  50.434  1.00  0.00     0.156 C 
HETATM    7  N3  UNL     1      22.899   2.398  49.379  1.00  0.00    -0.252 NA
HETATM    8  C14 UNL     1      21.871   1.557  49.183  1.00  0.00     0.102 C 
HETATM    9  C15 UNL     1      20.386   1.894  49.350  1.00  0.00     0.074 C 
HETATM   10  C16 UNL     1      20.085   3.211  48.720  1.00  0.00     0.136 C 
HETATM   11  N4  UNL     1      20.575   4.405  49.374  1.00  0.00    -0.373 N 
HETATM   12  H7  UNL     1      22.002   3.866  52.530  1.00  0.00     0.161 HD
HETATM   13  H17 UNL     1      20.238   5.301  48.947  1.00  0.00     0.161 HD
ENDROOT
BRANCH   6  14
HETATM   14  S1  UNL     1      23.769   4.114  51.700  1.00  0.00     0.010 SA
BRANCH  14  15
HETATM   15  N2  UNL     1      25.322   3.321  51.692  1.00  0.00    -0.325 N 
HETATM   16  H8  UNL     1      26.267   3.720  51.404  1.00  0.00     0.174 HD
BRANCH  15  17
HETATM   17  C8  UNL     1      25.417   1.949  52.119  1.00  0.00     0.039 A 
HETATM   18  C9  UNL     1      26.505   1.135  51.944  1.00  0.00     0.030 A 
HETATM   19  C10 UNL     1      26.562  -0.163  52.362  1.00  0.00     0.004 A 
HETATM   20  C11 UNL     1      25.484  -0.724  53.001  1.00  0.00     0.019 A 
HETATM   21  C12 UNL     1      24.353   0.036  53.212  1.00  0.00     0.013 A 
HETATM   22 BR1  UNL     1      22.859  -0.745  54.099  1.00  0.00    -0.051 Br
HETATM   23  C13 UNL     1      24.353   1.337  52.769  1.00  0.00     0.049 A 
ENDBRANCH  15  17
ENDBRANCH  14  15
ENDBRANCH   6  14
BRANCH   1  24
HETATM   24  C2  UNL     1      18.668  -0.167  52.045  1.00  0.00    -0.010 C 
HETATM   25  C1  UNL     1      18.977  -0.819  53.178  1.00  0.00     0.011 C 
ENDBRANCH   1  24
TORSDOF 4
ENDMDL
MODEL 8
REMARK VINA RESULT:      -7.0      2.828      3.964
REMARK  4 active torsions:
REMARK  status: ('A' for Active; 'I' for Inactive)
REMARK    1  A    between atoms: C2_2  and  C3_3 
REMARK    2  A    between atoms: C7_8  and  S1_9 
REMARK    3  A    between atoms: S1_9  and  N2_10 
REMARK    4  A    between atoms: N2_10  and  C8_11 
ROOT
HETATM    1  C3  UNL     1      25.639   8.258  46.206  1.00  0.00     0.004 C 
HETATM    2  C4  UNL     1      25.720   7.714  47.423  1.00  0.00    -0.052 C 
HETATM    3  C5  UNL     1      24.407   7.090  47.877  1.00  0.00     0.156 C 
HETATM    4  N1  UNL     1      24.704   5.983  48.846  1.00  0.00    -0.370 N 
HETATM    5  C6  UNL     1      25.862   6.394  49.664  1.00  0.00     0.135 C 
HETATM    6  C7  UNL     1      26.522   5.218  49.343  1.00  0.00     0.156 C 
HETATM    7  N3  UNL     1      27.846   5.512  48.701  1.00  0.00    -0.252 NA
HETATM    8  C14 UNL     1      27.895   6.577  47.885  1.00  0.00     0.102 C 
HETATM    9  C15 UNL     1      27.075   7.862  48.029  1.00  0.00     0.074 C 
HETATM   10  C16 UNL     1      27.079   8.317  49.449  1.00  0.00     0.136 C 
HETATM   11  N4  UNL     1      26.313   7.551  50.408  1.00  0.00    -0.373 N 
HETATM   12  H7  UNL     1      24.300   5.044  49.013  1.00  0.00     0.161 HD
HETATM   13  H17 UNL     1      26.263   7.982  51.364  1.00  0.00     0.161 HD
ENDROOT
BRANCH   6  14
HETATM   14  S1  UNL     1      25.613   3.726  49.655  1.00  0.00     0.010 SA
BRANCH  14  15
HETATM   15  N2  UNL     1      25.479   3.430  51.368  1.00  0.00    -0.325 N 
HETATM   16  H8  UNL     1      25.317   4.135  52.150  1.00  0.00     0.174 HD
BRANCH  15  17
HETATM   17  C8  UNL     1      25.589   2.083  51.863  1.00  0.00     0.039 A 
HETATM   18  C9  UNL     1      26.700   1.287  51.761  1.00  0.00     0.030 A 
HETATM   19  C10 UNL     1      26.771   0.011  52.242  1.00  0.00     0.004 A 
HETATM   20  C11 UNL     1      25.685  -0.544  52.872  1.00  0.00     0.019 A 
HETATM   21  C12 UNL     1      24.532   0.198  53.011  1.00  0.00     0.013 A 
HETATM   22 BR1  UNL     1      23.026  -0.575  53.886  1.00  0.00    -0.051 Br
HETATM   23  C13 UNL     1      24.518   1.477  52.507  1.00  0.00     0.049 A 
ENDBRANCH  15  17
ENDBRANCH  14  15
ENDBRANCH   6  14
BRANCH   1  24
HETATM   24  C2  UNL     1      24.754   8.506  45.086  1.00  0.00    -0.010 C 
HETATM   25  C1  UNL     1      23.695   7.940  44.484  1.00  0.00     0.011 C 
ENDBRANCH   1  24
TORSDOF 4
ENDMDL
MODEL 9
REMARK VINA RESULT:      -7.0      3.720      7.228
REMARK  4 active torsions:
REMARK  status: ('A' for Active; 'I' for Inactive)
REMARK    1  A    between atoms: C2_2  and  C3_3 
REMARK    2  A    between atoms: C7_8  and  S1_9 
REMARK    3  A    between atoms: S1_9  and  N2_10 
REMARK    4  A    between atoms: N2_10  and  C8_11 
ROOT
HETATM    1  C3  UNL     1      22.436   0.858  53.062  1.00  0.00     0.004 C 
HETATM    2  C4  UNL     1      22.878   2.047  52.645  1.00  0.00    -0.052 C 
HETATM    3  C5  UNL     1      24.314   2.322  53.069  1.00  0.00     0.156 C 
HETATM    4  N1  UNL     1      24.942   3.259  52.080  1.00  0.00    -0.370 N 
HETATM    5  C6  UNL     1      23.909   4.219  51.644  1.00  0.00     0.135 C 
HETATM    6  C7  UNL     1      24.165   3.913  50.317  1.00  0.00     0.156 C 
HETATM    7  N3  UNL     1      22.918   3.436  49.634  1.00  0.00    -0.252 NA
HETATM    8  C14 UNL     1      22.080   2.686  50.366  1.00  0.00     0.102 C 
HETATM    9  C15 UNL     1      21.849   2.805  51.875  1.00  0.00     0.074 C 
HETATM   10  C16 UNL     1      21.708   4.237  52.262  1.00  0.00     0.136 C 
HETATM   11  N4  UNL     1      22.894   5.067  52.234  1.00  0.00    -0.373 N 
HETATM   12  H7  UNL     1      25.884   3.333  51.654  1.00  0.00     0.161 HD
HETATM   13  H17 UNL     1      22.755   6.032  52.622  1.00  0.00     0.161 HD
ENDROOT
BRANCH   6  14
HETATM   14  S1  UNL     1      25.864   4.046  49.820  1.00  0.00     0.010 SA
BRANCH  14  15
HETATM   15  N2  UNL     1      26.429   5.688  49.985  1.00  0.00    -0.325 N 
HETATM   16  H8  UNL     1      26.767   6.186  50.864  1.00  0.00     0.174 HD
BRANCH  15  17
HETATM   17  C8  UNL     1      26.474   6.539  48.825  1.00  0.00     0.039 A 
HETATM   18  C9  UNL     1      25.389   7.113  48.217  1.00  0.00     0.030 A 
HETATM   19  C10 UNL     1      25.466   7.917  47.117  1.00  0.00     0.004 A 
HETATM   20  C11 UNL     1      26.689   8.192  46.555  1.00  0.00     0.019 A 
HETATM   21  C12 UNL     1      27.827   7.648  47.114  1.00  0.00     0.013 A 
HETATM   22 BR1  UNL     1      29.522   8.031  46.333  1.00  0.00    -0.051 Br
HETATM   23  C13 UNL     1      27.687   6.846  48.221  1.00  0.00     0.049 A 
ENDBRANCH  15  17
ENDBRANCH  14  15
ENDBRANCH   6  14
BRANCH   1  24
HETATM   24  C2  UNL     1      22.794  -0.339  53.796  1.00  0.00    -0.010 C 
HETATM   25  C1  UNL     1      22.360  -1.053  54.848  1.00  0.00     0.011 C 
ENDBRANCH   1  24
TORSDOF 4
ENDMDL
