MODEL 1
REMARK VINA RESULT:      -8.4      0.000      0.000
REMARK  5 active torsions:
REMARK  status: ('A' for Active; 'I' for Inactive)
REMARK    1  A    between atoms: C4_4  and  C5_5 
REMARK    2  A    between atoms: C13_15  and  C14_16 
REMARK    3  A    between atoms: C14_16  and  C15_17 
REMARK    4  A    between atoms: C15_17  and  C16_18 
REMARK    5  A    between atoms: C16_18  and  O3_20 
ROOT
HETATM    1  C1  UNL     1      28.943  -2.626  53.092  1.00  0.00     0.049 C 
HETATM    2  C2  UNL     1      27.770  -1.725  53.049  1.00  0.00    -0.054 A 
HETATM    3  C3  UNL     1      26.706  -1.721  52.249  1.00  0.00     0.020 A 
HETATM    4  C4  UNL     1      26.127  -0.555  52.904  1.00  0.00    -0.016 A 
HETATM    5  C13 UNL     1      27.181  -0.558  53.695  1.00  0.00    -0.041 A 
ENDROOT
BRANCH   4   6
HETATM    6  C5  UNL     1      24.929   0.251  52.754  1.00  0.00     0.007 A 
HETATM    7  C6  UNL     1      24.750   1.341  52.030  1.00  0.00     0.089 A 
HETATM    8  C7  UNL     1      23.404   1.888  52.121  1.00  0.00     0.253 A 
HETATM    9  O1  UNL     1      22.911   2.901  51.566  1.00  0.00    -0.268 OA
HETATM   10  N1  UNL     1      22.692   1.030  53.001  1.00  0.00    -0.289 N 
HETATM   11  C8  UNL     1      21.347   1.079  53.452  1.00  0.00     0.097 A 
HETATM   12  C12 UNL     1      23.638   0.016  53.392  1.00  0.00     0.050 A 
HETATM   13  C9  UNL     1      20.910   0.139  54.290  1.00  0.00    -0.005 A 
HETATM   14  C10 UNL     1      21.772  -0.968  54.778  1.00  0.00     0.058 A 
HETATM   15  C11 UNL     1      23.141  -0.874  54.216  1.00  0.00     0.008 A 
ENDBRANCH   4   6
BRANCH   5  16
HETATM   16  C14 UNL     1      27.765   0.169  54.821  1.00  0.00     0.050 C 
BRANCH  16  17
HETATM   17  C15 UNL     1      28.911   1.064  54.410  1.00  0.00     0.114 C 
BRANCH  17  18
HETATM   18  C16 UNL     1      28.494   1.975  53.318  1.00  0.00     0.139 C 
HETATM   19  O2  UNL     1      28.049   2.771  54.186  1.00  0.00    -0.650 OA
BRANCH  18  20
HETATM   20  O3  UNL     1      28.080   2.869  52.346  1.00  0.00    -0.776 OA
HETATM   21  H15 UNL     1      27.094   2.902  52.038  1.00  0.00     0.167 HD
ENDBRANCH  18  20
ENDBRANCH  17  18
ENDBRANCH  16  17
ENDBRANCH   5  16
TORSDOF 5
ENDMDL
MODEL 2
REMARK VINA RESULT:      -8.0      2.115      3.148
REMARK  5 active torsions:
REMARK  status: ('A' for Active; 'I' for Inactive)
REMARK    1  A    between atoms: C4_4  and  C5_5 
REMARK    2  A    between atoms: C13_15  and  C14_16 
REMARK    3  A    between atoms: C14_16  and  C15_17 
REMARK    4  A    between atoms: C15_17  and  C16_18 
REMARK    5  A    between atoms: C16_18  and  O3_20 
ROOT
HETATM    1  C1  UNL     1      28.534   2.189  53.685  1.00  0.00     0.049 C 
HETATM    2  C2  UNL     1      27.123   1.878  53.361  1.00  0.00    -0.054 A 
HETATM    3  C3  UNL     1      26.001   2.534  53.651  1.00  0.00     0.020 A 
HETATM    4  C4  UNL     1      25.166   1.550  52.973  1.00  0.00    -0.016 A 
HETATM    5  C13 UNL     1      26.277   0.902  52.687  1.00  0.00    -0.041 A 
ENDROOT
BRANCH   4   6
HETATM    6  C5  UNL     1      23.748   1.365  52.725  1.00  0.00     0.007 A 
HETATM    7  C6  UNL     1      22.953   2.041  51.916  1.00  0.00     0.089 A 
HETATM    8  C7  UNL     1      21.575   1.570  51.922  1.00  0.00     0.253 A 
HETATM    9  O1  UNL     1      20.582   1.989  51.278  1.00  0.00    -0.268 OA
HETATM   10  N1  UNL     1      21.536   0.488  52.841  1.00  0.00    -0.289 N 
HETATM   11  C8  UNL     1      20.459  -0.343  53.244  1.00  0.00     0.097 A 
HETATM   12  C12 UNL     1      22.883   0.361  53.337  1.00  0.00     0.050 A 
HETATM   13  C9  UNL     1      20.683  -1.308  54.136  1.00  0.00    -0.005 A 
HETATM   14  C10 UNL     1      22.020  -1.557  54.734  1.00  0.00     0.058 A 
HETATM   15  C11 UNL     1      23.031  -0.606  54.209  1.00  0.00     0.008 A 
ENDBRANCH   4   6
BRANCH   5  16
HETATM   16  C14 UNL     1      26.753  -0.299  52.001  1.00  0.00     0.050 C 
BRANCH  16  17
HETATM   17  C15 UNL     1      26.351  -1.574  52.704  1.00  0.00     0.114 C 
BRANCH  17  18
HETATM   18  C16 UNL     1      27.493  -2.518  52.761  1.00  0.00     0.139 C 
HETATM   19  O2  UNL     1      28.069  -1.733  53.559  1.00  0.00    -0.650 OA
BRANCH  18  20
HETATM   20  O3  UNL     1      28.590  -3.356  52.858  1.00  0.00    -0.776 OA
HETATM   21  H15 UNL     1      28.519  -4.275  53.326  1.00  0.00     0.167 HD
ENDBRANCH  18  20
ENDBRANCH  17  18
ENDBRANCH  16  17
ENDBRANCH   5  16
TORSDOF 5
ENDMDL
MODEL 3
REMARK VINA RESULT:      -7.8      2.076      3.416
REMARK  5 active torsions:
REMARK  status: ('A' for Active; 'I' for Inactive)
REMARK    1  A    between atoms: C4_4  and  C5_5 
REMARK    2  A    between atoms: C13_15  and  C14_16 
REMARK    3  A    between atoms: C14_16  and  C15_17 
REMARK    4  A    between atoms: C15_17  and  C16_18 
REMARK    5  A    between atoms: C16_18  and  O3_20 
ROOT
HETATM    1  C1  UNL     1      26.544   3.111  50.363  1.00  0.00     0.049 C 
HETATM    2  C2  UNL     1      25.688   2.213  51.171  1.00  0.00    -0.054 A 
HETATM    3  C3  UNL     1      24.383   2.260  51.433  1.00  0.00     0.020 A 
HETATM    4  C4  UNL     1      24.429   1.053  52.248  1.00  0.00    -0.016 A 
HETATM    5  C13 UNL     1      25.721   1.007  51.989  1.00  0.00    -0.041 A 
ENDROOT
BRANCH   4   6
HETATM    6  C5  UNL     1      23.482   0.258  53.008  1.00  0.00     0.007 A 
HETATM    7  C6  UNL     1      23.701  -0.516  54.055  1.00  0.00     0.089 A 
HETATM    8  C7  UNL     1      22.502  -1.167  54.562  1.00  0.00     0.253 A 
HETATM    9  O1  UNL     1      22.367  -1.954  55.531  1.00  0.00    -0.268 OA
HETATM   10  N1  UNL     1      21.440  -0.737  53.723  1.00  0.00    -0.289 N 
HETATM   11  C8  UNL     1      20.056  -1.051  53.751  1.00  0.00     0.097 A 
HETATM   12  C12 UNL     1      22.048   0.146  52.761  1.00  0.00     0.050 A 
HETATM   13  C9  UNL     1      19.250  -0.508  52.839  1.00  0.00    -0.005 A 
HETATM   14  C10 UNL     1      19.736   0.420  51.786  1.00  0.00     0.058 A 
HETATM   15  C11 UNL     1      21.198   0.643  51.896  1.00  0.00     0.008 A 
ENDBRANCH   4   6
BRANCH   5  16
HETATM   16  C14 UNL     1      26.912   0.206  52.266  1.00  0.00     0.050 C 
BRANCH  16  17
HETATM   17  C15 UNL     1      27.529   0.515  53.609  1.00  0.00     0.114 C 
BRANCH  17  18
HETATM   18  C16 UNL     1      28.450   1.672  53.505  1.00  0.00     0.139 C 
HETATM   19  O2  UNL     1      28.878   1.403  54.658  1.00  0.00    -0.650 OA
BRANCH  18  20
HETATM   20  O3  UNL     1      29.333   2.737  53.471  1.00  0.00    -0.776 OA
HETATM   21  H15 UNL     1      30.237   2.695  53.970  1.00  0.00     0.167 HD
ENDBRANCH  18  20
ENDBRANCH  17  18
ENDBRANCH  16  17
ENDBRANCH   5  16
TORSDOF 5
ENDMDL
MODEL 4
REMARK VINA RESULT:      -7.7      2.513      3.664
REMARK  5 active torsions:
REMARK  status: ('A' for Active; 'I' for Inactive)
REMARK    1  A    between atoms: C4_4  and  C5_5 
REMARK    2  A    between atoms: C13_15  and  C14_16 
REMARK    3  A    between atoms: C14_16  and  C15_17 
REMARK    4  A    between atoms: C15_17  and  C16_18 
REMARK    5  A    between atoms: C16_18  and  O3_20 
ROOT
HETATM    1  C1  UNL     1      28.213   2.310  53.255  1.00  0.00     0.049 C 
HETATM    2  C2  UNL     1      26.902   1.624  53.272  1.00  0.00    -0.054 A 
HETATM    3  C3  UNL     1      25.751   1.964  53.848  1.00  0.00     0.020 A 
HETATM    4  C4  UNL     1      25.069   0.773  53.357  1.00  0.00    -0.016 A 
HETATM    5  C13 UNL     1      26.209   0.437  52.787  1.00  0.00    -0.041 A 
ENDROOT
BRANCH   4   6
HETATM    6  C5  UNL     1      23.736   0.207  53.453  1.00  0.00     0.007 A 
HETATM    7  C6  UNL     1      23.254  -0.629  54.353  1.00  0.00     0.089 A 
HETATM    8  C7  UNL     1      21.860  -0.986  54.132  1.00  0.00     0.253 A 
HETATM    9  O1  UNL     1      21.113  -1.748  54.794  1.00  0.00    -0.268 OA
HETATM   10  N1  UNL     1      21.457  -0.285  52.964  1.00  0.00    -0.289 N 
HETATM   11  C8  UNL     1      20.210  -0.255  52.288  1.00  0.00     0.097 A 
HETATM   12  C12 UNL     1      22.621   0.454  52.545  1.00  0.00     0.050 A 
HETATM   13  C9  UNL     1      20.083   0.496  51.195  1.00  0.00    -0.005 A 
HETATM   14  C10 UNL     1      21.196   1.312  50.645  1.00  0.00     0.058 A 
HETATM   15  C11 UNL     1      22.424   1.170  51.464  1.00  0.00     0.008 A 
ENDBRANCH   4   6
BRANCH   5  16
HETATM   16  C14 UNL     1      26.806  -0.613  51.963  1.00  0.00     0.050 C 
BRANCH  16  17
HETATM   17  C15 UNL     1      27.310  -1.782  52.775  1.00  0.00     0.114 C 
BRANCH  17  18
HETATM   18  C16 UNL     1      28.683  -1.520  53.269  1.00  0.00     0.139 C 
HETATM   19  O2  UNL     1      28.851  -2.762  53.386  1.00  0.00    -0.650 OA
BRANCH  18  20
HETATM   20  O3  UNL     1      29.974  -1.343  53.735  1.00  0.00    -0.776 OA
HETATM   21  H15 UNL     1      30.253  -0.469  54.211  1.00  0.00     0.167 HD
ENDBRANCH  18  20
ENDBRANCH  17  18
ENDBRANCH  16  17
ENDBRANCH   5  16
TORSDOF 5
ENDMDL
MODEL 5
REMARK VINA RESULT:      -7.7      3.426      5.422
REMARK  5 active torsions:
REMARK  status: ('A' for Active; 'I' for Inactive)
REMARK    1  A    between atoms: C4_4  and  C5_5 
REMARK    2  A    between atoms: C13_15  and  C14_16 
REMARK    3  A    between atoms: C14_16  and  C15_17 
REMARK    4  A    between atoms: C15_17  and  C16_18 
REMARK    5  A    between atoms: C16_18  and  O3_20 
ROOT
HETATM    1  C1  UNL     1      23.337  -0.377  53.423  1.00  0.00     0.049 C 
HETATM    2  C2  UNL     1      23.676   0.966  52.901  1.00  0.00    -0.054 A 
HETATM    3  C3  UNL     1      23.043   1.742  52.025  1.00  0.00     0.020 A 
HETATM    4  C4  UNL     1      24.043   2.797  52.126  1.00  0.00    -0.016 A 
HETATM    5  C13 UNL     1      24.670   2.028  52.994  1.00  0.00    -0.041 A 
ENDROOT
BRANCH   4   6
HETATM    6  C5  UNL     1      24.258   4.106  51.537  1.00  0.00     0.007 A 
HETATM    7  C6  UNL     1      23.599   5.230  51.754  1.00  0.00     0.089 A 
HETATM    8  C7  UNL     1      24.096   6.357  50.979  1.00  0.00     0.253 A 
HETATM    9  O1  UNL     1      23.699   7.548  50.950  1.00  0.00    -0.268 OA
HETATM   10  N1  UNL     1      25.178   5.855  50.207  1.00  0.00    -0.289 N 
HETATM   11  C8  UNL     1      26.029   6.505  49.276  1.00  0.00     0.097 A 
HETATM   12  C12 UNL     1      25.277   4.460  50.554  1.00  0.00     0.050 A 
HETATM   13  C9  UNL     1      26.987   5.801  48.673  1.00  0.00    -0.005 A 
HETATM   14  C10 UNL     1      27.208   4.356  48.932  1.00  0.00     0.058 A 
HETATM   15  C11 UNL     1      26.239   3.831  49.925  1.00  0.00     0.008 A 
ENDBRANCH   4   6
BRANCH   5  16
HETATM   16  C14 UNL     1      25.861   1.999  53.841  1.00  0.00     0.050 C 
BRANCH  16  17
HETATM   17  C15 UNL     1      27.019   1.269  53.201  1.00  0.00     0.114 C 
BRANCH  17  18
HETATM   18  C16 UNL     1      28.199   2.160  53.091  1.00  0.00     0.139 C 
HETATM   19  O2  UNL     1      27.898   2.655  54.209  1.00  0.00    -0.650 OA
BRANCH  18  20
HETATM   20  O3  UNL     1      29.283   3.019  53.050  1.00  0.00    -0.776 OA
HETATM   21  H15 UNL     1      30.102   2.872  53.662  1.00  0.00     0.167 HD
ENDBRANCH  18  20
ENDBRANCH  17  18
ENDBRANCH  16  17
ENDBRANCH   5  16
TORSDOF 5
ENDMDL
MODEL 6
REMARK VINA RESULT:      -7.7      2.063      5.500
REMARK  5 active torsions:
REMARK  status: ('A' for Active; 'I' for Inactive)
REMARK    1  A    between atoms: C4_4  and  C5_5 
REMARK    2  A    between atoms: C13_15  and  C14_16 
REMARK    3  A    between atoms: C14_16  and  C15_17 
REMARK    4  A    between atoms: C15_17  and  C16_18 
REMARK    5  A    between atoms: C16_18  and  O3_20 
ROOT
HETATM    1  C1  UNL     1      21.094   0.178  52.660  1.00  0.00     0.049 C 
HETATM    2  C2  UNL     1      22.536   0.466  52.831  1.00  0.00    -0.054 A 
HETATM    3  C3  UNL     1      23.499  -0.239  53.422  1.00  0.00     0.020 A 
HETATM    4  C4  UNL     1      24.516   0.759  53.118  1.00  0.00    -0.016 A 
HETATM    5  C13 UNL     1      23.563   1.456  52.533  1.00  0.00    -0.041 A 
ENDROOT
BRANCH   4   6
HETATM    6  C5  UNL     1      25.940   0.918  53.353  1.00  0.00     0.007 A 
HETATM    7  C6  UNL     1      26.608   2.006  53.688  1.00  0.00     0.089 A 
HETATM    8  C7  UNL     1      28.039   1.790  53.842  1.00  0.00     0.253 A 
HETATM    9  O1  UNL     1      28.944   2.604  54.149  1.00  0.00    -0.268 OA
HETATM   10  N1  UNL     1      28.258   0.413  53.568  1.00  0.00    -0.289 N 
HETATM   11  C8  UNL     1      29.454  -0.350  53.568  1.00  0.00     0.097 A 
HETATM   12  C12 UNL     1      26.956  -0.126  53.265  1.00  0.00     0.050 A 
HETATM   13  C9  UNL     1      29.394  -1.648  53.273  1.00  0.00    -0.005 A 
HETATM   14  C10 UNL     1      28.123  -2.341  52.941  1.00  0.00     0.058 A 
HETATM   15  C11 UNL     1      26.972  -1.406  52.985  1.00  0.00     0.008 A 
ENDBRANCH   4   6
BRANCH   5  16
HETATM   16  C14 UNL     1      23.345   2.710  51.812  1.00  0.00     0.050 C 
BRANCH  16  17
HETATM   17  C15 UNL     1      24.071   2.760  50.488  1.00  0.00     0.114 C 
BRANCH  17  18
HETATM   18  C16 UNL     1      25.094   3.833  50.497  1.00  0.00     0.139 C 
HETATM   19  O2  UNL     1      25.470   3.448  49.359  1.00  0.00    -0.650 OA
BRANCH  18  20
HETATM   20  O3  UNL     1      26.069   4.813  50.442  1.00  0.00    -0.776 OA
HETATM   21  H15 UNL     1      26.159   5.517  51.193  1.00  0.00     0.167 HD
ENDBRANCH  18  20
ENDBRANCH  17  18
ENDBRANCH  16  17
ENDBRANCH   5  16
TORSDOF 5
ENDMDL
MODEL 7
REMARK VINA RESULT:      -7.5      2.776      4.450
REMARK  5 active torsions:
REMARK  status: ('A' for Active; 'I' for Inactive)
REMARK    1  A    between atoms: C4_4  and  C5_5 
REMARK    2  A    between atoms: C13_15  and  C14_16 
REMARK    3  A    between atoms: C14_16  and  C15_17 
REMARK    4  A    between atoms: C15_17  and  C16_18 
REMARK    5  A    between atoms: C16_18  and  O3_20 
ROOT
HETATM    1  C1  UNL     1      22.778  -1.705  55.333  1.00  0.00     0.049 C 
HETATM    2  C2  UNL     1      23.185  -0.732  54.294  1.00  0.00    -0.054 A 
HETATM    3  C3  UNL     1      22.463   0.129  53.579  1.00  0.00     0.020 A 
HETATM    4  C4  UNL     1      23.632   0.629  52.866  1.00  0.00    -0.016 A 
HETATM    5  C13 UNL     1      24.346  -0.224  53.573  1.00  0.00    -0.041 A 
ENDROOT
BRANCH   4   6
HETATM    6  C5  UNL     1      23.894   1.618  51.837  1.00  0.00     0.007 A 
HETATM    7  C6  UNL     1      24.843   2.535  51.793  1.00  0.00     0.089 A 
HETATM    8  C7  UNL     1      24.802   3.362  50.596  1.00  0.00     0.253 A 
HETATM    9  O1  UNL     1      25.549   4.310  50.250  1.00  0.00    -0.268 OA
HETATM   10  N1  UNL     1      23.701   2.889  49.832  1.00  0.00    -0.289 N 
HETATM   11  C8  UNL     1      23.192   3.321  48.580  1.00  0.00     0.097 A 
HETATM   12  C12 UNL     1      23.140   1.809  50.603  1.00  0.00     0.050 A 
HETATM   13  C9  UNL     1      22.130   2.703  48.064  1.00  0.00    -0.005 A 
HETATM   14  C10 UNL     1      21.447   1.573  48.744  1.00  0.00     0.058 A 
HETATM   15  C11 UNL     1      22.100   1.247  50.036  1.00  0.00     0.008 A 
ENDBRANCH   4   6
BRANCH   5  16
HETATM   16  C14 UNL     1      25.723  -0.675  53.765  1.00  0.00     0.050 C 
BRANCH  16  17
HETATM   17  C15 UNL     1      26.413  -1.023  52.466  1.00  0.00     0.114 C 
BRANCH  17  18
HETATM   18  C16 UNL     1      27.296  -2.200  52.645  1.00  0.00     0.139 C 
HETATM   19  O2  UNL     1      28.011  -1.514  53.422  1.00  0.00    -0.650 OA
BRANCH  18  20
HETATM   20  O3  UNL     1      28.159  -3.261  52.855  1.00  0.00    -0.776 OA
HETATM   21  H15 UNL     1      27.869  -4.232  52.650  1.00  0.00     0.167 HD
ENDBRANCH  18  20
ENDBRANCH  17  18
ENDBRANCH  16  17
ENDBRANCH   5  16
TORSDOF 5
ENDMDL
MODEL 8
REMARK VINA RESULT:      -7.5      3.024      5.351
REMARK  5 active torsions:
REMARK  status: ('A' for Active; 'I' for Inactive)
REMARK    1  A    between atoms: C4_4  and  C5_5 
REMARK    2  A    between atoms: C13_15  and  C14_16 
REMARK    3  A    between atoms: C14_16  and  C15_17 
REMARK    4  A    between atoms: C15_17  and  C16_18 
REMARK    5  A    between atoms: C16_18  and  O3_20 
ROOT
HETATM    1  C1  UNL     1      27.148  -2.114  52.734  1.00  0.00     0.049 C 
HETATM    2  C2  UNL     1      26.475  -0.810  52.540  1.00  0.00    -0.054 A 
HETATM    3  C3  UNL     1      26.814   0.241  51.796  1.00  0.00     0.020 A 
HETATM    4  C4  UNL     1      25.638   1.000  52.203  1.00  0.00    -0.016 A 
HETATM    5  C13 UNL     1      25.303  -0.040  52.939  1.00  0.00    -0.041 A 
ENDROOT
BRANCH   4   6
HETATM    6  C5  UNL     1      25.083   2.313  51.925  1.00  0.00     0.007 A 
HETATM    7  C6  UNL     1      24.056   2.915  52.495  1.00  0.00     0.089 A 
HETATM    8  C7  UNL     1      23.783   4.240  51.957  1.00  0.00     0.253 A 
HETATM    9  O1  UNL     1      22.891   5.065  52.272  1.00  0.00    -0.268 OA
HETATM   10  N1  UNL     1      24.757   4.459  50.946  1.00  0.00    -0.289 N 
HETATM   11  C8  UNL     1      24.970   5.574  50.095  1.00  0.00     0.097 A 
HETATM   12  C12 UNL     1      25.563   3.265  50.928  1.00  0.00     0.050 A 
HETATM   13  C9  UNL     1      25.970   5.536  49.215  1.00  0.00    -0.005 A 
HETATM   14  C10 UNL     1      26.882   4.372  49.083  1.00  0.00     0.058 A 
HETATM   15  C11 UNL     1      26.526   3.296  50.041  1.00  0.00     0.008 A 
ENDBRANCH   4   6
BRANCH   5  16
HETATM   16  C14 UNL     1      24.261  -0.501  53.856  1.00  0.00     0.050 C 
BRANCH  16  17
HETATM   17  C15 UNL     1      22.904  -0.603  53.199  1.00  0.00     0.114 C 
BRANCH  17  18
HETATM   18  C16 UNL     1      21.925  -1.226  54.122  1.00  0.00     0.139 C 
HETATM   19  O2  UNL     1      21.575  -0.073  54.487  1.00  0.00    -0.650 OA
BRANCH  18  20
HETATM   20  O3  UNL     1      20.992  -1.744  55.002  1.00  0.00    -0.776 OA
HETATM   21  H15 UNL     1      19.980  -1.609  54.846  1.00  0.00     0.167 HD
ENDBRANCH  18  20
ENDBRANCH  17  18
ENDBRANCH  16  17
ENDBRANCH   5  16
TORSDOF 5
ENDMDL
MODEL 9
REMARK VINA RESULT:      -7.3      3.158      5.036
REMARK  5 active torsions:
REMARK  status: ('A' for Active; 'I' for Inactive)
REMARK    1  A    between atoms: C4_4  and  C5_5 
REMARK    2  A    between atoms: C13_15  and  C14_16 
REMARK    3  A    between atoms: C14_16  and  C15_17 
REMARK    4  A    between atoms: C15_17  and  C16_18 
REMARK    5  A    between atoms: C16_18  and  O3_20 
ROOT
HETATM    1  C1  UNL     1      23.142  -0.535  53.568  1.00  0.00     0.049 C 
HETATM    2  C2  UNL     1      23.890   0.475  52.786  1.00  0.00    -0.054 A 
HETATM    3  C3  UNL     1      23.460   1.509  52.065  1.00  0.00     0.020 A 
HETATM    4  C4  UNL     1      24.812   1.904  51.692  1.00  0.00    -0.016 A 
HETATM    5  C13 UNL     1      25.237   0.881  52.405  1.00  0.00    -0.041 A 
ENDROOT
BRANCH   4   6
HETATM    6  C5  UNL     1      25.421   2.951  50.892  1.00  0.00     0.007 A 
HETATM    7  C6  UNL     1      26.473   2.881  50.097  1.00  0.00     0.089 A 
HETATM    8  C7  UNL     1      26.801   4.143  49.449  1.00  0.00     0.253 A 
HETATM    9  O1  UNL     1      27.727   4.414  48.645  1.00  0.00    -0.268 OA
HETATM   10  N1  UNL     1      25.836   5.080  49.907  1.00  0.00    -0.289 N 
HETATM   11  C8  UNL     1      25.670   6.456  49.606  1.00  0.00     0.097 A 
HETATM   12  C12 UNL     1      24.982   4.340  50.801  1.00  0.00     0.050 A 
HETATM   13  C9  UNL     1      24.669   7.128  50.174  1.00  0.00    -0.005 A 
HETATM   14  C10 UNL     1      23.709   6.497  51.115  1.00  0.00     0.058 A 
HETATM   15  C11 UNL     1      24.020   5.062  51.322  1.00  0.00     0.008 A 
ENDBRANCH   4   6
BRANCH   5  16
HETATM   16  C14 UNL     1      26.469   0.209  52.816  1.00  0.00     0.050 C 
BRANCH  16  17
HETATM   17  C15 UNL     1      27.170   0.913  53.955  1.00  0.00     0.114 C 
BRANCH  17  18
HETATM   18  C16 UNL     1      28.174   1.871  53.435  1.00  0.00     0.139 C 
HETATM   19  O2  UNL     1      27.654   2.766  54.151  1.00  0.00    -0.650 OA
BRANCH  18  20
HETATM   20  O3  UNL     1      29.083   2.814  52.989  1.00  0.00    -0.776 OA
HETATM   21  H15 UNL     1      28.861   3.432  52.191  1.00  0.00     0.167 HD
ENDBRANCH  18  20
ENDBRANCH  17  18
ENDBRANCH  16  17
ENDBRANCH   5  16
TORSDOF 5
ENDMDL
