MODEL 1
REMARK VINA RESULT:      -8.9      0.000      0.000
REMARK  5 active torsions:
REMARK  status: ('A' for Active; 'I' for Inactive)
REMARK    1  A    between atoms: N1_3  and  N2_4 
REMARK    2  A    between atoms: N2_4  and  C3_5 
REMARK    3  A    between atoms: C3_5  and  C4_6 
REMARK    4  A    between atoms: C7_10  and  C8_11 
REMARK    5  A    between atoms: C11_14  and  N4_15 
ROOT
HETATM    1  C4  UNL     1      26.283   0.793  52.715  1.00  0.00     0.054 A 
HETATM    2  C5  UNL     1      27.487   1.441  52.593  1.00  0.00     0.146 A 
HETATM    3  N3  UNL     1      27.296   2.478  51.758  1.00  0.00    -0.238 NA
HETATM    4  C6  UNL     1      26.019   2.518  51.342  1.00  0.00     0.165 A 
HETATM    5  C7  UNL     1      25.281   3.334  50.508  1.00  0.00     0.131 A 
HETATM    6  N6  UNL     1      23.975   3.106  50.285  1.00  0.00    -0.253 NA
HETATM    7  C18 UNL     1      23.334   2.075  50.865  1.00  0.00     0.135 A 
HETATM    8  C19 UNL     1      24.089   1.271  51.695  1.00  0.00     0.118 A 
HETATM    9  N7  UNL     1      25.395   1.468  51.941  1.00  0.00    -0.304 N 
ENDROOT
BRANCH   5  10
HETATM   10  C8  UNL     1      25.932   4.474  49.850  1.00  0.00     0.088 A 
HETATM   11  C9  UNL     1      26.933   4.430  48.995  1.00  0.00     0.015 A 
HETATM   12  C10 UNL     1      27.308   5.801  48.553  1.00  0.00     0.108 A 
HETATM   13  C11 UNL     1      26.333   6.619  49.316  1.00  0.00     0.106 A 
HETATM   14  N5  UNL     1      25.598   5.840  50.015  1.00  0.00    -0.233 NA
BRANCH  13  15
HETATM   15  N4  UNL     1      26.319   8.039  49.203  1.00  0.00    -0.364 N 
HETATM   16  C12 UNL     1      25.740   8.735  48.058  1.00  0.00     0.155 C 
HETATM   17  C13 UNL     1      25.924  10.224  48.373  1.00  0.00     0.136 C 
HETATM   18  C14 UNL     1      25.508  10.956  47.091  1.00  0.00     0.041 C 
HETATM   19  O1  UNL     1      27.297  10.434  48.487  1.00  0.00    -0.378 OA
HETATM   20  C15 UNL     1      27.842   9.838  49.596  1.00  0.00     0.136 C 
HETATM   21  C16 UNL     1      29.067   9.074  49.148  1.00  0.00     0.041 C 
HETATM   22  C17 UNL     1      26.901   8.865  50.259  1.00  0.00     0.155 C 
ENDBRANCH  13  15
ENDBRANCH   5  10
BRANCH   1  23
HETATM   23  C3  UNL     1      25.910  -0.404  53.503  1.00  0.00     0.200 C 
BRANCH  23  24
HETATM   24  N2  UNL     1      26.785  -1.519  53.355  1.00  0.00    -0.309 N 
HETATM   25  H5  UNL     1      26.870  -2.266  54.096  1.00  0.00     0.182 HD
BRANCH  24  26
HETATM   26  N1  UNL     1      27.697  -2.518  53.008  1.00  0.00    -0.196 NA
HETATM   27  C2  UNL     1      28.962  -2.230  53.196  1.00  0.00     0.107 C 
HETATM   28  C1  UNL     1      29.846  -1.129  53.686  1.00  0.00     0.059 C 
ENDBRANCH  24  26
ENDBRANCH  23  24
ENDBRANCH   1  23
TORSDOF 5
ENDMDL
MODEL 2
REMARK VINA RESULT:      -8.7      1.850      2.792
REMARK  5 active torsions:
REMARK  status: ('A' for Active; 'I' for Inactive)
REMARK    1  A    between atoms: N1_3  and  N2_4 
REMARK    2  A    between atoms: N2_4  and  C3_5 
REMARK    3  A    between atoms: C3_5  and  C4_6 
REMARK    4  A    between atoms: C7_10  and  C8_11 
REMARK    5  A    between atoms: C11_14  and  N4_15 
ROOT
HETATM    1  C4  UNL     1      26.173   0.905  52.510  1.00  0.00     0.054 A 
HETATM    2  C5  UNL     1      27.364   1.574  52.374  1.00  0.00     0.146 A 
HETATM    3  N3  UNL     1      27.151   2.593  51.522  1.00  0.00    -0.238 NA
HETATM    4  C6  UNL     1      25.872   2.601  51.109  1.00  0.00     0.165 A 
HETATM    5  C7  UNL     1      25.116   3.388  50.263  1.00  0.00     0.131 A 
HETATM    6  N6  UNL     1      23.814   3.131  50.047  1.00  0.00    -0.253 NA
HETATM    7  C18 UNL     1      23.195   2.098  50.646  1.00  0.00     0.135 A 
HETATM    8  C19 UNL     1      23.968   1.323  51.488  1.00  0.00     0.118 A 
HETATM    9  N7  UNL     1      25.270   1.549  51.728  1.00  0.00    -0.304 N 
ENDROOT
BRANCH   5  10
HETATM   10  C8  UNL     1      25.743   4.529  49.584  1.00  0.00     0.088 A 
HETATM   11  C9  UNL     1      25.177   5.679  49.280  1.00  0.00     0.015 A 
HETATM   12  C10 UNL     1      26.146   6.577  48.594  1.00  0.00     0.108 A 
HETATM   13  C11 UNL     1      27.356   5.720  48.571  1.00  0.00     0.106 A 
HETATM   14  N5  UNL     1      27.081   4.602  49.128  1.00  0.00    -0.233 NA
BRANCH  13  15
HETATM   15  N4  UNL     1      28.572   6.182  47.990  1.00  0.00    -0.364 N 
HETATM   16  C12 UNL     1      29.848   5.498  48.179  1.00  0.00     0.155 C 
HETATM   17  C13 UNL     1      30.855   6.320  47.366  1.00  0.00     0.136 C 
HETATM   18  C14 UNL     1      32.227   5.734  47.722  1.00  0.00     0.041 C 
HETATM   19  O1  UNL     1      30.849   7.601  47.915  1.00  0.00    -0.378 OA
HETATM   20  C15 UNL     1      29.678   8.279  47.689  1.00  0.00     0.136 C 
HETATM   21  C16 UNL     1      29.223   8.859  49.008  1.00  0.00     0.041 C 
HETATM   22  C17 UNL     1      28.580   7.389  47.165  1.00  0.00     0.155 C 
ENDBRANCH  13  15
ENDBRANCH   5  10
BRANCH   1  23
HETATM   23  C3  UNL     1      25.826  -0.286  53.319  1.00  0.00     0.200 C 
BRANCH  23  24
HETATM   24  N2  UNL     1      26.811  -1.314  53.332  1.00  0.00    -0.309 N 
HETATM   25  H5  UNL     1      27.392  -1.521  54.189  1.00  0.00     0.182 HD
BRANCH  24  26
HETATM   26  N1  UNL     1      27.715  -2.358  53.128  1.00  0.00    -0.196 NA
HETATM   27  C2  UNL     1      28.984  -2.053  53.261  1.00  0.00     0.107 C 
HETATM   28  C1  UNL     1      29.877  -0.898  53.578  1.00  0.00     0.059 C 
ENDBRANCH  24  26
ENDBRANCH  23  24
ENDBRANCH   1  23
TORSDOF 5
ENDMDL
MODEL 3
REMARK VINA RESULT:      -8.3      3.209      4.475
REMARK  5 active torsions:
REMARK  status: ('A' for Active; 'I' for Inactive)
REMARK    1  A    between atoms: N1_3  and  N2_4 
REMARK    2  A    between atoms: N2_4  and  C3_5 
REMARK    3  A    between atoms: C3_5  and  C4_6 
REMARK    4  A    between atoms: C7_10  and  C8_11 
REMARK    5  A    between atoms: C11_14  and  N4_15 
ROOT
HETATM    1  C4  UNL     1      25.424   1.725  51.807  1.00  0.00     0.054 A 
HETATM    2  C5  UNL     1      26.779   1.925  51.902  1.00  0.00     0.146 A 
HETATM    3  N3  UNL     1      27.096   2.910  51.042  1.00  0.00    -0.238 NA
HETATM    4  C6  UNL     1      25.997   3.347  50.403  1.00  0.00     0.165 A 
HETATM    5  C7  UNL     1      25.732   4.307  49.447  1.00  0.00     0.131 A 
HETATM    6  N6  UNL     1      24.485   4.514  48.991  1.00  0.00    -0.253 NA
HETATM    7  C18 UNL     1      23.444   3.795  49.450  1.00  0.00     0.135 A 
HETATM    8  C19 UNL     1      23.729   2.841  50.406  1.00  0.00     0.118 A 
HETATM    9  N7  UNL     1      24.963   2.606  50.883  1.00  0.00    -0.304 N 
ENDROOT
BRANCH   5  10
HETATM   10  C8  UNL     1      26.833   5.119  48.912  1.00  0.00     0.088 A 
HETATM   11  C9  UNL     1      26.790   6.394  48.583  1.00  0.00     0.015 A 
HETATM   12  C10 UNL     1      28.114   6.852  48.080  1.00  0.00     0.108 A 
HETATM   13  C11 UNL     1      28.905   5.602  48.189  1.00  0.00     0.106 A 
HETATM   14  N5  UNL     1      28.152   4.676  48.653  1.00  0.00    -0.233 NA
BRANCH  13  15
HETATM   15  N4  UNL     1      30.276   5.564  47.805  1.00  0.00    -0.364 N 
HETATM   16  C12 UNL     1      30.917   4.362  47.280  1.00  0.00     0.155 C 
HETATM   17  C13 UNL     1      32.360   4.788  46.984  1.00  0.00     0.136 C 
HETATM   18  C14 UNL     1      33.093   3.489  46.629  1.00  0.00     0.041 C 
HETATM   19  O1  UNL     1      32.905   5.197  48.200  1.00  0.00    -0.378 OA
HETATM   20  C15 UNL     1      32.355   6.361  48.672  1.00  0.00     0.136 C 
HETATM   21  C16 UNL     1      31.988   6.138  50.121  1.00  0.00     0.041 C 
HETATM   22  C17 UNL     1      31.106   6.761  47.930  1.00  0.00     0.155 C 
ENDBRANCH  13  15
ENDBRANCH   5  10
BRANCH   1  23
HETATM   23  C3  UNL     1      24.539   0.775  52.519  1.00  0.00     0.200 C 
BRANCH  23  24
HETATM   24  N2  UNL     1      25.139   0.107  53.625  1.00  0.00    -0.309 N 
HETATM   25  H5  UNL     1      26.133   0.298  53.923  1.00  0.00     0.182 HD
BRANCH  24  26
HETATM   26  N1  UNL     1      25.524  -0.655  54.730  1.00  0.00    -0.196 NA
HETATM   27  C2  UNL     1      24.550  -1.205  55.415  1.00  0.00     0.107 C 
HETATM   28  C1  UNL     1      23.060  -1.318  55.436  1.00  0.00     0.059 C 
ENDBRANCH  24  26
ENDBRANCH  23  24
ENDBRANCH   1  23
TORSDOF 5
ENDMDL
MODEL 4
REMARK VINA RESULT:      -8.2      3.102      8.329
REMARK  5 active torsions:
REMARK  status: ('A' for Active; 'I' for Inactive)
REMARK    1  A    between atoms: N1_3  and  N2_4 
REMARK    2  A    between atoms: N2_4  and  C3_5 
REMARK    3  A    between atoms: C3_5  and  C4_6 
REMARK    4  A    between atoms: C7_10  and  C8_11 
REMARK    5  A    between atoms: C11_14  and  N4_15 
ROOT
HETATM    1  C4  UNL     1      28.104   6.454  48.286  1.00  0.00     0.054 A 
HETATM    2  C5  UNL     1      28.457   5.127  48.290  1.00  0.00     0.146 A 
HETATM    3  N3  UNL     1      27.491   4.461  48.947  1.00  0.00    -0.238 NA
HETATM    4  C6  UNL     1      26.535   5.309  49.363  1.00  0.00     0.165 A 
HETATM    5  C7  UNL     1      25.349   5.190  50.060  1.00  0.00     0.131 A 
HETATM    6  N6  UNL     1      24.587   6.263  50.330  1.00  0.00    -0.253 NA
HETATM    7  C18 UNL     1      24.947   7.496  49.932  1.00  0.00     0.135 A 
HETATM    8  C19 UNL     1      26.135   7.595  49.236  1.00  0.00     0.118 A 
HETATM    9  N7  UNL     1      26.922   6.545  48.948  1.00  0.00    -0.304 N 
ENDROOT
BRANCH   5  10
HETATM   10  C8  UNL     1      24.909   3.865  50.518  1.00  0.00     0.088 A 
HETATM   11  C9  UNL     1      23.783   3.254  50.213  1.00  0.00     0.015 A 
HETATM   12  C10 UNL     1      23.708   1.925  50.878  1.00  0.00     0.108 A 
HETATM   13  C11 UNL     1      24.998   1.904  51.610  1.00  0.00     0.106 A 
HETATM   14  N5  UNL     1      25.622   2.997  51.379  1.00  0.00    -0.233 NA
BRANCH  13  15
HETATM   15  N4  UNL     1      25.369   0.787  52.412  1.00  0.00    -0.364 N 
HETATM   16  C12 UNL     1      24.621   0.382  53.598  1.00  0.00     0.155 C 
HETATM   17  C13 UNL     1      25.355  -0.860  54.118  1.00  0.00     0.136 C 
HETATM   18  C14 UNL     1      24.704  -1.170  55.471  1.00  0.00     0.041 C 
HETATM   19  O1  UNL     1      26.653  -0.450  54.419  1.00  0.00    -0.378 OA
HETATM   20  C15 UNL     1      27.388  -0.128  53.306  1.00  0.00     0.136 C 
HETATM   21  C16 UNL     1      28.039   1.212  53.561  1.00  0.00     0.041 C 
HETATM   22  C17 UNL     1      26.545  -0.010  52.063  1.00  0.00     0.155 C 
ENDBRANCH  13  15
ENDBRANCH   5  10
BRANCH   1  23
HETATM   23  C3  UNL     1      28.791   7.631  47.707  1.00  0.00     0.200 C 
BRANCH  23  24
HETATM   24  N2  UNL     1      29.822   8.186  48.518  1.00  0.00    -0.309 N 
HETATM   25  H5  UNL     1      29.902   9.224  48.688  1.00  0.00     0.182 HD
BRANCH  24  26
HETATM   26  N1  UNL     1      30.902   8.513  49.340  1.00  0.00    -0.196 NA
HETATM   27  C2  UNL     1      31.711   7.526  49.644  1.00  0.00     0.107 C 
HETATM   28  C1  UNL     1      31.904   6.063  49.406  1.00  0.00     0.059 C 
ENDBRANCH  24  26
ENDBRANCH  23  24
ENDBRANCH   1  23
TORSDOF 5
ENDMDL
MODEL 5
REMARK VINA RESULT:      -8.2      1.543      2.496
REMARK  5 active torsions:
REMARK  status: ('A' for Active; 'I' for Inactive)
REMARK    1  A    between atoms: N1_3  and  N2_4 
REMARK    2  A    between atoms: N2_4  and  C3_5 
REMARK    3  A    between atoms: C3_5  and  C4_6 
REMARK    4  A    between atoms: C7_10  and  C8_11 
REMARK    5  A    between atoms: C11_14  and  N4_15 
ROOT
HETATM    1  C4  UNL     1      25.780   0.220  52.681  1.00  0.00     0.054 A 
HETATM    2  C5  UNL     1      26.679   0.885  51.883  1.00  0.00     0.146 A 
HETATM    3  N3  UNL     1      25.993   1.833  51.219  1.00  0.00    -0.238 NA
HETATM    4  C6  UNL     1      24.693   1.799  51.561  1.00  0.00     0.165 A 
HETATM    5  C7  UNL     1      23.565   2.512  51.208  1.00  0.00     0.131 A 
HETATM    6  N6  UNL     1      22.365   2.230  51.743  1.00  0.00    -0.253 NA
HETATM    7  C18 UNL     1      22.214   1.242  52.644  1.00  0.00     0.135 A 
HETATM    8  C19 UNL     1      23.354   0.541  52.983  1.00  0.00     0.118 A 
HETATM    9  N7  UNL     1      24.569   0.794  52.469  1.00  0.00    -0.304 N 
ENDROOT
BRANCH   5  10
HETATM   10  C8  UNL     1      23.674   3.602  50.229  1.00  0.00     0.088 A 
HETATM   11  C9  UNL     1      23.011   3.720  49.097  1.00  0.00     0.015 A 
HETATM   12  C10 UNL     1      23.403   4.966  48.385  1.00  0.00     0.108 A 
HETATM   13  C11 UNL     1      24.406   5.523  49.325  1.00  0.00     0.106 A 
HETATM   14  N5  UNL     1      24.519   4.733  50.325  1.00  0.00    -0.233 NA
BRANCH  13  15
HETATM   15  N4  UNL     1      25.072   6.752  49.046  1.00  0.00    -0.364 N 
HETATM   16  C12 UNL     1      26.059   7.339  49.947  1.00  0.00     0.155 C 
HETATM   17  C13 UNL     1      26.519   8.619  49.240  1.00  0.00     0.136 C 
HETATM   18  C14 UNL     1      27.398   9.345  50.265  1.00  0.00     0.041 C 
HETATM   19  O1  UNL     1      25.385   9.417  49.097  1.00  0.00    -0.378 OA
HETATM   20  C15 UNL     1      24.478   8.908  48.204  1.00  0.00     0.136 C 
HETATM   21  C16 UNL     1      23.119   8.938  48.864  1.00  0.00     0.041 C 
HETATM   22  C17 UNL     1      24.776   7.483  47.814  1.00  0.00     0.155 C 
ENDBRANCH  13  15
ENDBRANCH   5  10
BRANCH   1  23
HETATM   23  C3  UNL     1      25.979  -0.907  53.621  1.00  0.00     0.200 C 
BRANCH  23  24
HETATM   24  N2  UNL     1      27.067  -1.771  53.305  1.00  0.00    -0.309 N 
HETATM   25  H5  UNL     1      27.024  -2.454  52.501  1.00  0.00     0.182 HD
BRANCH  24  26
HETATM   26  N1  UNL     1      28.239  -2.518  53.173  1.00  0.00    -0.196 NA
HETATM   27  C2  UNL     1      29.361  -1.852  53.308  1.00  0.00     0.107 C 
HETATM   28  C1  UNL     1      29.873  -0.473  53.573  1.00  0.00     0.059 C 
ENDBRANCH  24  26
ENDBRANCH  23  24
ENDBRANCH   1  23
TORSDOF 5
ENDMDL
MODEL 6
REMARK VINA RESULT:      -8.0      1.933      2.662
REMARK  5 active torsions:
REMARK  status: ('A' for Active; 'I' for Inactive)
REMARK    1  A    between atoms: N1_3  and  N2_4 
REMARK    2  A    between atoms: N2_4  and  C3_5 
REMARK    3  A    between atoms: C3_5  and  C4_6 
REMARK    4  A    between atoms: C7_10  and  C8_11 
REMARK    5  A    between atoms: C11_14  and  N4_15 
ROOT
HETATM    1  C4  UNL     1      25.317   0.567  53.455  1.00  0.00     0.054 A 
HETATM    2  C5  UNL     1      26.193   1.588  53.181  1.00  0.00     0.146 A 
HETATM    3  N3  UNL     1      25.478   2.587  52.634  1.00  0.00    -0.238 NA
HETATM    4  C6  UNL     1      24.181   2.245  52.548  1.00  0.00     0.165 A 
HETATM    5  C7  UNL     1      23.031   2.854  52.087  1.00  0.00     0.131 A 
HETATM    6  N6  UNL     1      21.841   2.231  52.138  1.00  0.00    -0.253 NA
HETATM    7  C18 UNL     1      21.722   0.989  52.640  1.00  0.00     0.135 A 
HETATM    8  C19 UNL     1      22.883   0.396  53.095  1.00  0.00     0.118 A 
HETATM    9  N7  UNL     1      24.089   0.988  53.060  1.00  0.00    -0.304 N 
ENDROOT
BRANCH   5  10
HETATM   10  C8  UNL     1      23.105   4.211  51.529  1.00  0.00     0.088 A 
HETATM   11  C9  UNL     1      22.278   5.210  51.761  1.00  0.00     0.015 A 
HETATM   12  C10 UNL     1      22.694   6.424  51.007  1.00  0.00     0.108 A 
HETATM   13  C11 UNL     1      23.905   5.922  50.312  1.00  0.00     0.106 A 
HETATM   14  N5  UNL     1      24.088   4.697  50.634  1.00  0.00    -0.233 NA
BRANCH  13  15
HETATM   15  N4  UNL     1      24.660   6.767  49.448  1.00  0.00    -0.364 N 
HETATM   16  C12 UNL     1      24.172   7.200  48.143  1.00  0.00     0.155 C 
HETATM   17  C13 UNL     1      25.284   8.099  47.590  1.00  0.00     0.136 C 
HETATM   18  C14 UNL     1      24.875   8.392  46.141  1.00  0.00     0.041 C 
HETATM   19  O1  UNL     1      26.422   7.301  47.497  1.00  0.00    -0.378 OA
HETATM   20  C15 UNL     1      26.929   6.939  48.719  1.00  0.00     0.136 C 
HETATM   21  C16 UNL     1      27.173   5.448  48.690  1.00  0.00     0.041 C 
HETATM   22  C17 UNL     1      25.983   7.237  49.854  1.00  0.00     0.155 C 
ENDBRANCH  13  15
ENDBRANCH   5  10
BRANCH   1  23
HETATM   23  C3  UNL     1      25.551  -0.765  54.059  1.00  0.00     0.200 C 
BRANCH  23  24
HETATM   24  N2  UNL     1      26.657  -1.484  53.523  1.00  0.00    -0.309 N 
HETATM   25  H5  UNL     1      26.529  -2.314  52.883  1.00  0.00     0.182 HD
BRANCH  24  26
HETATM   26  N1  UNL     1      27.872  -2.039  53.114  1.00  0.00    -0.196 NA
HETATM   27  C2  UNL     1      28.942  -1.320  53.357  1.00  0.00     0.107 C 
HETATM   28  C1  UNL     1      29.357  -0.018  53.962  1.00  0.00     0.059 C 
ENDBRANCH  24  26
ENDBRANCH  23  24
ENDBRANCH   1  23
TORSDOF 5
ENDMDL
MODEL 7
REMARK VINA RESULT:      -8.0      4.268      5.799
REMARK  5 active torsions:
REMARK  status: ('A' for Active; 'I' for Inactive)
REMARK    1  A    between atoms: N1_3  and  N2_4 
REMARK    2  A    between atoms: N2_4  and  C3_5 
REMARK    3  A    between atoms: C3_5  and  C4_6 
REMARK    4  A    between atoms: C7_10  and  C8_11 
REMARK    5  A    between atoms: C11_14  and  N4_15 
ROOT
HETATM    1  C4  UNL     1      24.663  -0.159  53.840  1.00  0.00     0.054 A 
HETATM    2  C5  UNL     1      24.983   0.619  52.755  1.00  0.00     0.146 A 
HETATM    3  N3  UNL     1      23.837   0.871  52.097  1.00  0.00    -0.238 NA
HETATM    4  C6  UNL     1      22.799   0.286  52.718  1.00  0.00     0.165 A 
HETATM    5  C7  UNL     1      21.439   0.209  52.499  1.00  0.00     0.131 A 
HETATM    6  N6  UNL     1      20.635  -0.478  53.329  1.00  0.00    -0.253 NA
HETATM    7  C18 UNL     1      21.124  -1.118  54.407  1.00  0.00     0.135 A 
HETATM    8  C19 UNL     1      22.487  -1.029  54.608  1.00  0.00     0.118 A 
HETATM    9  N7  UNL     1      23.320  -0.353  53.800  1.00  0.00    -0.304 N 
ENDROOT
BRANCH   5  10
HETATM   10  C8  UNL     1      20.853   0.890  51.337  1.00  0.00     0.088 A 
HETATM   11  C9  UNL     1      19.667   0.673  50.805  1.00  0.00     0.015 A 
HETATM   12  C10 UNL     1      19.443   1.568  49.637  1.00  0.00     0.108 A 
HETATM   13  C11 UNL     1      20.718   2.325  49.614  1.00  0.00     0.106 A 
HETATM   14  N5  UNL     1      21.461   1.914  50.571  1.00  0.00    -0.233 NA
BRANCH  13  15
HETATM   15  N4  UNL     1      20.959   3.327  48.630  1.00  0.00    -0.364 N 
HETATM   16  C12 UNL     1      20.935   3.050  47.198  1.00  0.00     0.155 C 
HETATM   17  C13 UNL     1      21.218   4.403  46.534  1.00  0.00     0.136 C 
HETATM   18  C14 UNL     1      21.398   4.086  45.045  1.00  0.00     0.041 C 
HETATM   19  O1  UNL     1      22.477   4.802  46.980  1.00  0.00    -0.378 OA
HETATM   20  C15 UNL     1      22.498   5.128  48.312  1.00  0.00     0.136 C 
HETATM   21  C16 UNL     1      23.672   4.412  48.939  1.00  0.00     0.041 C 
HETATM   22  C17 UNL     1      21.248   4.702  49.038  1.00  0.00     0.155 C 
ENDBRANCH  13  15
ENDBRANCH   5  10
BRANCH   1  23
HETATM   23  C3  UNL     1      25.522  -0.727  54.904  1.00  0.00     0.200 C 
BRANCH  23  24
HETATM   24  N2  UNL     1      26.850  -0.214  54.944  1.00  0.00    -0.309 N 
HETATM   25  H5  UNL     1      27.688  -0.808  54.698  1.00  0.00     0.182 HD
BRANCH  24  26
HETATM   26  N1  UNL     1      28.054   0.486  55.048  1.00  0.00    -0.196 NA
HETATM   27  C2  UNL     1      29.065  -0.008  54.373  1.00  0.00     0.107 C 
HETATM   28  C1  UNL     1      29.415  -1.139  53.461  1.00  0.00     0.059 C 
ENDBRANCH  24  26
ENDBRANCH  23  24
ENDBRANCH   1  23
TORSDOF 5
ENDMDL
MODEL 8
REMARK VINA RESULT:      -7.9      4.038      6.028
REMARK  5 active torsions:
REMARK  status: ('A' for Active; 'I' for Inactive)
REMARK    1  A    between atoms: N1_3  and  N2_4 
REMARK    2  A    between atoms: N2_4  and  C3_5 
REMARK    3  A    between atoms: C3_5  and  C4_6 
REMARK    4  A    between atoms: C7_10  and  C8_11 
REMARK    5  A    between atoms: C11_14  and  N4_15 
ROOT
HETATM    1  C4  UNL     1      25.237   3.772  49.886  1.00  0.00     0.054 A 
HETATM    2  C5  UNL     1      26.390   3.057  49.678  1.00  0.00     0.146 A 
HETATM    3  N3  UNL     1      27.293   3.905  49.153  1.00  0.00    -0.238 NA
HETATM    4  C6  UNL     1      26.762   5.132  49.018  1.00  0.00     0.165 A 
HETATM    5  C7  UNL     1      27.210   6.352  48.552  1.00  0.00     0.131 A 
HETATM    6  N6  UNL     1      26.412   7.434  48.545  1.00  0.00    -0.253 NA
HETATM    7  C18 UNL     1      25.145   7.371  48.992  1.00  0.00     0.135 A 
HETATM    8  C19 UNL     1      24.715   6.143  49.454  1.00  0.00     0.118 A 
HETATM    9  N7  UNL     1      25.484   5.042  49.476  1.00  0.00    -0.304 N 
ENDROOT
BRANCH   5  10
HETATM   10  C8  UNL     1      28.586   6.475  48.053  1.00  0.00     0.088 A 
HETATM   11  C9  UNL     1      29.018   7.288  47.110  1.00  0.00     0.015 A 
HETATM   12  C10 UNL     1      30.480   7.111  46.892  1.00  0.00     0.108 A 
HETATM   13  C11 UNL     1      30.786   6.051  47.884  1.00  0.00     0.106 A 
HETATM   14  N5  UNL     1      29.708   5.736  48.498  1.00  0.00    -0.233 NA
BRANCH  13  15
HETATM   15  N4  UNL     1      32.110   5.547  48.035  1.00  0.00    -0.364 N 
HETATM   16  C12 UNL     1      33.222   6.372  48.495  1.00  0.00     0.155 C 
HETATM   17  C13 UNL     1      34.425   5.422  48.528  1.00  0.00     0.136 C 
HETATM   18  C14 UNL     1      35.635   6.322  48.810  1.00  0.00     0.041 C 
HETATM   19  O1  UNL     1      34.601   4.968  47.222  1.00  0.00    -0.378 OA
HETATM   20  C15 UNL     1      33.594   4.139  46.800  1.00  0.00     0.136 C 
HETATM   21  C16 UNL     1      33.139   4.625  45.443  1.00  0.00     0.041 C 
HETATM   22  C17 UNL     1      32.403   4.149  47.723  1.00  0.00     0.155 C 
ENDBRANCH  13  15
ENDBRANCH   5  10
BRANCH   1  23
HETATM   23  C3  UNL     1      23.930   3.350  50.441  1.00  0.00     0.200 C 
BRANCH  23  24
HETATM   24  N2  UNL     1      23.976   2.205  51.287  1.00  0.00    -0.309 N 
HETATM   25  H5  UNL     1      24.664   1.419  51.129  1.00  0.00     0.182 HD
BRANCH  24  26
HETATM   26  N1  UNL     1      23.851   1.184  52.231  1.00  0.00    -0.196 NA
HETATM   27  C2  UNL     1      24.955   0.544  52.533  1.00  0.00     0.107 C 
HETATM   28  C1  UNL     1      26.412   0.515  52.203  1.00  0.00     0.059 C 
ENDBRANCH  24  26
ENDBRANCH  23  24
ENDBRANCH   1  23
TORSDOF 5
ENDMDL
MODEL 9
REMARK VINA RESULT:      -7.8      2.508      3.464
REMARK  5 active torsions:
REMARK  status: ('A' for Active; 'I' for Inactive)
REMARK    1  A    between atoms: N1_3  and  N2_4 
REMARK    2  A    between atoms: N2_4  and  C3_5 
REMARK    3  A    between atoms: C3_5  and  C4_6 
REMARK    4  A    between atoms: C7_10  and  C8_11 
REMARK    5  A    between atoms: C11_14  and  N4_15 
ROOT
HETATM    1  C4  UNL     1      25.344   0.496  53.343  1.00  0.00     0.054 A 
HETATM    2  C5  UNL     1      26.051   1.399  52.589  1.00  0.00     0.146 A 
HETATM    3  N3  UNL     1      25.217   1.861  51.639  1.00  0.00    -0.238 NA
HETATM    4  C6  UNL     1      24.007   1.288  51.757  1.00  0.00     0.165 A 
HETATM    5  C7  UNL     1      22.806   1.378  51.082  1.00  0.00     0.131 A 
HETATM    6  N6  UNL     1      21.739   0.650  51.454  1.00  0.00    -0.253 NA
HETATM    7  C18 UNL     1      21.798  -0.194  52.499  1.00  0.00     0.135 A 
HETATM    8  C19 UNL     1      23.007  -0.270  53.161  1.00  0.00     0.118 A 
HETATM    9  N7  UNL     1      24.094   0.441  52.818  1.00  0.00    -0.304 N 
ENDROOT
BRANCH   5  10
HETATM   10  C8  UNL     1      22.689   2.286  49.933  1.00  0.00     0.088 A 
HETATM   11  C9  UNL     1      22.236   1.989  48.731  1.00  0.00     0.015 A 
HETATM   12  C10 UNL     1      22.276   3.184  47.845  1.00  0.00     0.108 A 
HETATM   13  C11 UNL     1      22.832   4.202  48.770  1.00  0.00     0.106 A 
HETATM   14  N5  UNL     1      23.042   3.656  49.908  1.00  0.00    -0.233 NA
BRANCH  13  15
HETATM   15  N4  UNL     1      23.052   5.543  48.340  1.00  0.00    -0.364 N 
HETATM   16  C12 UNL     1      22.817   5.981  46.968  1.00  0.00     0.155 C 
HETATM   17  C13 UNL     1      23.156   7.476  46.972  1.00  0.00     0.136 C 
HETATM   18  C14 UNL     1      23.111   7.899  45.499  1.00  0.00     0.041 C 
HETATM   19  O1  UNL     1      24.497   7.572  47.341  1.00  0.00    -0.378 OA
HETATM   20  C15 UNL     1      24.722   7.224  48.649  1.00  0.00     0.136 C 
HETATM   21  C16 UNL     1      25.882   6.256  48.671  1.00  0.00     0.041 C 
HETATM   22  C17 UNL     1      23.536   6.547  49.286  1.00  0.00     0.155 C 
ENDBRANCH  13  15
ENDBRANCH   5  10
BRANCH   1  23
HETATM   23  C3  UNL     1      25.757  -0.312  54.514  1.00  0.00     0.200 C 
BRANCH  23  24
HETATM   24  N2  UNL     1      27.110  -0.134  54.921  1.00  0.00    -0.309 N 
HETATM   25  H5  UNL     1      27.379  -0.029  55.937  1.00  0.00     0.182 HD
BRANCH  24  26
HETATM   26  N1  UNL     1      28.485   0.029  55.098  1.00  0.00    -0.196 NA
HETATM   27  C2  UNL     1      29.253  -0.649  54.278  1.00  0.00     0.107 C 
HETATM   28  C1  UNL     1      29.174  -1.608  53.134  1.00  0.00     0.059 C 
ENDBRANCH  24  26
ENDBRANCH  23  24
ENDBRANCH   1  23
TORSDOF 5
ENDMDL
