MODEL 1
REMARK VINA RESULT:      -8.8      0.000      0.000
REMARK  8 active torsions:
REMARK  status: ('A' for Active; 'I' for Inactive)
REMARK    1  A    between atoms: N1_2  and  C2_3 
REMARK    2  A    between atoms: C2_3  and  C3_4 
REMARK    3  A    between atoms: C3_4  and  C4_5 
REMARK    4  A    between atoms: C4_5  and  O1_6 
REMARK    5  A    between atoms: O1_6  and  C5_7 
REMARK       I    between atoms: C5_7  and  N2_9 
REMARK    6  A    between atoms: N2_9  and  C7_11 
REMARK    7  A    between atoms: C13_19  and  N4_20 
REMARK    8  A    between atoms: N4_20  and  C14_21 
ROOT
HETATM    1  C7  UNL     1      20.404   1.540  51.163  1.00  0.00     0.063 A 
HETATM    2  C8  UNL     1      20.762   0.736  52.246  1.00  0.00     0.064 A 
HETATM    3  C9  UNL     1      22.055   0.516  52.630  1.00  0.00     0.071 A 
HETATM    4  C10 UNL     1      23.064   1.114  51.919  1.00  0.00     0.088 A 
HETATM    5  C11 UNL     1      22.736   1.923  50.831  1.00  0.00     0.060 A 
HETATM    6  C12 UNL     1      21.429   2.129  50.462  1.00  0.00     0.063 A 
HETATM    7 CL1  UNL     1      20.933   3.129  49.109  1.00  0.00    -0.082 Cl
HETATM    8  N3  UNL     1      24.350   0.939  52.243  1.00  0.00    -0.227 NA
HETATM    9  C13 UNL     1      24.731   0.178  53.272  1.00  0.00     0.154 A 
HETATM   10  C20 UNL     1      23.706  -0.407  53.968  1.00  0.00     0.104 A 
HETATM   11  C21 UNL     1      23.733  -1.244  55.070  1.00  0.00     0.151 A 
HETATM   12  N5  UNL     1      22.462  -1.556  55.388  1.00  0.00    -0.253 NA
HETATM   13  C22 UNL     1      21.657  -0.932  54.508  1.00  0.00     0.215 A 
HETATM   14  N6  UNL     1      22.422  -0.242  53.656  1.00  0.00    -0.299 N 
ENDROOT
BRANCH   1  15
HETATM   15  N2  UNL     1      19.020   1.635  50.942  1.00  0.00    -0.296 N 
HETATM   16  C5  UNL     1      18.197   2.701  51.378  1.00  0.00     0.371 C 
HETATM   17  O2  UNL     1      17.989   3.798  51.952  1.00  0.00    -0.238 OA
HETATM   18  C6  UNL     1      18.375   0.577  50.218  1.00  0.00     0.162 C 
BRANCH  16  19
HETATM   19  O1  UNL     1      16.833   2.754  51.139  1.00  0.00    -0.274 OA
BRANCH  19  20
HETATM   20  C4  UNL     1      15.919   2.849  52.164  1.00  0.00     0.145 C 
BRANCH  20  21
HETATM   21  C3  UNL     1      14.811   3.107  52.822  1.00  0.00     0.027 C 
BRANCH  21  22
HETATM   22  C2  UNL     1      14.407   4.334  53.555  1.00  0.00     0.298 C 
BRANCH  22  23
HETATM   23  N1  UNL     1      12.982   4.585  53.417  1.00  0.00     0.082 N 
HETATM   24  C1  UNL     1      12.221   4.120  54.546  1.00  0.00     0.307 C 
HETATM   25  H4  UNL     1      12.831   5.608  53.264  1.00  0.00     0.315 HD
ENDBRANCH  22  23
ENDBRANCH  21  22
ENDBRANCH  20  21
ENDBRANCH  19  20
ENDBRANCH  16  19
ENDBRANCH   1  15
BRANCH   9  26
HETATM   26  N4  UNL     1      26.092  -0.017  53.630  1.00  0.00    -0.358 N 
HETATM   27  H14 UNL     1      26.239  -0.191  54.665  1.00  0.00     0.162 HD
BRANCH  26  28
HETATM   28  C14 UNL     1      27.258  -0.011  52.796  1.00  0.00     0.174 A 
HETATM   29  C15 UNL     1      28.265   0.923  53.350  1.00  0.00    -0.055 A 
HETATM   30  C16 UNL     1      28.546   2.363  53.640  1.00  0.00     0.046 C 
HETATM   31  C17 UNL     1      29.340   0.212  53.736  1.00  0.00     0.008 A 
HETATM   32  C18 UNL     1      29.131  -1.204  53.470  1.00  0.00     0.040 A 
HETATM   33  C19 UNL     1      27.935  -1.326  52.930  1.00  0.00     0.120 A 
HETATM   34  F1  UNL     1      27.127  -2.329  52.454  1.00  0.00    -0.208 F 
ENDBRANCH  26  28
ENDBRANCH   9  26
TORSDOF 8
ENDMDL
MODEL 2
REMARK VINA RESULT:      -8.6      2.027      3.275
REMARK  8 active torsions:
REMARK  status: ('A' for Active; 'I' for Inactive)
REMARK    1  A    between atoms: N1_2  and  C2_3 
REMARK    2  A    between atoms: C2_3  and  C3_4 
REMARK    3  A    between atoms: C3_4  and  C4_5 
REMARK    4  A    between atoms: C4_5  and  O1_6 
REMARK    5  A    between atoms: O1_6  and  C5_7 
REMARK       I    between atoms: C5_7  and  N2_9 
REMARK    6  A    between atoms: N2_9  and  C7_11 
REMARK    7  A    between atoms: C13_19  and  N4_20 
REMARK    8  A    between atoms: N4_20  and  C14_21 
ROOT
HETATM    1  C7  UNL     1      20.991   1.243  51.869  1.00  0.00     0.063 A 
HETATM    2  C8  UNL     1      22.051   1.891  51.234  1.00  0.00     0.064 A 
HETATM    3  C9  UNL     1      23.360   1.730  51.592  1.00  0.00     0.071 A 
HETATM    4  C10 UNL     1      23.659   0.887  52.632  1.00  0.00     0.088 A 
HETATM    5  C11 UNL     1      22.619   0.226  53.286  1.00  0.00     0.060 A 
HETATM    6  C12 UNL     1      21.310   0.403  52.909  1.00  0.00     0.063 A 
HETATM    7 CL1  UNL     1      19.948  -0.390  53.677  1.00  0.00    -0.082 Cl
HETATM    8  N3  UNL     1      24.920   0.687  53.032  1.00  0.00    -0.227 NA
HETATM    9  C13 UNL     1      25.959   1.289  52.449  1.00  0.00     0.154 A 
HETATM   10  C20 UNL     1      25.635   2.125  51.413  1.00  0.00     0.104 A 
HETATM   11  C21 UNL     1      26.444   2.897  50.598  1.00  0.00     0.151 A 
HETATM   12  N5  UNL     1      25.654   3.548  49.723  1.00  0.00    -0.253 NA
HETATM   13  C22 UNL     1      24.382   3.194  49.981  1.00  0.00     0.215 A 
HETATM   14  N6  UNL     1      24.386   2.334  51.005  1.00  0.00    -0.299 N 
ENDROOT
BRANCH   1  15
HETATM   15  N2  UNL     1      19.724   1.545  51.342  1.00  0.00    -0.296 N 
HETATM   16  C5  UNL     1      19.021   2.756  51.556  1.00  0.00     0.371 C 
HETATM   17  O2  UNL     1      18.883   3.905  52.041  1.00  0.00    -0.238 OA
HETATM   18  C6  UNL     1      19.080   0.562  50.520  1.00  0.00     0.162 C 
BRANCH  16  19
HETATM   19  O1  UNL     1      17.769   3.012  51.017  1.00  0.00    -0.274 OA
BRANCH  19  20
HETATM   20  C4  UNL     1      16.677   3.274  51.811  1.00  0.00     0.145 C 
BRANCH  20  21
HETATM   21  C3  UNL     1      15.448   3.560  52.181  1.00  0.00     0.027 C 
BRANCH  21  22
HETATM   22  C2  UNL     1      14.439   2.708  52.859  1.00  0.00     0.298 C 
BRANCH  22  23
HETATM   23  N1  UNL     1      13.652   3.477  53.809  1.00  0.00     0.082 N 
HETATM   24  C1  UNL     1      12.785   4.432  53.173  1.00  0.00     0.307 C 
HETATM   25  H4  UNL     1      13.104   2.817  54.406  1.00  0.00     0.315 HD
ENDBRANCH  22  23
ENDBRANCH  21  22
ENDBRANCH  20  21
ENDBRANCH  19  20
ENDBRANCH  16  19
ENDBRANCH   1  15
BRANCH   9  26
HETATM   26  N4  UNL     1      27.303   1.085  52.861  1.00  0.00    -0.358 N 
HETATM   27  H14 UNL     1      27.996   1.733  52.387  1.00  0.00     0.162 HD
BRANCH  26  28
HETATM   28  C14 UNL     1      27.829   0.147  53.809  1.00  0.00     0.174 A 
HETATM   29  C15 UNL     1      27.958  -1.185  53.175  1.00  0.00    -0.055 A 
HETATM   30  C16 UNL     1      27.186  -2.320  52.580  1.00  0.00     0.046 C 
HETATM   31  C17 UNL     1      29.264  -1.504  53.115  1.00  0.00     0.008 A 
HETATM   32  C18 UNL     1      30.072  -0.438  53.690  1.00  0.00     0.040 A 
HETATM   33  C19 UNL     1      29.243   0.507  54.087  1.00  0.00     0.120 A 
HETATM   34  F1  UNL     1      29.312   1.739  54.688  1.00  0.00    -0.208 F 
ENDBRANCH  26  28
ENDBRANCH   9  26
TORSDOF 8
ENDMDL
MODEL 3
REMARK VINA RESULT:      -8.5      1.872      2.316
REMARK  8 active torsions:
REMARK  status: ('A' for Active; 'I' for Inactive)
REMARK    1  A    between atoms: N1_2  and  C2_3 
REMARK    2  A    between atoms: C2_3  and  C3_4 
REMARK    3  A    between atoms: C3_4  and  C4_5 
REMARK    4  A    between atoms: C4_5  and  O1_6 
REMARK    5  A    between atoms: O1_6  and  C5_7 
REMARK       I    between atoms: C5_7  and  N2_9 
REMARK    6  A    between atoms: N2_9  and  C7_11 
REMARK    7  A    between atoms: C13_19  and  N4_20 
REMARK    8  A    between atoms: N4_20  and  C14_21 
ROOT
HETATM    1  C7  UNL     1      20.511   1.277  51.497  1.00  0.00     0.063 A 
HETATM    2  C8  UNL     1      20.929   0.496  52.576  1.00  0.00     0.064 A 
HETATM    3  C9  UNL     1      22.241   0.313  52.914  1.00  0.00     0.071 A 
HETATM    4  C10 UNL     1      23.207   0.926  52.158  1.00  0.00     0.088 A 
HETATM    5  C11 UNL     1      22.819   1.712  51.073  1.00  0.00     0.060 A 
HETATM    6  C12 UNL     1      21.494   1.881  50.751  1.00  0.00     0.063 A 
HETATM    7 CL1  UNL     1      20.923   2.851  49.406  1.00  0.00    -0.082 Cl
HETATM    8  N3  UNL     1      24.508   0.786  52.436  1.00  0.00    -0.227 NA
HETATM    9  C13 UNL     1      24.945   0.049  53.459  1.00  0.00     0.154 A 
HETATM   10  C20 UNL     1      23.962  -0.553  54.199  1.00  0.00     0.104 A 
HETATM   11  C21 UNL     1      24.051  -1.374  55.310  1.00  0.00     0.151 A 
HETATM   12  N5  UNL     1      22.801  -1.712  55.679  1.00  0.00    -0.253 NA
HETATM   13  C22 UNL     1      21.949  -1.120  54.823  1.00  0.00     0.215 A 
HETATM   14  N6  UNL     1      22.664  -0.423  53.934  1.00  0.00    -0.299 N 
ENDROOT
BRANCH   1  15
HETATM   15  N2  UNL     1      19.118   1.335  51.327  1.00  0.00    -0.296 N 
HETATM   16  C5  UNL     1      18.319   2.485  51.540  1.00  0.00     0.371 C 
HETATM   17  O2  UNL     1      18.141   3.688  51.849  1.00  0.00    -0.238 OA
HETATM   18  C6  UNL     1      18.436   0.145  50.905  1.00  0.00     0.162 C 
BRANCH  16  19
HETATM   19  O1  UNL     1      16.944   2.497  51.361  1.00  0.00    -0.274 OA
BRANCH  19  20
HETATM   20  C4  UNL     1      16.373   2.769  50.140  1.00  0.00     0.145 C 
BRANCH  20  21
HETATM   21  C3  UNL     1      16.121   3.344  48.985  1.00  0.00     0.027 C 
BRANCH  21  22
HETATM   22  C2  UNL     1      16.368   4.742  48.547  1.00  0.00     0.298 C 
BRANCH  22  23
HETATM   23  N1  UNL     1      17.469   5.338  49.284  1.00  0.00     0.082 N 
HETATM   24  C1  UNL     1      18.631   5.563  48.467  1.00  0.00     0.307 C 
HETATM   25  H4  UNL     1      17.142   6.230  49.719  1.00  0.00     0.315 HD
ENDBRANCH  22  23
ENDBRANCH  21  22
ENDBRANCH  20  21
ENDBRANCH  19  20
ENDBRANCH  16  19
ENDBRANCH   1  15
BRANCH   9  26
HETATM   26  N4  UNL     1      26.323  -0.109  53.768  1.00  0.00    -0.358 N 
HETATM   27  H14 UNL     1      26.513  -0.266  54.799  1.00  0.00     0.162 HD
BRANCH  26  28
HETATM   28  C14 UNL     1      27.457  -0.085  52.891  1.00  0.00     0.174 A 
HETATM   29  C15 UNL     1      28.443   0.908  53.374  1.00  0.00    -0.055 A 
HETATM   30  C16 UNL     1      28.674   2.368  53.603  1.00  0.00     0.046 C 
HETATM   31  C17 UNL     1      29.561   0.256  53.743  1.00  0.00     0.008 A 
HETATM   32  C18 UNL     1      29.402  -1.176  53.534  1.00  0.00     0.040 A 
HETATM   33  C19 UNL     1      28.193  -1.366  53.044  1.00  0.00     0.120 A 
HETATM   34  F1  UNL     1      27.411  -2.417  52.633  1.00  0.00    -0.208 F 
ENDBRANCH  26  28
ENDBRANCH   9  26
TORSDOF 8
ENDMDL
MODEL 4
REMARK VINA RESULT:      -8.3      6.646      9.796
REMARK  8 active torsions:
REMARK  status: ('A' for Active; 'I' for Inactive)
REMARK    1  A    between atoms: N1_2  and  C2_3 
REMARK    2  A    between atoms: C2_3  and  C3_4 
REMARK    3  A    between atoms: C3_4  and  C4_5 
REMARK    4  A    between atoms: C4_5  and  O1_6 
REMARK    5  A    between atoms: O1_6  and  C5_7 
REMARK       I    between atoms: C5_7  and  N2_9 
REMARK    6  A    between atoms: N2_9  and  C7_11 
REMARK    7  A    between atoms: C13_19  and  N4_20 
REMARK    8  A    between atoms: N4_20  and  C14_21 
ROOT
HETATM    1  C7  UNL     1      26.617   7.155  48.767  1.00  0.00     0.063 A 
HETATM    2  C8  UNL     1      25.522   6.829  49.568  1.00  0.00     0.064 A 
HETATM    3  C9  UNL     1      25.296   5.577  50.070  1.00  0.00     0.071 A 
HETATM    4  C10 UNL     1      26.190   4.580  49.775  1.00  0.00     0.088 A 
HETATM    5  C11 UNL     1      27.294   4.876  48.975  1.00  0.00     0.060 A 
HETATM    6  C12 UNL     1      27.500   6.142  48.482  1.00  0.00     0.063 A 
HETATM    7 CL1  UNL     1      28.860   6.596  47.472  1.00  0.00    -0.082 Cl
HETATM    8  N3  UNL     1      26.027   3.334  50.234  1.00  0.00    -0.227 NA
HETATM    9  C13 UNL     1      24.994   2.985  51.003  1.00  0.00     0.154 A 
HETATM   10  C20 UNL     1      24.115   3.998  51.284  1.00  0.00     0.104 A 
HETATM   11  C21 UNL     1      22.954   3.995  52.037  1.00  0.00     0.151 A 
HETATM   12  N5  UNL     1      22.440   5.240  52.016  1.00  0.00    -0.253 NA
HETATM   13  C22 UNL     1      23.257   6.005  51.270  1.00  0.00     0.215 A 
HETATM   14  N6  UNL     1      24.264   5.242  50.834  1.00  0.00    -0.299 N 
ENDROOT
BRANCH   1  15
HETATM   15  N2  UNL     1      26.660   8.499  48.360  1.00  0.00    -0.296 N 
HETATM   16  C5  UNL     1      26.971   9.594  49.202  1.00  0.00     0.371 C 
HETATM   17  O2  UNL     1      27.282  10.114  50.301  1.00  0.00    -0.238 OA
HETATM   18  C6  UNL     1      26.371   8.802  46.988  1.00  0.00     0.162 C 
BRANCH  16  19
HETATM   19  O1  UNL     1      27.001  10.908  48.759  1.00  0.00    -0.274 OA
BRANCH  19  20
HETATM   20  C4  UNL     1      28.171  11.628  48.702  1.00  0.00     0.145 C 
BRANCH  20  21
HETATM   21  C3  UNL     1      29.428  11.943  48.481  1.00  0.00     0.027 C 
BRANCH  21  22
HETATM   22  C2  UNL     1      30.660  11.458  49.154  1.00  0.00     0.298 C 
BRANCH  22  23
HETATM   23  N1  UNL     1      30.389  10.283  49.965  1.00  0.00     0.082 N 
HETATM   24  C1  UNL     1      30.784   9.058  49.324  1.00  0.00     0.307 C 
HETATM   25  H4  UNL     1      30.870  10.391  50.888  1.00  0.00     0.315 HD
ENDBRANCH  22  23
ENDBRANCH  21  22
ENDBRANCH  20  21
ENDBRANCH  19  20
ENDBRANCH  16  19
ENDBRANCH   1  15
BRANCH   9  26
HETATM   26  N4  UNL     1      24.807   1.667  51.500  1.00  0.00    -0.358 N 
HETATM   27  H14 UNL     1      24.400   0.997  50.786  1.00  0.00     0.162 HD
BRANCH  26  28
HETATM   28  C14 UNL     1      25.090   1.141  52.802  1.00  0.00     0.174 A 
HETATM   29  C15 UNL     1      23.998   0.236  53.227  1.00  0.00    -0.055 A 
HETATM   30  C16 UNL     1      22.549   0.182  53.593  1.00  0.00     0.046 C 
HETATM   31  C17 UNL     1      24.491  -1.011  53.327  1.00  0.00     0.008 A 
HETATM   32  C18 UNL     1      25.907  -1.023  52.990  1.00  0.00     0.040 A 
HETATM   33  C19 UNL     1      26.246   0.215  52.690  1.00  0.00     0.120 A 
HETATM   34  F1  UNL     1      27.370   0.899  52.299  1.00  0.00    -0.208 F 
ENDBRANCH  26  28
ENDBRANCH   9  26
TORSDOF 8
ENDMDL
MODEL 5
REMARK VINA RESULT:      -8.2      6.286      9.292
REMARK  8 active torsions:
REMARK  status: ('A' for Active; 'I' for Inactive)
REMARK    1  A    between atoms: N1_2  and  C2_3 
REMARK    2  A    between atoms: C2_3  and  C3_4 
REMARK    3  A    between atoms: C3_4  and  C4_5 
REMARK    4  A    between atoms: C4_5  and  O1_6 
REMARK    5  A    between atoms: O1_6  and  C5_7 
REMARK       I    between atoms: C5_7  and  N2_9 
REMARK    6  A    between atoms: N2_9  and  C7_11 
REMARK    7  A    between atoms: C13_19  and  N4_20 
REMARK    8  A    between atoms: N4_20  and  C14_21 
ROOT
HETATM    1  C7  UNL     1      26.321   6.648  49.098  1.00  0.00     0.063 A 
HETATM    2  C8  UNL     1      25.258   6.245  49.907  1.00  0.00     0.064 A 
HETATM    3  C9  UNL     1      25.130   4.983  50.416  1.00  0.00     0.071 A 
HETATM    4  C10 UNL     1      26.095   4.054  50.120  1.00  0.00     0.088 A 
HETATM    5  C11 UNL     1      27.169   4.428  49.313  1.00  0.00     0.060 A 
HETATM    6  C12 UNL     1      27.276   5.703  48.812  1.00  0.00     0.063 A 
HETATM    7 CL1  UNL     1      28.593   6.253  47.792  1.00  0.00    -0.082 Cl
HETATM    8  N3  UNL     1      26.029   2.802  50.586  1.00  0.00    -0.227 NA
HETATM    9  C13 UNL     1      25.029   2.380  51.363  1.00  0.00     0.154 A 
HETATM   10  C20 UNL     1      24.078   3.325  51.645  1.00  0.00     0.104 A 
HETATM   11  C21 UNL     1      22.925   3.239  52.405  1.00  0.00     0.151 A 
HETATM   12  N5  UNL     1      22.319   4.442  52.381  1.00  0.00    -0.253 NA
HETATM   13  C22 UNL     1      23.072   5.262  51.626  1.00  0.00     0.215 A 
HETATM   14  N6  UNL     1      24.131   4.575  51.188  1.00  0.00    -0.299 N 
ENDROOT
BRANCH   1  15
HETATM   15  N2  UNL     1      26.261   7.990  48.685  1.00  0.00    -0.296 N 
HETATM   16  C5  UNL     1      26.648   9.102  49.472  1.00  0.00     0.371 C 
HETATM   17  O2  UNL     1      27.092   9.641  50.515  1.00  0.00    -0.238 OA
HETATM   18  C6  UNL     1      25.773   8.272  47.366  1.00  0.00     0.162 C 
BRANCH  16  19
HETATM   19  O1  UNL     1      26.570  10.412  49.025  1.00  0.00    -0.274 OA
BRANCH  19  20
HETATM   20  C4  UNL     1      27.688  11.116  48.642  1.00  0.00     0.145 C 
BRANCH  20  21
HETATM   21  C3  UNL     1      28.888  11.653  48.664  1.00  0.00     0.027 C 
BRANCH  21  22
HETATM   22  C2  UNL     1      30.191  11.050  49.047  1.00  0.00     0.298 C 
BRANCH  22  23
HETATM   23  N1  UNL     1      30.002   9.845  49.836  1.00  0.00     0.082 N 
HETATM   24  C1  UNL     1      30.740   8.722  49.324  1.00  0.00     0.307 C 
HETATM   25  H4  UNL     1      30.268  10.044  50.827  1.00  0.00     0.315 HD
ENDBRANCH  22  23
ENDBRANCH  21  22
ENDBRANCH  20  21
ENDBRANCH  19  20
ENDBRANCH  16  19
ENDBRANCH   1  15
BRANCH   9  26
HETATM   26  N4  UNL     1      24.944   1.054  51.866  1.00  0.00    -0.358 N 
HETATM   27  H14 UNL     1      24.360   0.407  51.264  1.00  0.00     0.162 HD
BRANCH  26  28
HETATM   28  C14 UNL     1      25.532   0.495  53.048  1.00  0.00     0.174 A 
HETATM   29  C15 UNL     1      26.508  -0.554  52.675  1.00  0.00    -0.055 A 
HETATM   30  C16 UNL     1      26.650  -1.904  52.046  1.00  0.00     0.046 C 
HETATM   31  C17 UNL     1      27.736  -0.144  53.042  1.00  0.00     0.008 A 
HETATM   32  C18 UNL     1      27.664   1.166  53.671  1.00  0.00     0.040 A 
HETATM   33  C19 UNL     1      26.397   1.528  53.673  1.00  0.00     0.120 A 
HETATM   34  F1  UNL     1      25.641   2.596  54.089  1.00  0.00    -0.208 F 
ENDBRANCH  26  28
ENDBRANCH   9  26
TORSDOF 8
ENDMDL
MODEL 6
REMARK VINA RESULT:      -7.9      6.358     10.191
REMARK  8 active torsions:
REMARK  status: ('A' for Active; 'I' for Inactive)
REMARK    1  A    between atoms: N1_2  and  C2_3 
REMARK    2  A    between atoms: C2_3  and  C3_4 
REMARK    3  A    between atoms: C3_4  and  C4_5 
REMARK    4  A    between atoms: C4_5  and  O1_6 
REMARK    5  A    between atoms: O1_6  and  C5_7 
REMARK       I    between atoms: C5_7  and  N2_9 
REMARK    6  A    between atoms: N2_9  and  C7_11 
REMARK    7  A    between atoms: C13_19  and  N4_20 
REMARK    8  A    between atoms: N4_20  and  C14_21 
ROOT
HETATM    1  C7  UNL     1      26.657   6.510  48.841  1.00  0.00     0.063 A 
HETATM    2  C8  UNL     1      25.383   6.663  49.389  1.00  0.00     0.064 A 
HETATM    3  C9  UNL     1      24.684   5.645  49.976  1.00  0.00     0.071 A 
HETATM    4  C10 UNL     1      25.259   4.401  50.034  1.00  0.00     0.088 A 
HETATM    5  C11 UNL     1      26.532   4.218  49.493  1.00  0.00     0.060 A 
HETATM    6  C12 UNL     1      27.215   5.256  48.908  1.00  0.00     0.063 A 
HETATM    7 CL1  UNL     1      28.815   5.110  48.206  1.00  0.00    -0.082 Cl
HETATM    8  N3  UNL     1      24.628   3.363  50.595  1.00  0.00    -0.227 NA
HETATM    9  C13 UNL     1      23.410   3.470  51.130  1.00  0.00     0.154 A 
HETATM   10  C20 UNL     1      22.857   4.722  51.060  1.00  0.00     0.104 A 
HETATM   11  C21 UNL     1      21.632   5.187  51.506  1.00  0.00     0.151 A 
HETATM   12  N5  UNL     1      21.550   6.498  51.204  1.00  0.00    -0.253 NA
HETATM   13  C22 UNL     1      22.692   6.846  50.585  1.00  0.00     0.215 A 
HETATM   14  N6  UNL     1      23.473   5.764  50.506  1.00  0.00    -0.299 N 
ENDROOT
BRANCH   1  15
HETATM   15  N2  UNL     1      27.197   7.684  48.290  1.00  0.00    -0.296 N 
HETATM   16  C5  UNL     1      27.842   8.707  49.027  1.00  0.00     0.371 C 
HETATM   17  O2  UNL     1      28.271   9.232  50.083  1.00  0.00    -0.238 OA
HETATM   18  C6  UNL     1      27.096   7.876  46.872  1.00  0.00     0.162 C 
BRANCH  16  19
HETATM   19  O1  UNL     1      28.360   9.852  48.442  1.00  0.00    -0.274 OA
BRANCH  19  20
HETATM   20  C4  UNL     1      29.714  10.094  48.392  1.00  0.00     0.145 C 
BRANCH  20  21
HETATM   21  C3  UNL     1      31.005   9.908  48.231  1.00  0.00     0.027 C 
BRANCH  21  22
HETATM   22  C2  UNL     1      31.857   8.762  48.641  1.00  0.00     0.298 C 
BRANCH  22  23
HETATM   23  N1  UNL     1      31.195   7.945  49.644  1.00  0.00     0.082 N 
HETATM   24  C1  UNL     1      31.718   6.607  49.708  1.00  0.00     0.307 C 
HETATM   25  H4  UNL     1      31.274   8.419  50.572  1.00  0.00     0.315 HD
ENDBRANCH  22  23
ENDBRANCH  21  22
ENDBRANCH  20  21
ENDBRANCH  19  20
ENDBRANCH  16  19
ENDBRANCH   1  15
BRANCH   9  26
HETATM   26  N4  UNL     1      22.727   2.378  51.729  1.00  0.00    -0.358 N 
HETATM   27  H14 UNL     1      21.858   2.662  52.266  1.00  0.00     0.162 HD
BRANCH  26  28
HETATM   28  C14 UNL     1      23.052   0.982  51.702  1.00  0.00     0.174 A 
HETATM   29  C15 UNL     1      23.914   0.645  52.858  1.00  0.00    -0.055 A 
HETATM   30  C16 UNL     1      25.259   0.878  53.470  1.00  0.00     0.046 C 
HETATM   31  C17 UNL     1      23.238  -0.192  53.666  1.00  0.00     0.008 A 
HETATM   32  C18 UNL     1      21.917  -0.465  53.118  1.00  0.00     0.040 A 
HETATM   33  C19 UNL     1      21.816   0.210  51.991  1.00  0.00     0.120 A 
HETATM   34  F1  UNL     1      20.887   0.408  50.999  1.00  0.00    -0.208 F 
ENDBRANCH  26  28
ENDBRANCH   9  26
TORSDOF 8
ENDMDL
MODEL 7
REMARK VINA RESULT:      -7.9      5.083      9.779
REMARK  8 active torsions:
REMARK  status: ('A' for Active; 'I' for Inactive)
REMARK    1  A    between atoms: N1_2  and  C2_3 
REMARK    2  A    between atoms: C2_3  and  C3_4 
REMARK    3  A    between atoms: C3_4  and  C4_5 
REMARK    4  A    between atoms: C4_5  and  O1_6 
REMARK    5  A    between atoms: O1_6  and  C5_7 
REMARK       I    between atoms: C5_7  and  N2_9 
REMARK    6  A    between atoms: N2_9  and  C7_11 
REMARK    7  A    between atoms: C13_19  and  N4_20 
REMARK    8  A    between atoms: N4_20  and  C14_21 
ROOT
HETATM    1  C7  UNL     1      25.655   4.764  49.476  1.00  0.00     0.063 A 
HETATM    2  C8  UNL     1      26.204   3.908  50.432  1.00  0.00     0.064 A 
HETATM    3  C9  UNL     1      25.495   2.925  51.064  1.00  0.00     0.071 A 
HETATM    4  C10 UNL     1      24.171   2.762  50.747  1.00  0.00     0.088 A 
HETATM    5  C11 UNL     1      23.595   3.603  49.795  1.00  0.00     0.060 A 
HETATM    6  C12 UNL     1      24.327   4.585  49.173  1.00  0.00     0.063 A 
HETATM    7 CL1  UNL     1      23.680   5.682  47.967  1.00  0.00    -0.082 Cl
HETATM    8  N3  UNL     1      23.422   1.819  51.329  1.00  0.00    -0.227 NA
HETATM    9  C13 UNL     1      23.911   0.983  52.247  1.00  0.00     0.154 A 
HETATM   10  C20 UNL     1      25.236   1.165  52.547  1.00  0.00     0.104 A 
HETATM   11  C21 UNL     1      26.055   0.491  53.435  1.00  0.00     0.151 A 
HETATM   12  N5  UNL     1      27.283   1.042  53.370  1.00  0.00    -0.253 NA
HETATM   13  C22 UNL     1      27.235   2.036  52.465  1.00  0.00     0.215 A 
HETATM   14  N6  UNL     1      25.993   2.099  51.975  1.00  0.00    -0.299 N 
ENDROOT
BRANCH   1  15
HETATM   15  N2  UNL     1      26.559   5.701  48.947  1.00  0.00    -0.296 N 
HETATM   16  C5  UNL     1      27.855   5.400  48.462  1.00  0.00     0.371 C 
HETATM   17  O2  UNL     1      28.803   4.621  48.198  1.00  0.00    -0.238 OA
HETATM   18  C6  UNL     1      26.151   7.076  48.888  1.00  0.00     0.162 C 
BRANCH  16  19
HETATM   19  O1  UNL     1      28.715   6.359  47.950  1.00  0.00    -0.274 OA
BRANCH  19  20
HETATM   20  C4  UNL     1      30.014   6.476  48.388  1.00  0.00     0.145 C 
BRANCH  20  21
HETATM   21  C3  UNL     1      31.309   6.702  48.393  1.00  0.00     0.027 C 
BRANCH  21  22
HETATM   22  C2  UNL     1      32.377   6.086  49.221  1.00  0.00     0.298 C 
BRANCH  22  23
HETATM   23  N1  UNL     1      32.831   4.831  48.647  1.00  0.00     0.082 N 
HETATM   24  C1  UNL     1      34.174   4.904  48.137  1.00  0.00     0.307 C 
HETATM   25  H4  UNL     1      32.748   4.079  49.367  1.00  0.00     0.315 HD
ENDBRANCH  22  23
ENDBRANCH  21  22
ENDBRANCH  20  21
ENDBRANCH  19  20
ENDBRANCH  16  19
ENDBRANCH   1  15
BRANCH   9  26
HETATM   26  N4  UNL     1      23.129  -0.024  52.874  1.00  0.00    -0.358 N 
HETATM   27  H14 UNL     1      23.332  -1.002  52.520  1.00  0.00     0.162 HD
BRANCH  26  28
HETATM   28  C14 UNL     1      22.131   0.108  53.895  1.00  0.00     0.174 A 
HETATM   29  C15 UNL     1      20.807   0.336  53.275  1.00  0.00    -0.055 A 
HETATM   30  C16 UNL     1      20.005   1.301  52.460  1.00  0.00     0.046 C 
HETATM   31  C17 UNL     1      20.019  -0.719  53.549  1.00  0.00     0.008 A 
HETATM   32  C18 UNL     1      20.742  -1.695  54.352  1.00  0.00     0.040 A 
HETATM   33  C19 UNL     1      21.954  -1.215  54.548  1.00  0.00     0.120 A 
HETATM   34  F1  UNL     1      23.110  -1.590  55.187  1.00  0.00    -0.208 F 
ENDBRANCH  26  28
ENDBRANCH   9  26
TORSDOF 8
ENDMDL
MODEL 8
REMARK VINA RESULT:      -7.8      7.787      9.927
REMARK  8 active torsions:
REMARK  status: ('A' for Active; 'I' for Inactive)
REMARK    1  A    between atoms: N1_2  and  C2_3 
REMARK    2  A    between atoms: C2_3  and  C3_4 
REMARK    3  A    between atoms: C3_4  and  C4_5 
REMARK    4  A    between atoms: C4_5  and  O1_6 
REMARK    5  A    between atoms: O1_6  and  C5_7 
REMARK       I    between atoms: C5_7  and  N2_9 
REMARK    6  A    between atoms: N2_9  and  C7_11 
REMARK    7  A    between atoms: C13_19  and  N4_20 
REMARK    8  A    between atoms: N4_20  and  C14_21 
ROOT
HETATM    1  C7  UNL     1      26.447   6.697  48.884  1.00  0.00     0.063 A 
HETATM    2  C8  UNL     1      27.567   7.462  48.555  1.00  0.00     0.064 A 
HETATM    3  C9  UNL     1      28.786   6.927  48.247  1.00  0.00     0.071 A 
HETATM    4  C10 UNL     1      28.927   5.563  48.260  1.00  0.00     0.088 A 
HETATM    5  C11 UNL     1      27.825   4.772  48.586  1.00  0.00     0.060 A 
HETATM    6  C12 UNL     1      26.609   5.333  48.892  1.00  0.00     0.063 A 
HETATM    7 CL1  UNL     1      25.177   4.412  49.311  1.00  0.00    -0.082 Cl
HETATM    8  N3  UNL     1      30.094   4.975  47.969  1.00  0.00    -0.227 NA
HETATM    9  C13 UNL     1      31.185   5.673  47.650  1.00  0.00     0.154 A 
HETATM   10  C20 UNL     1      31.020   7.033  47.643  1.00  0.00     0.104 A 
HETATM   11  C21 UNL     1      31.922   8.045  47.363  1.00  0.00     0.151 A 
HETATM   12  N5  UNL     1      31.279   9.223  47.491  1.00  0.00    -0.253 NA
HETATM   13  C22 UNL     1      30.008   8.957  47.843  1.00  0.00     0.215 A 
HETATM   14  N6  UNL     1      29.865   7.631  47.931  1.00  0.00    -0.299 N 
ENDROOT
BRANCH   1  15
HETATM   15  N2  UNL     1      25.292   7.447  49.162  1.00  0.00    -0.296 N 
HETATM   16  C5  UNL     1      24.541   7.372  50.360  1.00  0.00     0.371 C 
HETATM   17  O2  UNL     1      24.299   6.927  51.509  1.00  0.00    -0.238 OA
HETATM   18  C6  UNL     1      24.824   8.366  48.165  1.00  0.00     0.162 C 
BRANCH  16  19
HETATM   19  O1  UNL     1      23.404   8.130  50.593  1.00  0.00    -0.274 OA
BRANCH  19  20
HETATM   20  C4  UNL     1      22.145   7.578  50.560  1.00  0.00     0.145 C 
BRANCH  20  21
HETATM   21  C3  UNL     1      21.135   6.801  50.235  1.00  0.00     0.027 C 
BRANCH  21  22
HETATM   22  C2  UNL     1      20.860   5.392  50.616  1.00  0.00     0.298 C 
BRANCH  22  23
HETATM   23  N1  UNL     1      22.092   4.672  50.891  1.00  0.00     0.082 N 
HETATM   24  C1  UNL     1      22.153   4.162  52.234  1.00  0.00     0.307 C 
HETATM   25  H4  UNL     1      22.194   3.898  50.195  1.00  0.00     0.315 HD
ENDBRANCH  22  23
ENDBRANCH  21  22
ENDBRANCH  20  21
ENDBRANCH  19  20
ENDBRANCH  16  19
ENDBRANCH   1  15
BRANCH   9  26
HETATM   26  N4  UNL     1      32.431   5.065  47.337  1.00  0.00    -0.358 N 
HETATM   27  H14 UNL     1      33.243   5.444  47.903  1.00  0.00     0.162 HD
BRANCH  26  28
HETATM   28  C14 UNL     1      32.722   4.034  46.385  1.00  0.00     0.174 A 
HETATM   29  C15 UNL     1      33.345   4.626  45.180  1.00  0.00    -0.055 A 
HETATM   30  C16 UNL     1      33.103   5.538  44.019  1.00  0.00     0.046 C 
HETATM   31  C17 UNL     1      34.608   4.171  45.084  1.00  0.00     0.008 A 
HETATM   32  C18 UNL     1      34.903   3.267  46.186  1.00  0.00     0.040 A 
HETATM   33  C19 UNL     1      33.817   3.191  46.929  1.00  0.00     0.120 A 
HETATM   34  F1  UNL     1      33.405   2.553  48.073  1.00  0.00    -0.208 F 
ENDBRANCH  26  28
ENDBRANCH   9  26
TORSDOF 8
ENDMDL
MODEL 9
REMARK VINA RESULT:      -7.7      4.729      9.636
REMARK  8 active torsions:
REMARK  status: ('A' for Active; 'I' for Inactive)
REMARK    1  A    between atoms: N1_2  and  C2_3 
REMARK    2  A    between atoms: C2_3  and  C3_4 
REMARK    3  A    between atoms: C3_4  and  C4_5 
REMARK    4  A    between atoms: C4_5  and  O1_6 
REMARK    5  A    between atoms: O1_6  and  C5_7 
REMARK       I    between atoms: C5_7  and  N2_9 
REMARK    6  A    between atoms: N2_9  and  C7_11 
REMARK    7  A    between atoms: C13_19  and  N4_20 
REMARK    8  A    between atoms: N4_20  and  C14_21 
ROOT
HETATM    1  C7  UNL     1      22.870  -0.128  53.424  1.00  0.00     0.063 A 
HETATM    2  C8  UNL     1      21.922   0.241  52.469  1.00  0.00     0.064 A 
HETATM    3  C9  UNL     1      20.608  -0.131  52.524  1.00  0.00     0.071 A 
HETATM    4  C10 UNL     1      20.189  -0.910  53.572  1.00  0.00     0.088 A 
HETATM    5  C11 UNL     1      21.115  -1.295  54.542  1.00  0.00     0.060 A 
HETATM    6  C12 UNL     1      22.431  -0.909  54.465  1.00  0.00     0.063 A 
HETATM    7 CL1  UNL     1      23.656  -1.348  55.640  1.00  0.00    -0.082 Cl
HETATM    8  N3  UNL     1      18.916  -1.308  53.685  1.00  0.00    -0.227 NA
HETATM    9  C13 UNL     1      17.982  -0.976  52.792  1.00  0.00     0.154 A 
HETATM   10  C20 UNL     1      18.424  -0.197  51.755  1.00  0.00     0.104 A 
HETATM   11  C21 UNL     1      17.741   0.324  50.670  1.00  0.00     0.151 A 
HETATM   12  N5  UNL     1      18.617   1.026  49.925  1.00  0.00    -0.253 NA
HETATM   13  C22 UNL     1      19.818   0.948  50.526  1.00  0.00     0.215 A 
HETATM   14  N6  UNL     1      19.686   0.206  51.631  1.00  0.00    -0.299 N 
ENDROOT
BRANCH   1  15
HETATM   15  N2  UNL     1      24.163   0.365  53.179  1.00  0.00    -0.296 N 
HETATM   16  C5  UNL     1      24.520   1.735  53.145  1.00  0.00     0.371 C 
HETATM   17  O2  UNL     1      24.274   2.963  53.227  1.00  0.00    -0.238 OA
HETATM   18  C6  UNL     1      25.216  -0.582  52.945  1.00  0.00     0.162 C 
BRANCH  16  19
HETATM   19  O1  UNL     1      25.810   2.177  52.897  1.00  0.00    -0.274 OA
BRANCH  19  20
HETATM   20  C4  UNL     1      26.195   2.637  51.659  1.00  0.00     0.145 C 
BRANCH  20  21
HETATM   21  C3  UNL     1      26.202   2.868  50.365  1.00  0.00     0.027 C 
BRANCH  21  22
HETATM   22  C2  UNL     1      26.087   4.153  49.630  1.00  0.00     0.298 C 
BRANCH  22  23
HETATM   23  N1  UNL     1      27.391   4.645  49.221  1.00  0.00     0.082 N 
HETATM   24  C1  UNL     1      27.316   5.868  48.468  1.00  0.00     0.307 C 
HETATM   25  H4  UNL     1      27.988   4.769  50.070  1.00  0.00     0.315 HD
ENDBRANCH  22  23
ENDBRANCH  21  22
ENDBRANCH  20  21
ENDBRANCH  19  20
ENDBRANCH  16  19
ENDBRANCH   1  15
BRANCH   9  26
HETATM   26  N4  UNL     1      16.626  -1.390  52.898  1.00  0.00    -0.358 N 
HETATM   27  H14 UNL     1      16.076  -0.860  53.632  1.00  0.00     0.162 HD
BRANCH  26  28
HETATM   28  C14 UNL     1      15.928  -2.401  52.159  1.00  0.00     0.174 A 
HETATM   29  C15 UNL     1      15.952  -3.677  52.910  1.00  0.00    -0.055 A 
HETATM   30  C16 UNL     1      16.848  -4.762  53.419  1.00  0.00     0.046 C 
HETATM   31  C17 UNL     1      14.693  -3.986  53.268  1.00  0.00     0.008 A 
HETATM   32  C18 UNL     1      13.768  -2.968  52.792  1.00  0.00     0.040 A 
HETATM   33  C19 UNL     1      14.482  -2.061  52.155  1.00  0.00     0.120 A 
HETATM   34  F1  UNL     1      14.271  -0.881  51.486  1.00  0.00    -0.208 F 
ENDBRANCH  26  28
ENDBRANCH   9  26
TORSDOF 8
ENDMDL
