MODEL 1
REMARK VINA RESULT:      -9.0      0.000      0.000
REMARK  3 active torsions:
REMARK  status: ('A' for Active; 'I' for Inactive)
REMARK    1  A    between atoms: C4_5  and  C5_6 
REMARK    2  A    between atoms: C6_8  and  C7_9 
REMARK    3  A    between atoms: C7_9  and  C8_10 
ROOT
HETATM    1  C5  UNL     1      23.032   0.786  52.305  1.00  0.00     0.073 A 
HETATM    2  N1  UNL     1      23.817   0.338  53.188  1.00  0.00    -0.278 NA
HETATM    3  C6  UNL     1      25.151   0.815  52.979  1.00  0.00     0.146 A 
HETATM    4  C13 UNL     1      25.050   1.699  51.817  1.00  0.00    -0.021 A 
HETATM    5  C14 UNL     1      25.911   2.503  51.098  1.00  0.00     0.010 A 
HETATM    6  C15 UNL     1      25.544   3.258  49.996  1.00  0.00     0.001 A 
HETATM    7  C16 UNL     1      24.202   3.182  49.608  1.00  0.00     0.001 A 
HETATM    8  C17 UNL     1      23.347   2.381  50.327  1.00  0.00     0.014 A 
HETATM    9  C18 UNL     1      23.745   1.653  51.406  1.00  0.00     0.002 A 
ENDROOT
BRANCH   1  10
HETATM   10  C4  UNL     1      21.640   0.389  52.378  1.00  0.00    -0.007 A 
HETATM   11  C3  UNL     1      21.184  -0.331  53.481  1.00  0.00     0.015 A 
HETATM   12  C2  UNL     1      19.896  -0.779  53.689  1.00  0.00     0.024 A 
HETATM   13  C1  UNL     1      18.933  -0.525  52.764  1.00  0.00     0.034 A 
HETATM   14 CL1  UNL     1      17.299  -1.080  53.003  1.00  0.00    -0.084 Cl
HETATM   15  C20 UNL     1      19.306   0.181  51.646  1.00  0.00     0.024 A 
HETATM   16  C19 UNL     1      20.610   0.589  51.518  1.00  0.00     0.015 A 
ENDBRANCH   1  10
BRANCH   3  17
HETATM   17  C7  UNL     1      25.977  -0.426  52.677  1.00  0.00     0.070 C 
BRANCH  17  18
HETATM   18  C8  UNL     1      27.371  -0.342  53.083  1.00  0.00    -0.053 A 
HETATM   19  C9  UNL     1      28.089  -1.535  53.019  1.00  0.00     0.026 A 
HETATM   20  C10 UNL     1      29.423  -1.668  53.341  1.00  0.00     0.116 A 
HETATM   21  N2  UNL     1      30.086  -0.566  53.750  1.00  0.00    -0.273 NA
HETATM   22  C11 UNL     1      29.452   0.639  53.839  1.00  0.00     0.116 A 
HETATM   23  C12 UNL     1      28.133   0.747  53.515  1.00  0.00     0.026 A 
ENDBRANCH  17  18
ENDBRANCH   3  17
TORSDOF 3
ENDMDL
MODEL 2
REMARK VINA RESULT:      -8.9      2.611      4.763
REMARK  3 active torsions:
REMARK  status: ('A' for Active; 'I' for Inactive)
REMARK    1  A    between atoms: C4_5  and  C5_6 
REMARK    2  A    between atoms: C6_8  and  C7_9 
REMARK    3  A    between atoms: C7_9  and  C8_10 
ROOT
HETATM    1  C5  UNL     1      23.961   1.231  52.060  1.00  0.00     0.073 A 
HETATM    2  N1  UNL     1      25.045   0.598  52.203  1.00  0.00    -0.278 NA
HETATM    3  C6  UNL     1      24.916  -0.426  53.197  1.00  0.00     0.146 A 
HETATM    4  C13 UNL     1      23.516  -0.353  53.622  1.00  0.00    -0.021 A 
HETATM    5  C14 UNL     1      22.706  -1.040  54.502  1.00  0.00     0.010 A 
HETATM    6  C15 UNL     1      21.370  -0.751  54.726  1.00  0.00     0.001 A 
HETATM    7  C16 UNL     1      20.831   0.314  53.997  1.00  0.00     0.001 A 
HETATM    8  C17 UNL     1      21.643   0.996  53.121  1.00  0.00     0.014 A 
HETATM    9  C18 UNL     1      22.953   0.683  52.927  1.00  0.00     0.002 A 
ENDROOT
BRANCH   1  10
HETATM   10  C4  UNL     1      23.932   2.305  51.088  1.00  0.00    -0.007 A 
HETATM   11  C3  UNL     1      24.742   3.424  51.271  1.00  0.00     0.015 A 
HETATM   12  C2  UNL     1      24.820   4.522  50.439  1.00  0.00     0.024 A 
HETATM   13  C1  UNL     1      24.057   4.575  49.316  1.00  0.00     0.034 A 
HETATM   14 CL1  UNL     1      24.138   5.950  48.247  1.00  0.00    -0.084 Cl
HETATM   15  C20 UNL     1      23.231   3.507  49.065  1.00  0.00     0.024 A 
HETATM   16  C19 UNL     1      23.214   2.455  49.947  1.00  0.00     0.015 A 
ENDBRANCH   1  10
BRANCH   3  17
HETATM   17  C7  UNL     1      25.869  -0.023  54.312  1.00  0.00     0.070 C 
BRANCH  17  18
HETATM   18  C8  UNL     1      27.279  -0.168  53.987  1.00  0.00    -0.053 A 
HETATM   19  C9  UNL     1      28.089   0.914  54.328  1.00  0.00     0.026 A 
HETATM   20  C10 UNL     1      29.451   0.971  54.124  1.00  0.00     0.116 A 
HETATM   21  N2  UNL     1      30.049  -0.095  53.553  1.00  0.00    -0.273 NA
HETATM   22  C11 UNL     1      29.324  -1.193  53.191  1.00  0.00     0.116 A 
HETATM   23  C12 UNL     1      27.977  -1.227  53.402  1.00  0.00     0.026 A 
ENDBRANCH  17  18
ENDBRANCH   3  17
TORSDOF 3
ENDMDL
MODEL 3
REMARK VINA RESULT:      -8.9      3.608      7.448
REMARK  3 active torsions:
REMARK  status: ('A' for Active; 'I' for Inactive)
REMARK    1  A    between atoms: C4_5  and  C5_6 
REMARK    2  A    between atoms: C6_8  and  C7_9 
REMARK    3  A    between atoms: C7_9  and  C8_10 
ROOT
HETATM    1  C5  UNL     1      24.967   2.613  51.100  1.00  0.00     0.073 A 
HETATM    2  N1  UNL     1      23.729   2.748  51.314  1.00  0.00    -0.278 NA
HETATM    3  C6  UNL     1      23.226   1.675  52.119  1.00  0.00     0.146 A 
HETATM    4  C13 UNL     1      24.402   0.856  52.420  1.00  0.00    -0.021 A 
HETATM    5  C14 UNL     1      24.661  -0.284  53.153  1.00  0.00     0.010 A 
HETATM    6  C15 UNL     1      25.909  -0.874  53.270  1.00  0.00     0.001 A 
HETATM    7  C16 UNL     1      26.960  -0.250  52.590  1.00  0.00     0.001 A 
HETATM    8  C17 UNL     1      26.698   0.887  51.861  1.00  0.00     0.014 A 
HETATM    9  C18 UNL     1      25.457   1.438  51.770  1.00  0.00     0.002 A 
ENDROOT
BRANCH   1  10
HETATM   10  C4  UNL     1      25.625   3.622  50.295  1.00  0.00    -0.007 A 
HETATM   11  C3  UNL     1      25.062   4.892  50.184  1.00  0.00     0.015 A 
HETATM   12  C2  UNL     1      25.567   5.949  49.454  1.00  0.00     0.024 A 
HETATM   13  C1  UNL     1      26.723   5.798  48.755  1.00  0.00     0.034 A 
HETATM   14 CL1  UNL     1      27.382   7.118  47.828  1.00  0.00    -0.084 Cl
HETATM   15  C20 UNL     1      27.339   4.572  48.816  1.00  0.00     0.024 A 
HETATM   16  C19 UNL     1      26.767   3.573  49.565  1.00  0.00     0.015 A 
ENDBRANCH   1  10
BRANCH   3  17
HETATM   17  C7  UNL     1      22.235   0.939  51.231  1.00  0.00     0.070 C 
BRANCH  17  18
HETATM   18  C8  UNL     1      21.108   0.350  51.936  1.00  0.00    -0.053 A 
HETATM   19  C9  UNL     1      19.878   0.442  51.287  1.00  0.00     0.026 A 
HETATM   20  C10 UNL     1      18.692  -0.067  51.774  1.00  0.00     0.116 A 
HETATM   21  N2  UNL     1      18.719  -0.699  52.965  1.00  0.00    -0.273 NA
HETATM   22  C11 UNL     1      19.885  -0.829  53.662  1.00  0.00     0.116 A 
HETATM   23  C12 UNL     1      21.046  -0.319  53.161  1.00  0.00     0.026 A 
ENDBRANCH  17  18
ENDBRANCH   3  17
TORSDOF 3
ENDMDL
MODEL 4
REMARK VINA RESULT:      -8.9      3.396      7.235
REMARK  3 active torsions:
REMARK  status: ('A' for Active; 'I' for Inactive)
REMARK    1  A    between atoms: C4_5  and  C5_6 
REMARK    2  A    between atoms: C6_8  and  C7_9 
REMARK    3  A    between atoms: C7_9  and  C8_10 
ROOT
HETATM    1  C5  UNL     1      24.411   0.631  52.802  1.00  0.00     0.073 A 
HETATM    2  N1  UNL     1      24.190   1.540  51.951  1.00  0.00    -0.278 NA
HETATM    3  C6  UNL     1      22.785   1.752  51.779  1.00  0.00     0.146 A 
HETATM    4  C13 UNL     1      22.153   0.834  52.729  1.00  0.00    -0.021 A 
HETATM    5  C14 UNL     1      20.863   0.533  53.117  1.00  0.00     0.010 A 
HETATM    6  C15 UNL     1      20.532  -0.417  54.068  1.00  0.00     0.001 A 
HETATM    7  C16 UNL     1      21.597  -1.103  54.661  1.00  0.00     0.001 A 
HETATM    8  C17 UNL     1      22.881  -0.800  54.273  1.00  0.00     0.014 A 
HETATM    9  C18 UNL     1      23.167   0.142  53.333  1.00  0.00     0.002 A 
ENDROOT
BRANCH   1  10
HETATM   10  C4  UNL     1      25.792   0.296  53.086  1.00  0.00    -0.007 A 
HETATM   11  C3  UNL     1      26.310  -0.923  52.652  1.00  0.00     0.015 A 
HETATM   12  C2  UNL     1      27.597  -1.381  52.849  1.00  0.00     0.024 A 
HETATM   13  C1  UNL     1      28.492  -0.614  53.525  1.00  0.00     0.034 A 
HETATM   14 CL1  UNL     1      30.123  -1.169  53.786  1.00  0.00    -0.084 Cl
HETATM   15  C20 UNL     1      28.056   0.604  53.985  1.00  0.00     0.024 A 
HETATM   16  C19 UNL     1      26.758   0.983  53.746  1.00  0.00     0.015 A 
ENDBRANCH   1  10
BRANCH   3  17
HETATM   17  C7  UNL     1      22.495   1.364  50.337  1.00  0.00     0.070 C 
BRANCH  17  18
HETATM   18  C8  UNL     1      22.531   2.468  49.392  1.00  0.00    -0.053 A 
HETATM   19  C9  UNL     1      22.021   2.191  48.125  1.00  0.00     0.026 A 
HETATM   20  C10 UNL     1      21.946   3.102  47.091  1.00  0.00     0.116 A 
HETATM   21  N2  UNL     1      22.399   4.352  47.318  1.00  0.00    -0.273 NA
HETATM   22  C11 UNL     1      22.913   4.700  48.533  1.00  0.00     0.116 A 
HETATM   23  C12 UNL     1      22.977   3.784  49.540  1.00  0.00     0.026 A 
ENDBRANCH  17  18
ENDBRANCH   3  17
TORSDOF 3
ENDMDL
MODEL 5
REMARK VINA RESULT:      -8.6      3.529      6.741
REMARK  3 active torsions:
REMARK  status: ('A' for Active; 'I' for Inactive)
REMARK    1  A    between atoms: C4_5  and  C5_6 
REMARK    2  A    between atoms: C6_8  and  C7_9 
REMARK    3  A    between atoms: C7_9  and  C8_10 
ROOT
HETATM    1  C5  UNL     1      25.528   1.010  52.738  1.00  0.00     0.073 A 
HETATM    2  N1  UNL     1      25.665   2.183  52.288  1.00  0.00    -0.278 NA
HETATM    3  C6  UNL     1      24.392   2.794  52.052  1.00  0.00     0.146 A 
HETATM    4  C13 UNL     1      23.415   1.795  52.489  1.00  0.00    -0.021 A 
HETATM    5  C14 UNL     1      22.040   1.718  52.577  1.00  0.00     0.010 A 
HETATM    6  C15 UNL     1      21.345   0.613  53.039  1.00  0.00     0.001 A 
HETATM    7  C16 UNL     1      22.114  -0.486  53.437  1.00  0.00     0.001 A 
HETATM    8  C17 UNL     1      23.484  -0.405  53.348  1.00  0.00     0.014 A 
HETATM    9  C18 UNL     1      24.132   0.700  52.889  1.00  0.00     0.002 A 
ENDROOT
BRANCH   1  10
HETATM   10  C4  UNL     1      26.732   0.255  53.026  1.00  0.00    -0.007 A 
HETATM   11  C3  UNL     1      27.760   0.848  53.756  1.00  0.00     0.015 A 
HETATM   12  C2  UNL     1      28.960   0.260  54.103  1.00  0.00     0.024 A 
HETATM   13  C1  UNL     1      29.221  -1.019  53.726  1.00  0.00     0.034 A 
HETATM   14 CL1  UNL     1      30.728  -1.783  54.154  1.00  0.00    -0.084 Cl
HETATM   15  C20 UNL     1      28.253  -1.672  53.004  1.00  0.00     0.024 A 
HETATM   16  C19 UNL     1      27.088  -1.012  52.699  1.00  0.00     0.015 A 
ENDBRANCH   1  10
BRANCH   3  17
HETATM   17  C7  UNL     1      24.333   3.025  50.549  1.00  0.00     0.070 C 
BRANCH  17  18
HETATM   18  C8  UNL     1      25.164   4.118  50.069  1.00  0.00    -0.053 A 
HETATM   19  C9  UNL     1      26.339   3.739  49.422  1.00  0.00     0.026 A 
HETATM   20  C10 UNL     1      27.254   4.616  48.878  1.00  0.00     0.116 A 
HETATM   21  N2  UNL     1      26.998   5.937  48.978  1.00  0.00    -0.273 NA
HETATM   22  C11 UNL     1      25.868   6.386  49.597  1.00  0.00     0.116 A 
HETATM   23  C12 UNL     1      24.977   5.501  50.127  1.00  0.00     0.026 A 
ENDBRANCH  17  18
ENDBRANCH   3  17
TORSDOF 3
ENDMDL
MODEL 6
REMARK VINA RESULT:      -8.5      4.543      7.112
REMARK  3 active torsions:
REMARK  status: ('A' for Active; 'I' for Inactive)
REMARK    1  A    between atoms: C4_5  and  C5_6 
REMARK    2  A    between atoms: C6_8  and  C7_9 
REMARK    3  A    between atoms: C7_9  and  C8_10 
ROOT
HETATM    1  C5  UNL     1      24.532   3.262  49.827  1.00  0.00     0.073 A 
HETATM    2  N1  UNL     1      24.855   2.623  50.869  1.00  0.00    -0.278 NA
HETATM    3  C6  UNL     1      23.860   1.650  51.205  1.00  0.00     0.146 A 
HETATM    4  C13 UNL     1      22.862   1.759  50.139  1.00  0.00    -0.021 A 
HETATM    5  C14 UNL     1      21.681   1.124  49.810  1.00  0.00     0.010 A 
HETATM    6  C15 UNL     1      20.902   1.439  48.709  1.00  0.00     0.001 A 
HETATM    7  C16 UNL     1      21.367   2.475  47.892  1.00  0.00     0.001 A 
HETATM    8  C17 UNL     1      22.543   3.105  48.223  1.00  0.00     0.014 A 
HETATM    9  C18 UNL     1      23.283   2.767  49.314  1.00  0.00     0.002 A 
ENDROOT
BRANCH   1  10
HETATM   10  C4  UNL     1      25.441   4.289  49.358  1.00  0.00    -0.007 A 
HETATM   11  C3  UNL     1      26.787   3.984  49.166  1.00  0.00     0.015 A 
HETATM   12  C2  UNL     1      27.767   4.852  48.730  1.00  0.00     0.024 A 
HETATM   13  C1  UNL     1      27.451   6.142  48.445  1.00  0.00     0.034 A 
HETATM   14 CL1  UNL     1      28.670   7.257  47.892  1.00  0.00    -0.084 Cl
HETATM   15  C20 UNL     1      26.141   6.520  48.610  1.00  0.00     0.024 A 
HETATM   16  C19 UNL     1      25.229   5.592  49.049  1.00  0.00     0.015 A 
ENDBRANCH   1  10
BRANCH   3  17
HETATM   17  C7  UNL     1      23.304   2.094  52.549  1.00  0.00     0.070 C 
BRANCH  17  18
HETATM   18  C8  UNL     1      22.512   1.089  53.241  1.00  0.00    -0.053 A 
HETATM   19  C9  UNL     1      23.218  -0.023  53.696  1.00  0.00     0.026 A 
HETATM   20  C10 UNL     1      22.662  -1.077  54.390  1.00  0.00     0.116 A 
HETATM   21  N2  UNL     1      21.338  -1.035  54.647  1.00  0.00    -0.273 NA
HETATM   22  C11 UNL     1      20.579   0.021  54.234  1.00  0.00     0.116 A 
HETATM   23  C12 UNL     1      21.150   1.053  53.550  1.00  0.00     0.026 A 
ENDBRANCH  17  18
ENDBRANCH   3  17
TORSDOF 3
ENDMDL
MODEL 7
REMARK VINA RESULT:      -8.5      3.141      6.763
REMARK  3 active torsions:
REMARK  status: ('A' for Active; 'I' for Inactive)
REMARK    1  A    between atoms: C4_5  and  C5_6 
REMARK    2  A    between atoms: C6_8  and  C7_9 
REMARK    3  A    between atoms: C7_9  and  C8_10 
ROOT
HETATM    1  C5  UNL     1      25.398   1.683  51.547  1.00  0.00     0.073 A 
HETATM    2  N1  UNL     1      24.286   1.106  51.715  1.00  0.00    -0.278 NA
HETATM    3  C6  UNL     1      23.236   1.805  51.037  1.00  0.00     0.146 A 
HETATM    4  C13 UNL     1      23.909   2.915  50.359  1.00  0.00    -0.021 A 
HETATM    5  C14 UNL     1      23.533   3.946  49.522  1.00  0.00     0.010 A 
HETATM    6  C15 UNL     1      24.401   4.896  49.011  1.00  0.00     0.001 A 
HETATM    7  C16 UNL     1      25.744   4.780  49.384  1.00  0.00     0.001 A 
HETATM    8  C17 UNL     1      26.114   3.751  50.218  1.00  0.00     0.014 A 
HETATM    9  C18 UNL     1      25.232   2.834  50.701  1.00  0.00     0.002 A 
ENDROOT
BRANCH   1  10
HETATM   10  C4  UNL     1      26.564   1.096  52.177  1.00  0.00    -0.007 A 
HETATM   11  C3  UNL     1      26.686  -0.291  52.244  1.00  0.00     0.015 A 
HETATM   12  C2  UNL     1      27.730  -0.992  52.813  1.00  0.00     0.024 A 
HETATM   13  C1  UNL     1      28.768  -0.321  53.377  1.00  0.00     0.034 A 
HETATM   14 CL1  UNL     1      30.099  -1.184  54.100  1.00  0.00    -0.084 Cl
HETATM   15  C20 UNL     1      28.720   1.051  53.349  1.00  0.00     0.024 A 
HETATM   16  C19 UNL     1      27.642   1.670  52.764  1.00  0.00     0.015 A 
ENDBRANCH   1  10
BRANCH   3  17
HETATM   17  C7  UNL     1      22.305   2.292  52.136  1.00  0.00     0.070 C 
BRANCH  17  18
HETATM   18  C8  UNL     1      21.422   1.273  52.681  1.00  0.00    -0.053 A 
HETATM   19  C9  UNL     1      20.276   1.009  51.933  1.00  0.00     0.026 A 
HETATM   20  C10 UNL     1      19.322   0.069  52.263  1.00  0.00     0.116 A 
HETATM   21  N2  UNL     1      19.506  -0.648  53.391  1.00  0.00    -0.273 NA
HETATM   22  C11 UNL     1      20.603  -0.448  54.176  1.00  0.00     0.116 A 
HETATM   23  C12 UNL     1      21.534   0.486  53.830  1.00  0.00     0.026 A 
ENDBRANCH  17  18
ENDBRANCH   3  17
TORSDOF 3
ENDMDL
MODEL 8
REMARK VINA RESULT:      -8.4      4.631      7.268
REMARK  3 active torsions:
REMARK  status: ('A' for Active; 'I' for Inactive)
REMARK    1  A    between atoms: C4_5  and  C5_6 
REMARK    2  A    between atoms: C6_8  and  C7_9 
REMARK    3  A    between atoms: C7_9  and  C8_10 
ROOT
HETATM    1  C5  UNL     1      26.248   4.337  49.343  1.00  0.00     0.073 A 
HETATM    2  N1  UNL     1      26.842   3.452  50.023  1.00  0.00    -0.278 NA
HETATM    3  C6  UNL     1      25.908   2.522  50.584  1.00  0.00     0.146 A 
HETATM    4  C13 UNL     1      24.603   2.961  50.085  1.00  0.00    -0.021 A 
HETATM    5  C14 UNL     1      23.298   2.527  50.192  1.00  0.00     0.010 A 
HETATM    6  C15 UNL     1      22.213   3.154  49.602  1.00  0.00     0.001 A 
HETATM    7  C16 UNL     1      22.487   4.301  48.851  1.00  0.00     0.001 A 
HETATM    8  C17 UNL     1      23.790   4.730  48.746  1.00  0.00     0.014 A 
HETATM    9  C18 UNL     1      24.831   4.087  49.341  1.00  0.00     0.002 A 
ENDROOT
BRANCH   1  10
HETATM   10  C4  UNL     1      27.060   5.357  48.710  1.00  0.00    -0.007 A 
HETATM   11  C3  UNL     1      28.412   5.116  48.477  1.00  0.00     0.015 A 
HETATM   12  C2  UNL     1      29.308   5.986  47.890  1.00  0.00     0.024 A 
HETATM   13  C1  UNL     1      28.890   7.212  47.478  1.00  0.00     0.034 A 
HETATM   14 CL1  UNL     1      30.001   8.329  46.734  1.00  0.00    -0.084 Cl
HETATM   15  C20 UNL     1      27.567   7.523  47.673  1.00  0.00     0.024 A 
HETATM   16  C19 UNL     1      26.743   6.599  48.267  1.00  0.00     0.015 A 
ENDBRANCH   1  10
BRANCH   3  17
HETATM   17  C7  UNL     1      26.026   2.699  52.091  1.00  0.00     0.070 C 
BRANCH  17  18
HETATM   18  C8  UNL     1      26.233   1.465  52.832  1.00  0.00    -0.053 A 
HETATM   19  C9  UNL     1      26.401   0.319  52.057  1.00  0.00     0.026 A 
HETATM   20  C10 UNL     1      26.627  -0.945  52.561  1.00  0.00     0.116 A 
HETATM   21  N2  UNL     1      26.691  -1.088  53.901  1.00  0.00    -0.273 NA
HETATM   22  C11 UNL     1      26.537  -0.013  54.727  1.00  0.00     0.116 A 
HETATM   23  C12 UNL     1      26.314   1.227  54.207  1.00  0.00     0.026 A 
ENDBRANCH  17  18
ENDBRANCH   3  17
TORSDOF 3
ENDMDL
MODEL 9
REMARK VINA RESULT:      -8.2      3.305      5.438
REMARK  3 active torsions:
REMARK  status: ('A' for Active; 'I' for Inactive)
REMARK    1  A    between atoms: C4_5  and  C5_6 
REMARK    2  A    between atoms: C6_8  and  C7_9 
REMARK    3  A    between atoms: C7_9  and  C8_10 
ROOT
HETATM    1  C5  UNL     1      23.381   2.314  51.042  1.00  0.00     0.073 A 
HETATM    2  N1  UNL     1      24.298   3.175  51.166  1.00  0.00    -0.278 NA
HETATM    3  C6  UNL     1      24.372   4.017  50.010  1.00  0.00     0.146 A 
HETATM    4  C13 UNL     1      23.284   3.555  49.146  1.00  0.00    -0.021 A 
HETATM    5  C14 UNL     1      22.761   3.919  47.921  1.00  0.00     0.010 A 
HETATM    6  C15 UNL     1      21.694   3.286  47.306  1.00  0.00     0.001 A 
HETATM    7  C16 UNL     1      21.126   2.209  47.994  1.00  0.00     0.001 A 
HETATM    8  C17 UNL     1      21.650   1.850  49.214  1.00  0.00     0.014 A 
HETATM    9  C18 UNL     1      22.701   2.497  49.788  1.00  0.00     0.002 A 
ENDROOT
BRANCH   1  10
HETATM   10  C4  UNL     1      23.182   1.381  52.133  1.00  0.00    -0.007 A 
HETATM   11  C3  UNL     1      24.273   0.693  52.660  1.00  0.00     0.015 A 
HETATM   12  C2  UNL     1      24.240  -0.225  53.691  1.00  0.00     0.024 A 
HETATM   13  C1  UNL     1      23.058  -0.529  54.289  1.00  0.00     0.034 A 
HETATM   14 CL1  UNL     1      22.990  -1.683  55.592  1.00  0.00    -0.084 Cl
HETATM   15  C20 UNL     1      21.935   0.111  53.823  1.00  0.00     0.024 A 
HETATM   16  C19 UNL     1      22.057   1.009  52.793  1.00  0.00     0.015 A 
ENDBRANCH   1  10
BRANCH   3  17
HETATM   17  C7  UNL     1      25.737   3.740  49.400  1.00  0.00     0.070 C 
BRANCH  17  18
HETATM   18  C8  UNL     1      26.523   4.928  49.105  1.00  0.00    -0.053 A 
HETATM   19  C9  UNL     1      25.952   6.138  49.496  1.00  0.00     0.026 A 
HETATM   20  C10 UNL     1      26.539   7.375  49.325  1.00  0.00     0.116 A 
HETATM   21  N2  UNL     1      27.752   7.422  48.737  1.00  0.00    -0.273 NA
HETATM   22  C11 UNL     1      28.376   6.280  48.327  1.00  0.00     0.116 A 
HETATM   23  C12 UNL     1      27.777   5.068  48.505  1.00  0.00     0.026 A 
ENDBRANCH  17  18
ENDBRANCH   3  17
TORSDOF 3
ENDMDL
