MODEL 1
REMARK VINA RESULT:      -7.9      0.000      0.000
REMARK  3 active torsions:
REMARK  status: ('A' for Active; 'I' for Inactive)
REMARK    1  A    between atoms: C7_8  and  C8_9 
REMARK       I    between atoms: C8_9  and  N1_11 
REMARK    2  A    between atoms: N1_11  and  S1_12 
REMARK    3  A    between atoms: S1_12  and  C9_15 
ROOT
HETATM    1  C8  UNL     1      23.663   0.418  52.882  1.00  0.00     0.265 C 
HETATM    2  O1  UNL     1      24.042   1.657  52.910  1.00  0.00    -0.267 OA
HETATM    3  N1  UNL     1      24.784  -0.392  53.170  1.00  0.00    -0.249 N 
HETATM    4  H7  UNL     1      24.454  -1.400  53.166  1.00  0.00     0.182 HD
ENDROOT
BRANCH   3   5
HETATM    5  S1  UNL     1      26.149   0.623  53.400  1.00  0.00     0.245 S 
HETATM    6  O2  UNL     1      25.812   1.541  54.544  1.00  0.00    -0.204 OA
HETATM    7  O3  UNL     1      26.399   1.485  52.213  1.00  0.00    -0.204 OA
BRANCH   5   8
HETATM    8  C9  UNL     1      27.579  -0.293  53.896  1.00  0.00     0.196 C 
HETATM    9  C10 UNL     1      27.745  -1.509  52.992  1.00  0.00     0.034 C 
HETATM   10  C11 UNL     1      28.961  -2.009  52.998  1.00  0.00     0.083 C 
HETATM   11  N2  UNL     1      29.864  -1.503  53.764  1.00  0.00    -0.258 NA
HETATM   12  C12 UNL     1      30.000  -0.065  53.656  1.00  0.00     0.133 C 
HETATM   13  C13 UNL     1      28.790   0.511  53.729  1.00  0.00     0.030 C 
HETATM   14 BR1  UNL     1      28.743   2.423  53.592  1.00  0.00    -0.052 Br
ENDBRANCH   5   8
ENDBRANCH   3   5
BRANCH   1  15
HETATM   15  C7  UNL     1      22.246   0.257  52.558  1.00  0.00     0.038 A 
HETATM   16  C2  UNL     1      21.524  -0.289  53.608  1.00  0.00    -0.045 A 
HETATM   17  C1  UNL     1      22.118  -0.717  54.905  1.00  0.00     0.049 C 
HETATM   18  C3  UNL     1      20.141  -0.481  53.473  1.00  0.00     0.031 A 
HETATM   19  C4  UNL     1      19.531  -0.120  52.296  1.00  0.00     0.034 A 
HETATM   20 CL1  UNL     1      17.810  -0.367  52.153  1.00  0.00    -0.084 Cl
HETATM   21  C5  UNL     1      20.245   0.421  51.251  1.00  0.00     0.025 A 
HETATM   22  C6  UNL     1      21.603   0.606  51.393  1.00  0.00     0.019 A 
ENDBRANCH   1  15
TORSDOF 3
ENDMDL
MODEL 2
REMARK VINA RESULT:      -7.9      1.961      2.643
REMARK  3 active torsions:
REMARK  status: ('A' for Active; 'I' for Inactive)
REMARK    1  A    between atoms: C7_8  and  C8_9 
REMARK       I    between atoms: C8_9  and  N1_11 
REMARK    2  A    between atoms: N1_11  and  S1_12 
REMARK    3  A    between atoms: S1_12  and  C9_15 
ROOT
HETATM    1  C8  UNL     1      22.913  -0.077  53.177  1.00  0.00     0.265 C 
HETATM    2  O1  UNL     1      23.420  -1.267  53.238  1.00  0.00    -0.267 OA
HETATM    3  N1  UNL     1      23.924   0.851  53.511  1.00  0.00    -0.249 N 
HETATM    4  H7  UNL     1      23.501   1.821  53.435  1.00  0.00     0.182 HD
ENDROOT
BRANCH   3   5
HETATM    5  S1  UNL     1      25.361  -0.014  53.875  1.00  0.00     0.245 S 
HETATM    6  O2  UNL     1      25.796  -0.679  52.598  1.00  0.00    -0.204 OA
HETATM    7  O3  UNL     1      25.115  -1.097  54.865  1.00  0.00    -0.204 OA
BRANCH   5   8
HETATM    8  C9  UNL     1      26.679   1.065  54.354  1.00  0.00     0.196 C 
HETATM    9  C10 UNL     1      27.889   0.238  54.774  1.00  0.00     0.034 C 
HETATM   10  C11 UNL     1      29.021   0.907  54.747  1.00  0.00     0.083 C 
HETATM   11  N2  UNL     1      29.026   2.158  54.439  1.00  0.00    -0.258 NA
HETATM   12  C12 UNL     1      28.320   2.472  53.214  1.00  0.00     0.133 C 
HETATM   13  C13 UNL     1      27.114   1.882  53.220  1.00  0.00     0.030 C 
HETATM   14 BR1  UNL     1      26.016   2.161  51.673  1.00  0.00    -0.052 Br
ENDBRANCH   5   8
ENDBRANCH   3   5
BRANCH   1  15
HETATM   15  C7  UNL     1      21.498  -0.072  52.807  1.00  0.00     0.038 A 
HETATM   16  C2  UNL     1      21.279   0.504  51.565  1.00  0.00    -0.045 A 
HETATM   17  C1  UNL     1      22.346   1.102  50.715  1.00  0.00     0.049 C 
HETATM   18  C3  UNL     1      19.977   0.560  51.046  1.00  0.00     0.031 A 
HETATM   19  C4  UNL     1      18.943   0.038  51.784  1.00  0.00     0.034 A 
HETATM   20 CL1  UNL     1      17.334   0.118  51.116  1.00  0.00    -0.084 Cl
HETATM   21  C5  UNL     1      19.156  -0.534  53.019  1.00  0.00     0.025 A 
HETATM   22  C6  UNL     1      20.438  -0.584  53.520  1.00  0.00     0.019 A 
ENDBRANCH   1  15
TORSDOF 3
ENDMDL
MODEL 3
REMARK VINA RESULT:      -7.8      3.477      4.219
REMARK  3 active torsions:
REMARK  status: ('A' for Active; 'I' for Inactive)
REMARK    1  A    between atoms: C7_8  and  C8_9 
REMARK       I    between atoms: C8_9  and  N1_11 
REMARK    2  A    between atoms: N1_11  and  S1_12 
REMARK    3  A    between atoms: S1_12  and  C9_15 
ROOT
HETATM    1  C8  UNL     1      25.085   2.438  51.614  1.00  0.00     0.265 C 
HETATM    2  O1  UNL     1      24.543   2.714  52.758  1.00  0.00    -0.267 OA
HETATM    3  N1  UNL     1      25.940   1.328  51.789  1.00  0.00    -0.249 N 
HETATM    4  H7  UNL     1      26.359   1.099  50.841  1.00  0.00     0.182 HD
ENDROOT
BRANCH   3   5
HETATM    5  S1  UNL     1      25.901   0.860  53.440  1.00  0.00     0.245 S 
HETATM    6  O2  UNL     1      24.498   0.393  53.719  1.00  0.00    -0.204 OA
HETATM    7  O3  UNL     1      26.161   2.012  54.344  1.00  0.00    -0.204 OA
BRANCH   5   8
HETATM    8  C9  UNL     1      26.962  -0.518  53.763  1.00  0.00     0.196 C 
HETATM    9  C10 UNL     1      26.715  -1.607  52.725  1.00  0.00     0.034 C 
HETATM   10  C11 UNL     1      27.703  -2.468  52.617  1.00  0.00     0.083 C 
HETATM   11  N2  UNL     1      28.730  -2.373  53.389  1.00  0.00    -0.258 NA
HETATM   12  C12 UNL     1      29.323  -1.052  53.431  1.00  0.00     0.133 C 
HETATM   13  C13 UNL     1      28.367  -0.131  53.625  1.00  0.00     0.030 C 
HETATM   14 BR1  UNL     1      28.941   1.698  53.699  1.00  0.00    -0.052 Br
ENDBRANCH   5   8
ENDBRANCH   3   5
BRANCH   1  15
HETATM   15  C7  UNL     1      24.663   3.342  50.545  1.00  0.00     0.038 A 
HETATM   16  C2  UNL     1      23.472   2.945  49.958  1.00  0.00    -0.045 A 
HETATM   17  C1  UNL     1      22.721   1.713  50.328  1.00  0.00     0.049 C 
HETATM   18  C3  UNL     1      22.911   3.722  48.933  1.00  0.00     0.031 A 
HETATM   19  C4  UNL     1      23.559   4.865  48.533  1.00  0.00     0.034 A 
HETATM   20 CL1  UNL     1      22.840   5.815  47.259  1.00  0.00    -0.084 Cl
HETATM   21  C5  UNL     1      24.744   5.262  49.113  1.00  0.00     0.025 A 
HETATM   22  C6  UNL     1      25.287   4.492  50.118  1.00  0.00     0.019 A 
ENDBRANCH   1  15
TORSDOF 3
ENDMDL
MODEL 4
REMARK VINA RESULT:      -7.7      2.413      2.871
REMARK  3 active torsions:
REMARK  status: ('A' for Active; 'I' for Inactive)
REMARK    1  A    between atoms: C7_8  and  C8_9 
REMARK       I    between atoms: C8_9  and  N1_11 
REMARK    2  A    between atoms: N1_11  and  S1_12 
REMARK    3  A    between atoms: S1_12  and  C9_15 
ROOT
HETATM    1  C8  UNL     1      25.214   2.384  52.965  1.00  0.00     0.265 C 
HETATM    2  O1  UNL     1      25.922   2.068  51.927  1.00  0.00    -0.267 OA
HETATM    3  N1  UNL     1      25.976   2.103  54.120  1.00  0.00    -0.249 N 
HETATM    4  H7  UNL     1      25.393   2.387  54.960  1.00  0.00     0.182 HD
ENDROOT
BRANCH   3   5
HETATM    5  S1  UNL     1      27.484   1.444  53.635  1.00  0.00     0.245 S 
HETATM    6  O2  UNL     1      28.505   1.933  54.627  1.00  0.00    -0.204 OA
HETATM    7  O3  UNL     1      27.902   1.951  52.300  1.00  0.00    -0.204 OA
BRANCH   5   8
HETATM    8  C9  UNL     1      27.497  -0.323  53.732  1.00  0.00     0.196 C 
HETATM    9  C10 UNL     1      26.609  -0.900  52.636  1.00  0.00     0.034 C 
HETATM   10  C11 UNL     1      26.866  -2.159  52.357  1.00  0.00     0.083 C 
HETATM   11  N2  UNL     1      27.762  -2.800  53.026  1.00  0.00    -0.258 NA
HETATM   12  C12 UNL     1      29.037  -2.119  53.119  1.00  0.00     0.133 C 
HETATM   13  C13 UNL     1      28.844  -0.843  53.486  1.00  0.00     0.030 C 
HETATM   14 BR1  UNL     1      30.413   0.246  53.656  1.00  0.00    -0.052 Br
ENDBRANCH   5   8
ENDBRANCH   3   5
BRANCH   1  15
HETATM   15  C7  UNL     1      23.890   2.902  52.622  1.00  0.00     0.038 A 
HETATM   16  C2  UNL     1      22.925   1.906  52.597  1.00  0.00    -0.045 A 
HETATM   17  C1  UNL     1      23.198   0.463  52.840  1.00  0.00     0.049 C 
HETATM   18  C3  UNL     1      21.592   2.240  52.316  1.00  0.00     0.031 A 
HETATM   19  C4  UNL     1      21.272   3.554  52.069  1.00  0.00     0.034 A 
HETATM   20 CL1  UNL     1      19.607   3.943  51.723  1.00  0.00    -0.084 Cl
HETATM   21  C5  UNL     1      22.228   4.544  52.091  1.00  0.00     0.025 A 
HETATM   22  C6  UNL     1      23.534   4.207  52.369  1.00  0.00     0.019 A 
ENDBRANCH   1  15
TORSDOF 3
ENDMDL
MODEL 5
REMARK VINA RESULT:      -7.3      4.233      7.228
REMARK  3 active torsions:
REMARK  status: ('A' for Active; 'I' for Inactive)
REMARK    1  A    between atoms: C7_8  and  C8_9 
REMARK       I    between atoms: C8_9  and  N1_11 
REMARK    2  A    between atoms: N1_11  and  S1_12 
REMARK    3  A    between atoms: S1_12  and  C9_15 
ROOT
HETATM    1  C8  UNL     1      25.458   1.899  52.494  1.00  0.00     0.265 C 
HETATM    2  O1  UNL     1      24.484   1.910  53.348  1.00  0.00    -0.267 OA
HETATM    3  N1  UNL     1      25.337   3.041  51.673  1.00  0.00    -0.249 N 
HETATM    4  H7  UNL     1      26.152   3.031  50.995  1.00  0.00     0.182 HD
ENDROOT
BRANCH   3   5
HETATM    5  S1  UNL     1      23.940   3.916  52.154  1.00  0.00     0.245 S 
HETATM    6  O2  UNL     1      23.911   5.168  51.320  1.00  0.00    -0.204 OA
HETATM    7  O3  UNL     1      24.023   4.345  53.576  1.00  0.00    -0.204 OA
BRANCH   5   8
HETATM    8  C9  UNL     1      22.449   3.035  51.790  1.00  0.00     0.196 C 
HETATM    9  C10 UNL     1      21.256   3.795  52.359  1.00  0.00     0.034 C 
HETATM   10  C11 UNL     1      20.109   3.466  51.806  1.00  0.00     0.083 C 
HETATM   11  N2  UNL     1      20.064   2.540  50.912  1.00  0.00    -0.258 NA
HETATM   12  C12 UNL     1      21.020   2.704  49.836  1.00  0.00     0.133 C 
HETATM   13  C13 UNL     1      22.236   2.959  50.344  1.00  0.00     0.030 C 
HETATM   14 BR1  UNL     1      23.653   3.225  49.080  1.00  0.00    -0.052 Br
ENDBRANCH   5   8
ENDBRANCH   3   5
BRANCH   1  15
HETATM   15  C7  UNL     1      26.337   0.738  52.639  1.00  0.00     0.038 A 
HETATM   16  C2  UNL     1      27.574   1.077  53.163  1.00  0.00    -0.045 A 
HETATM   17  C1  UNL     1      27.995   2.465  53.499  1.00  0.00     0.049 C 
HETATM   18  C3  UNL     1      28.527   0.073  53.396  1.00  0.00     0.031 A 
HETATM   19  C4  UNL     1      28.208  -1.229  53.096  1.00  0.00     0.034 A 
HETATM   20 CL1  UNL     1      29.409  -2.459  53.395  1.00  0.00    -0.084 Cl
HETATM   21  C5  UNL     1      26.981  -1.568  52.573  1.00  0.00     0.025 A 
HETATM   22  C6  UNL     1      26.052  -0.576  52.348  1.00  0.00     0.019 A 
ENDBRANCH   1  15
TORSDOF 3
ENDMDL
MODEL 6
REMARK VINA RESULT:      -7.3      4.363      7.383
REMARK  3 active torsions:
REMARK  status: ('A' for Active; 'I' for Inactive)
REMARK    1  A    between atoms: C7_8  and  C8_9 
REMARK       I    between atoms: C8_9  and  N1_11 
REMARK    2  A    between atoms: N1_11  and  S1_12 
REMARK    3  A    between atoms: S1_12  and  C9_15 
ROOT
HETATM    1  C8  UNL     1      24.486   0.348  52.587  1.00  0.00     0.265 C 
HETATM    2  O1  UNL     1      23.624  -0.249  53.347  1.00  0.00    -0.267 OA
HETATM    3  N1  UNL     1      23.790   1.258  51.762  1.00  0.00    -0.249 N 
HETATM    4  H7  UNL     1      24.510   1.756  51.162  1.00  0.00     0.182 HD
ENDROOT
BRANCH   3   5
HETATM    5  S1  UNL     1      22.114   1.146  52.114  1.00  0.00     0.245 S 
HETATM    6  O2  UNL     1      21.998   1.037  53.610  1.00  0.00    -0.204 OA
HETATM    7  O3  UNL     1      21.513  -0.089  51.543  1.00  0.00    -0.204 OA
BRANCH   5   8
HETATM    8  C9  UNL     1      21.240   2.612  51.648  1.00  0.00     0.196 C 
HETATM    9  C10 UNL     1      21.967   3.835  52.195  1.00  0.00     0.034 C 
HETATM   10  C11 UNL     1      21.654   4.954  51.579  1.00  0.00     0.083 C 
HETATM   11  N2  UNL     1      20.767   4.953  50.645  1.00  0.00    -0.258 NA
HETATM   12  C12 UNL     1      20.982   3.952  49.621  1.00  0.00     0.133 C 
HETATM   13  C13 UNL     1      21.224   2.762  50.192  1.00  0.00     0.030 C 
HETATM   14 BR1  UNL     1      21.552   1.293  49.004  1.00  0.00    -0.052 Br
ENDBRANCH   5   8
ENDBRANCH   3   5
BRANCH   1  15
HETATM   15  C7  UNL     1      25.859  -0.105  52.809  1.00  0.00     0.038 A 
HETATM   16  C2  UNL     1      26.634   0.853  53.444  1.00  0.00    -0.045 A 
HETATM   17  C1  UNL     1      26.153   2.211  53.820  1.00  0.00     0.049 C 
HETATM   18  C3  UNL     1      27.970   0.565  53.760  1.00  0.00     0.031 A 
HETATM   19  C4  UNL     1      28.483  -0.666  53.430  1.00  0.00     0.034 A 
HETATM   20 CL1  UNL     1      30.146  -1.000  53.835  1.00  0.00    -0.084 Cl
HETATM   21  C5  UNL     1      27.716  -1.619  52.796  1.00  0.00     0.025 A 
HETATM   22  C6  UNL     1      26.405  -1.327  52.491  1.00  0.00     0.019 A 
ENDBRANCH   1  15
TORSDOF 3
ENDMDL
MODEL 7
REMARK VINA RESULT:      -7.2      4.303      7.370
REMARK  3 active torsions:
REMARK  status: ('A' for Active; 'I' for Inactive)
REMARK    1  A    between atoms: C7_8  and  C8_9 
REMARK       I    between atoms: C8_9  and  N1_11 
REMARK    2  A    between atoms: N1_11  and  S1_12 
REMARK    3  A    between atoms: S1_12  and  C9_15 
ROOT
HETATM    1  C8  UNL     1      25.630   2.740  52.633  1.00  0.00     0.265 C 
HETATM    2  O1  UNL     1      24.761   2.838  53.587  1.00  0.00    -0.267 OA
HETATM    3  N1  UNL     1      25.162   3.490  51.532  1.00  0.00    -0.249 N 
HETATM    4  H7  UNL     1      25.894   3.420  50.766  1.00  0.00     0.182 HD
ENDROOT
BRANCH   3   5
HETATM    5  S1  UNL     1      23.641   4.172  51.940  1.00  0.00     0.245 S 
HETATM    6  O2  UNL     1      23.350   5.223  50.904  1.00  0.00    -0.204 OA
HETATM    7  O3  UNL     1      23.684   4.863  53.257  1.00  0.00    -0.204 OA
BRANCH   5   8
HETATM    8  C9  UNL     1      22.333   2.985  51.832  1.00  0.00     0.196 C 
HETATM    9  C10 UNL     1      21.045   3.593  52.375  1.00  0.00     0.034 C 
HETATM   10  C11 UNL     1      19.958   2.974  51.971  1.00  0.00     0.083 C 
HETATM   11  N2  UNL     1      20.049   1.923  51.231  1.00  0.00    -0.258 NA
HETATM   12  C12 UNL     1      20.900   2.084  50.070  1.00  0.00     0.133 C 
HETATM   13  C13 UNL     1      22.067   2.637  50.435  1.00  0.00     0.030 C 
HETATM   14 BR1  UNL     1      23.340   2.951  49.037  1.00  0.00    -0.052 Br
ENDBRANCH   5   8
ENDBRANCH   3   5
BRANCH   1  15
HETATM   15  C7  UNL     1      26.776   1.900  52.982  1.00  0.00     0.038 A 
HETATM   16  C2  UNL     1      26.519   0.552  52.792  1.00  0.00    -0.045 A 
HETATM   17  C1  UNL     1      25.213  -0.000  52.334  1.00  0.00     0.049 C 
HETATM   18  C3  UNL     1      27.526  -0.390  53.050  1.00  0.00     0.031 A 
HETATM   19  C4  UNL     1      28.752   0.050  53.488  1.00  0.00     0.034 A 
HETATM   20 CL1  UNL     1      29.989  -1.139  53.801  1.00  0.00    -0.084 Cl
HETATM   21  C5  UNL     1      29.010   1.389  53.680  1.00  0.00     0.025 A 
HETATM   22  C6  UNL     1      28.015   2.306  53.423  1.00  0.00     0.019 A 
ENDBRANCH   1  15
TORSDOF 3
ENDMDL
MODEL 8
REMARK VINA RESULT:      -7.2      5.091      7.589
REMARK  3 active torsions:
REMARK  status: ('A' for Active; 'I' for Inactive)
REMARK    1  A    between atoms: C7_8  and  C8_9 
REMARK       I    between atoms: C8_9  and  N1_11 
REMARK    2  A    between atoms: N1_11  and  S1_12 
REMARK    3  A    between atoms: S1_12  and  C9_15 
ROOT
HETATM    1  C8  UNL     1      25.655   2.702  52.708  1.00  0.00     0.265 C 
HETATM    2  O1  UNL     1      24.754   2.721  53.639  1.00  0.00    -0.267 OA
HETATM    3  N1  UNL     1      25.204   3.510  51.642  1.00  0.00    -0.249 N 
HETATM    4  H7  UNL     1      25.961   3.503  50.898  1.00  0.00     0.182 HD
ENDROOT
BRANCH   3   5
HETATM    5  S1  UNL     1      23.655   4.132  52.042  1.00  0.00     0.245 S 
HETATM    6  O2  UNL     1      23.796   4.800  53.383  1.00  0.00    -0.204 OA
HETATM    7  O3  UNL     1      22.652   3.045  52.204  1.00  0.00    -0.204 OA
BRANCH   5   8
HETATM    8  C9  UNL     1      23.132   5.385  50.908  1.00  0.00     0.196 C 
HETATM    9  C10 UNL     1      24.057   6.591  51.018  1.00  0.00     0.034 C 
HETATM   10  C11 UNL     1      24.020   7.382  49.968  1.00  0.00     0.083 C 
HETATM   11  N2  UNL     1      23.212   7.129  48.996  1.00  0.00    -0.258 NA
HETATM   12  C12 UNL     1      23.283   5.770  48.500  1.00  0.00     0.133 C 
HETATM   13  C13 UNL     1      23.239   4.909  49.528  1.00  0.00     0.030 C 
HETATM   14 BR1  UNL     1      23.334   3.045  49.088  1.00  0.00    -0.052 Br
ENDBRANCH   5   8
ENDBRANCH   3   5
BRANCH   1  15
HETATM   15  C7  UNL     1      26.809   1.866  53.042  1.00  0.00     0.038 A 
HETATM   16  C2  UNL     1      26.564   0.519  52.826  1.00  0.00    -0.045 A 
HETATM   17  C1  UNL     1      25.264  -0.036  52.358  1.00  0.00     0.049 C 
HETATM   18  C3  UNL     1      27.580  -0.417  53.067  1.00  0.00     0.031 A 
HETATM   19  C4  UNL     1      28.802   0.026  53.513  1.00  0.00     0.034 A 
HETATM   20 CL1  UNL     1      30.050  -1.158  53.804  1.00  0.00    -0.084 Cl
HETATM   21  C5  UNL     1      29.048   1.363  53.730  1.00  0.00     0.025 A 
HETATM   22  C6  UNL     1      28.043   2.275  53.491  1.00  0.00     0.019 A 
ENDBRANCH   1  15
TORSDOF 3
ENDMDL
MODEL 9
REMARK VINA RESULT:      -7.1      4.334      7.379
REMARK  3 active torsions:
REMARK  status: ('A' for Active; 'I' for Inactive)
REMARK    1  A    between atoms: C7_8  and  C8_9 
REMARK       I    between atoms: C8_9  and  N1_11 
REMARK    2  A    between atoms: N1_11  and  S1_12 
REMARK    3  A    between atoms: S1_12  and  C9_15 
ROOT
HETATM    1  C8  UNL     1      25.510   2.157  52.272  1.00  0.00     0.265 C 
HETATM    2  O1  UNL     1      24.873   2.780  53.213  1.00  0.00    -0.267 OA
HETATM    3  N1  UNL     1      24.792   2.327  51.067  1.00  0.00    -0.249 N 
HETATM    4  H7  UNL     1      25.335   1.832  50.302  1.00  0.00     0.182 HD
ENDROOT
BRANCH   3   5
HETATM    5  S1  UNL     1      23.386   3.257  51.394  1.00  0.00     0.245 S 
HETATM    6  O2  UNL     1      23.828   4.694  51.458  1.00  0.00    -0.204 OA
HETATM    7  O3  UNL     1      22.803   2.924  52.721  1.00  0.00    -0.204 OA
BRANCH   5   8
HETATM    8  C9  UNL     1      22.205   3.154  50.081  1.00  0.00     0.196 C 
HETATM    9  C10 UNL     1      22.897   3.420  48.749  1.00  0.00     0.034 C 
HETATM   10  C11 UNL     1      22.230   2.972  47.709  1.00  0.00     0.083 C 
HETATM   11  N2  UNL     1      21.078   2.418  47.869  1.00  0.00    -0.258 NA
HETATM   12  C12 UNL     1      21.054   1.371  48.869  1.00  0.00     0.133 C 
HETATM   13  C13 UNL     1      21.650   1.802  49.992  1.00  0.00     0.030 C 
HETATM   14 BR1  UNL     1      21.739   0.556  51.447  1.00  0.00    -0.052 Br
ENDBRANCH   5   8
ENDBRANCH   3   5
BRANCH   1  15
HETATM   15  C7  UNL     1      26.722   1.487  52.743  1.00  0.00     0.038 A 
HETATM   16  C2  UNL     1      26.542   0.122  52.898  1.00  0.00    -0.045 A 
HETATM   17  C1  UNL     1      25.255  -0.591  52.665  1.00  0.00     0.049 C 
HETATM   18  C3  UNL     1      27.619  -0.676  53.314  1.00  0.00     0.031 A 
HETATM   19  C4  UNL     1      28.833  -0.081  53.559  1.00  0.00     0.034 A 
HETATM   20 CL1  UNL     1      30.156  -1.094  54.073  1.00  0.00    -0.084 Cl
HETATM   21  C5  UNL     1      29.014   1.276  53.408  1.00  0.00     0.025 A 
HETATM   22  C6  UNL     1      27.950   2.051  52.999  1.00  0.00     0.019 A 
ENDBRANCH   1  15
TORSDOF 3
ENDMDL
