MODEL 1
REMARK VINA RESULT:      -7.5      0.000      0.000
REMARK  9 active torsions:
REMARK  status: ('A' for Active; 'I' for Inactive)
REMARK    1  A    between atoms: C2_2  and  C3_3 
REMARK    2  A    between atoms: C2_2  and  C6_7 
REMARK    3  A    between atoms: C3_3  and  N1_4 
REMARK    4  A    between atoms: C6_7  and  C7_9 
REMARK    5  A    between atoms: C7_9  and  N2_10 
REMARK    6  A    between atoms: C8_11  and  O2_12 
REMARK    7  A    between atoms: O2_12  and  C9_13 
REMARK    8  A    between atoms: C16_22  and  N5_23 
REMARK    9  A    between atoms: N5_23  and  C17_24 
ROOT
HETATM    1  C7  UNL     1      25.869   0.417  52.828  1.00  0.00     0.298 A 
HETATM    2  C8  UNL     1      27.098   0.555  53.650  1.00  0.00     0.100 A 
HETATM    3  C11 UNL     1      26.934   0.083  54.876  1.00  0.00     0.068 A 
HETATM    4  C12 UNL     1      25.575  -0.436  55.039  1.00  0.00     0.071 A 
HETATM    5  N3  UNL     1      24.849  -1.013  56.035  1.00  0.00    -0.259 NA
HETATM    6  C13 UNL     1      23.548  -1.370  55.791  1.00  0.00     0.142 A 
HETATM    7  C14 UNL     1      22.928  -1.175  54.575  1.00  0.00     0.089 A 
HETATM    8  C15 UNL     1      21.548  -1.572  54.367  1.00  0.00     0.103 C 
HETATM    9  N4  UNL     1      20.432  -1.916  54.199  1.00  0.00    -0.191 NA
HETATM   10  C16 UNL     1      23.664  -0.589  53.567  1.00  0.00     0.067 A 
HETATM   11  C23 UNL     1      24.959  -0.238  53.823  1.00  0.00     0.052 A 
ENDROOT
BRANCH  10  12
HETATM   12  N5  UNL     1      22.977  -0.418  52.324  1.00  0.00    -0.354 N 
HETATM   13  H20 UNL     1      23.251  -0.927  51.459  1.00  0.00     0.166 HD
BRANCH  12  14
HETATM   14  C17 UNL     1      21.851   0.487  52.239  1.00  0.00     0.034 A 
HETATM   15  C18 UNL     1      21.709   1.565  53.106  1.00  0.00     0.032 A 
HETATM   16  C19 UNL     1      20.604   2.391  52.968  1.00  0.00     0.046 A 
HETATM   17  C20 UNL     1      19.661   2.165  52.000  1.00  0.00     0.138 A 
HETATM   18  F1  UNL     1      18.565   2.957  51.832  1.00  0.00    -0.204 F 
HETATM   19  C21 UNL     1      19.782   1.108  51.134  1.00  0.00     0.074 A 
HETATM   20 CL1  UNL     1      18.639   0.705  49.841  1.00  0.00    -0.081 Cl
HETATM   21  C22 UNL     1      20.881   0.289  51.275  1.00  0.00     0.056 A 
ENDBRANCH  12  14
ENDBRANCH  10  12
BRANCH   1  22
HETATM   22  C6  UNL     1      25.400   1.690  52.387  1.00  0.00     0.203 C 
HETATM   23  O1  UNL     1      25.990   1.767  51.243  1.00  0.00    -0.289 OA
BRANCH  22  24
HETATM   24  C2  UNL     1      24.739   2.964  52.293  1.00  0.00    -0.013 C 
HETATM   25  C1  UNL     1      24.233   3.660  53.325  1.00  0.00     0.044 C 
BRANCH  24  26
HETATM   26  C3  UNL     1      24.374   3.942  51.257  1.00  0.00     0.154 C 
BRANCH  26  27
HETATM   27  N1  UNL     1      23.132   3.663  50.638  1.00  0.00    -0.417 N 
HETATM   28  C4  UNL     1      23.136   2.719  49.571  1.00  0.00     0.142 C 
HETATM   29  C5  UNL     1      22.180   4.713  50.563  1.00  0.00     0.142 C 
ENDBRANCH  26  27
ENDBRANCH  24  26
ENDBRANCH  22  24
ENDBRANCH   1  22
BRANCH   1  30
HETATM   30  N2  UNL     1      26.216  -0.511  51.765  1.00  0.00     0.107 N 
HETATM   31  H11 UNL     1      25.816  -1.456  51.914  1.00  0.00     0.315 HD
HETATM   32  H12 UNL     1      26.072  -0.113  50.810  1.00  0.00     0.315 HD
ENDBRANCH   1  30
BRANCH   2  33
HETATM   33  O2  UNL     1      28.356   1.071  53.383  1.00  0.00    -0.352 OA
BRANCH  33  34
HETATM   34  C9  UNL     1      29.509   0.685  54.076  1.00  0.00     0.171 C 
HETATM   35  C10 UNL     1      29.966  -0.620  53.435  1.00  0.00     0.034 C 
ENDBRANCH  33  34
ENDBRANCH   2  33
TORSDOF 9
ENDMDL
MODEL 2
REMARK VINA RESULT:      -7.4      3.568      6.490
REMARK  9 active torsions:
REMARK  status: ('A' for Active; 'I' for Inactive)
REMARK    1  A    between atoms: C2_2  and  C3_3 
REMARK    2  A    between atoms: C2_2  and  C6_7 
REMARK    3  A    between atoms: C3_3  and  N1_4 
REMARK    4  A    between atoms: C6_7  and  C7_9 
REMARK    5  A    between atoms: C7_9  and  N2_10 
REMARK    6  A    between atoms: C8_11  and  O2_12 
REMARK    7  A    between atoms: O2_12  and  C9_13 
REMARK    8  A    between atoms: C16_22  and  N5_23 
REMARK    9  A    between atoms: N5_23  and  C17_24 
ROOT
HETATM    1  C7  UNL     1      21.260   2.356  51.438  1.00  0.00     0.298 A 
HETATM    2  C8  UNL     1      20.242   1.295  51.222  1.00  0.00     0.100 A 
HETATM    3  C11 UNL     1      20.627   0.127  51.710  1.00  0.00     0.068 A 
HETATM    4  C12 UNL     1      21.953   0.248  52.319  1.00  0.00     0.071 A 
HETATM    5  N3  UNL     1      22.832  -0.580  52.948  1.00  0.00    -0.259 NA
HETATM    6  C13 UNL     1      24.026  -0.073  53.390  1.00  0.00     0.142 A 
HETATM    7  C14 UNL     1      24.390   1.248  53.230  1.00  0.00     0.089 A 
HETATM    8  C15 UNL     1      25.666   1.737  53.718  1.00  0.00     0.103 C 
HETATM    9  N4  UNL     1      26.697   2.132  54.134  1.00  0.00    -0.191 NA
HETATM   10  C16 UNL     1      23.500   2.085  52.591  1.00  0.00     0.067 A 
HETATM   11  C23 UNL     1      22.313   1.567  52.157  1.00  0.00     0.052 A 
ENDROOT
BRANCH  10  12
HETATM   12  N5  UNL     1      23.921   3.446  52.460  1.00  0.00    -0.354 N 
HETATM   13  H20 UNL     1      23.655   4.182  53.146  1.00  0.00     0.166 HD
BRANCH  12  14
HETATM   14  C17 UNL     1      24.752   3.840  51.344  1.00  0.00     0.034 A 
HETATM   15  C18 UNL     1      25.629   2.952  50.731  1.00  0.00     0.032 A 
HETATM   16  C19 UNL     1      26.397   3.400  49.667  1.00  0.00     0.046 A 
HETATM   17  C20 UNL     1      26.305   4.689  49.214  1.00  0.00     0.138 A 
HETATM   18  F1  UNL     1      27.040   5.163  48.168  1.00  0.00    -0.204 F 
HETATM   19  C21 UNL     1      25.446   5.582  49.803  1.00  0.00     0.074 A 
HETATM   20 CL1  UNL     1      25.230   7.272  49.315  1.00  0.00    -0.081 Cl
HETATM   21  C22 UNL     1      24.686   5.134  50.861  1.00  0.00     0.056 A 
ENDBRANCH  12  14
ENDBRANCH  10  12
BRANCH   1  22
HETATM   22  C6  UNL     1      21.710   2.896  50.196  1.00  0.00     0.203 C 
HETATM   23  O1  UNL     1      21.418   4.140  50.370  1.00  0.00    -0.289 OA
BRANCH  22  24
HETATM   24  C2  UNL     1      22.258   3.061  48.876  1.00  0.00    -0.013 C 
HETATM   25  C1  UNL     1      22.995   2.152  48.218  1.00  0.00     0.044 C 
BRANCH  24  26
HETATM   26  C3  UNL     1      22.275   4.073  47.810  1.00  0.00     0.154 C 
BRANCH  26  27
HETATM   27  N1  UNL     1      21.387   3.779  46.747  1.00  0.00    -0.417 N 
HETATM   28  C4  UNL     1      21.813   4.121  45.431  1.00  0.00     0.142 C 
HETATM   29  C5  UNL     1      19.994   3.853  47.010  1.00  0.00     0.142 C 
ENDBRANCH  26  27
ENDBRANCH  24  26
ENDBRANCH  22  24
ENDBRANCH   1  22
BRANCH   1  30
HETATM   30  N2  UNL     1      20.637   3.314  52.335  1.00  0.00     0.107 N 
HETATM   31  H11 UNL     1      19.630   3.454  52.133  1.00  0.00     0.315 HD
HETATM   32  H12 UNL     1      20.871   3.147  53.340  1.00  0.00     0.315 HD
ENDBRANCH   1  30
BRANCH   2  33
HETATM   33  O2  UNL     1      18.994   1.299  50.622  1.00  0.00    -0.352 OA
BRANCH  33  34
HETATM   34  C9  UNL     1      17.847   0.773  51.229  1.00  0.00     0.171 C 
HETATM   35  C10 UNL     1      17.172  -0.094  50.173  1.00  0.00     0.034 C 
ENDBRANCH  33  34
ENDBRANCH   2  33
TORSDOF 9
ENDMDL
MODEL 3
REMARK VINA RESULT:      -7.2      2.709      5.804
REMARK  9 active torsions:
REMARK  status: ('A' for Active; 'I' for Inactive)
REMARK    1  A    between atoms: C2_2  and  C3_3 
REMARK    2  A    between atoms: C2_2  and  C6_7 
REMARK    3  A    between atoms: C3_3  and  N1_4 
REMARK    4  A    between atoms: C6_7  and  C7_9 
REMARK    5  A    between atoms: C7_9  and  N2_10 
REMARK    6  A    between atoms: C8_11  and  O2_12 
REMARK    7  A    between atoms: O2_12  and  C9_13 
REMARK    8  A    between atoms: C16_22  and  N5_23 
REMARK    9  A    between atoms: N5_23  and  C17_24 
ROOT
HETATM    1  C7  UNL     1      24.454   2.924  51.983  1.00  0.00     0.298 A 
HETATM    2  C8  UNL     1      25.275   1.705  52.197  1.00  0.00     0.100 A 
HETATM    3  C11 UNL     1      26.331   1.668  51.402  1.00  0.00     0.068 A 
HETATM    4  C12 UNL     1      26.363   2.858  50.550  1.00  0.00     0.071 A 
HETATM    5  N3  UNL     1      27.167   3.352  49.569  1.00  0.00    -0.259 NA
HETATM    6  C13 UNL     1      26.845   4.547  48.981  1.00  0.00     0.142 A 
HETATM    7  C14 UNL     1      25.737   5.287  49.335  1.00  0.00     0.089 A 
HETATM    8  C15 UNL     1      25.440   6.549  48.684  1.00  0.00     0.103 C 
HETATM    9  N4  UNL     1      25.216   7.584  48.164  1.00  0.00    -0.191 NA
HETATM   10  C16 UNL     1      24.921   4.785  50.328  1.00  0.00     0.067 A 
HETATM   11  C23 UNL     1      25.254   3.593  50.905  1.00  0.00     0.052 A 
ENDROOT
BRANCH  10  12
HETATM   12  N5  UNL     1      23.791   5.595  50.663  1.00  0.00    -0.354 N 
HETATM   13  H20 UNL     1      23.821   6.313  51.416  1.00  0.00     0.166 HD
BRANCH  12  14
HETATM   14  C17 UNL     1      22.547   5.433  49.943  1.00  0.00     0.034 A 
HETATM   15  C18 UNL     1      21.334   5.870  50.463  1.00  0.00     0.032 A 
HETATM   16  C19 UNL     1      20.180   5.681  49.718  1.00  0.00     0.046 A 
HETATM   17  C20 UNL     1      20.216   5.076  48.490  1.00  0.00     0.138 A 
HETATM   18  F1  UNL     1      19.104   4.876  47.728  1.00  0.00    -0.204 F 
HETATM   19  C21 UNL     1      21.401   4.636  47.957  1.00  0.00     0.074 A 
HETATM   20 CL1  UNL     1      21.587   3.842  46.383  1.00  0.00    -0.081 Cl
HETATM   21  C22 UNL     1      22.546   4.826  48.700  1.00  0.00     0.056 A 
ENDBRANCH  12  14
ENDBRANCH  10  12
BRANCH   1  22
HETATM   22  C6  UNL     1      23.129   2.587  51.575  1.00  0.00     0.203 C 
HETATM   23  O1  UNL     1      22.447   3.238  52.455  1.00  0.00    -0.289 OA
BRANCH  22  24
HETATM   24  C2  UNL     1      21.990   2.041  50.887  1.00  0.00    -0.013 C 
HETATM   25  C1  UNL     1      22.029   1.358  49.732  1.00  0.00     0.044 C 
BRANCH  24  26
HETATM   26  C3  UNL     1      20.533   1.957  51.064  1.00  0.00     0.154 C 
BRANCH  26  27
HETATM   27  N1  UNL     1      20.107   0.722  51.610  1.00  0.00    -0.417 N 
HETATM   28  C4  UNL     1      18.835   0.232  51.192  1.00  0.00     0.142 C 
HETATM   29  C5  UNL     1      20.512   0.410  52.933  1.00  0.00     0.142 C 
ENDBRANCH  26  27
ENDBRANCH  24  26
ENDBRANCH  22  24
ENDBRANCH   1  22
BRANCH   1  30
HETATM   30  N2  UNL     1      24.543   3.674  53.224  1.00  0.00     0.107 N 
HETATM   31  H11 UNL     1      24.884   4.643  53.082  1.00  0.00     0.315 HD
HETATM   32  H12 UNL     1      23.687   3.587  53.817  1.00  0.00     0.315 HD
ENDBRANCH   1  30
BRANCH   2  33
HETATM   33  O2  UNL     1      25.146   0.624  53.054  1.00  0.00    -0.352 OA
BRANCH  33  34
HETATM   34  C9  UNL     1      26.233  -0.142  53.494  1.00  0.00     0.171 C 
HETATM   35  C10 UNL     1      26.446   0.232  54.956  1.00  0.00     0.034 C 
ENDBRANCH  33  34
ENDBRANCH   2  33
TORSDOF 9
ENDMDL
MODEL 4
REMARK VINA RESULT:      -7.1      3.789      6.780
REMARK  9 active torsions:
REMARK  status: ('A' for Active; 'I' for Inactive)
REMARK    1  A    between atoms: C2_2  and  C3_3 
REMARK    2  A    between atoms: C2_2  and  C6_7 
REMARK    3  A    between atoms: C3_3  and  N1_4 
REMARK    4  A    between atoms: C6_7  and  C7_9 
REMARK    5  A    between atoms: C7_9  and  N2_10 
REMARK    6  A    between atoms: C8_11  and  O2_12 
REMARK    7  A    between atoms: O2_12  and  C9_13 
REMARK    8  A    between atoms: C16_22  and  N5_23 
REMARK    9  A    between atoms: N5_23  and  C17_24 
ROOT
HETATM    1  C7  UNL     1      23.852   3.996  51.876  1.00  0.00     0.298 A 
HETATM    2  C8  UNL     1      24.093   2.585  52.274  1.00  0.00     0.100 A 
HETATM    3  C11 UNL     1      25.116   2.052  51.627  1.00  0.00     0.068 A 
HETATM    4  C12 UNL     1      25.700   3.033  50.710  1.00  0.00     0.071 A 
HETATM    5  N3  UNL     1      26.722   3.062  49.811  1.00  0.00    -0.259 NA
HETATM    6  C13 UNL     1      26.960   4.215  49.110  1.00  0.00     0.142 A 
HETATM    7  C14 UNL     1      26.212   5.362  49.267  1.00  0.00     0.089 A 
HETATM    8  C15 UNL     1      26.505   6.559  48.502  1.00  0.00     0.103 C 
HETATM    9  N4  UNL     1      26.763   7.534  47.890  1.00  0.00    -0.191 NA
HETATM   10  C16 UNL     1      25.175   5.331  50.176  1.00  0.00     0.067 A 
HETATM   11  C23 UNL     1      24.948   4.176  50.869  1.00  0.00     0.052 A 
ENDROOT
BRANCH  10  12
HETATM   12  N5  UNL     1      24.436   6.549  50.308  1.00  0.00    -0.354 N 
HETATM   13  H20 UNL     1      24.688   7.283  51.001  1.00  0.00     0.166 HD
BRANCH  12  14
HETATM   14  C17 UNL     1      23.293   6.796  49.457  1.00  0.00     0.034 A 
HETATM   15  C18 UNL     1      23.124   6.138  48.244  1.00  0.00     0.032 A 
HETATM   16  C19 UNL     1      22.005   6.426  47.478  1.00  0.00     0.046 A 
HETATM   17  C20 UNL     1      21.072   7.339  47.894  1.00  0.00     0.138 A 
HETATM   18  F1  UNL     1      19.958   7.644  47.170  1.00  0.00    -0.204 F 
HETATM   19  C21 UNL     1      21.219   8.000  49.087  1.00  0.00     0.074 A 
HETATM   20 CL1  UNL     1      20.089   9.199  49.741  1.00  0.00    -0.081 Cl
HETATM   21  C22 UNL     1      22.332   7.712  49.845  1.00  0.00     0.056 A 
ENDBRANCH  12  14
ENDBRANCH  10  12
BRANCH   1  22
HETATM   22  C6  UNL     1      22.546   4.157  51.322  1.00  0.00     0.203 C 
HETATM   23  O1  UNL     1      22.079   5.069  52.105  1.00  0.00    -0.289 OA
BRANCH  22  24
HETATM   24  C2  UNL     1      21.361   4.038  50.516  1.00  0.00    -0.013 C 
HETATM   25  C1  UNL     1      20.226   4.735  50.689  1.00  0.00     0.044 C 
BRANCH  24  26
HETATM   26  C3  UNL     1      20.897   3.277  49.347  1.00  0.00     0.154 C 
BRANCH  26  27
HETATM   27  N1  UNL     1      21.757   2.208  48.999  1.00  0.00    -0.417 N 
HETATM   28  C4  UNL     1      22.665   2.429  47.923  1.00  0.00     0.142 C 
HETATM   29  C5  UNL     1      21.269   0.886  49.166  1.00  0.00     0.142 C 
ENDBRANCH  26  27
ENDBRANCH  24  26
ENDBRANCH  22  24
ENDBRANCH   1  22
BRANCH   1  30
HETATM   30  N2  UNL     1      24.116   4.786  53.066  1.00  0.00     0.107 N 
HETATM   31  H11 UNL     1      24.617   5.669  52.856  1.00  0.00     0.315 HD
HETATM   32  H12 UNL     1      23.281   4.885  53.686  1.00  0.00     0.315 HD
ENDBRANCH   1  30
BRANCH   2  33
HETATM   33  O2  UNL     1      23.465   1.743  53.177  1.00  0.00    -0.352 OA
BRANCH  33  34
HETATM   34  C9  UNL     1      22.660   0.665  52.789  1.00  0.00     0.171 C 
HETATM   35  C10 UNL     1      21.219   1.138  52.949  1.00  0.00     0.034 C 
ENDBRANCH  33  34
ENDBRANCH   2  33
TORSDOF 9
ENDMDL
MODEL 5
REMARK VINA RESULT:      -6.9      2.170      5.315
REMARK  9 active torsions:
REMARK  status: ('A' for Active; 'I' for Inactive)
REMARK    1  A    between atoms: C2_2  and  C3_3 
REMARK    2  A    between atoms: C2_2  and  C6_7 
REMARK    3  A    between atoms: C3_3  and  N1_4 
REMARK    4  A    between atoms: C6_7  and  C7_9 
REMARK    5  A    between atoms: C7_9  and  N2_10 
REMARK    6  A    between atoms: C8_11  and  O2_12 
REMARK    7  A    between atoms: O2_12  and  C9_13 
REMARK    8  A    between atoms: C16_22  and  N5_23 
REMARK    9  A    between atoms: N5_23  and  C17_24 
ROOT
HETATM    1  C7  UNL     1      24.805   2.643  52.563  1.00  0.00     0.298 A 
HETATM    2  C8  UNL     1      26.057   1.902  52.864  1.00  0.00     0.100 A 
HETATM    3  C11 UNL     1      26.992   2.112  51.953  1.00  0.00     0.068 A 
HETATM    4  C12 UNL     1      26.495   3.023  50.920  1.00  0.00     0.071 A 
HETATM    5  N3  UNL     1      26.977   3.577  49.773  1.00  0.00    -0.259 NA
HETATM    6  C13 UNL     1      26.169   4.412  49.046  1.00  0.00     0.142 A 
HETATM    7  C14 UNL     1      24.879   4.726  49.417  1.00  0.00     0.089 A 
HETATM    8  C15 UNL     1      24.064   5.617  48.613  1.00  0.00     0.103 C 
HETATM    9  N4  UNL     1      23.415   6.359  47.965  1.00  0.00    -0.191 NA
HETATM   10  C16 UNL     1      24.391   4.163  50.578  1.00  0.00     0.067 A 
HETATM   11  C23 UNL     1      25.206   3.333  51.294  1.00  0.00     0.052 A 
ENDROOT
BRANCH  10  12
HETATM   12  N5  UNL     1      23.052   4.528  50.923  1.00  0.00    -0.354 N 
HETATM   13  H20 UNL     1      22.835   5.199  51.689  1.00  0.00     0.166 HD
BRANCH  12  14
HETATM   14  C17 UNL     1      21.938   3.961  50.194  1.00  0.00     0.034 A 
HETATM   15  C18 UNL     1      22.093   2.867  49.351  1.00  0.00     0.032 A 
HETATM   16  C19 UNL     1      20.981   2.377  48.682  1.00  0.00     0.046 A 
HETATM   17  C20 UNL     1      19.746   2.948  48.839  1.00  0.00     0.138 A 
HETATM   18  F1  UNL     1      18.631   2.491  48.203  1.00  0.00    -0.204 F 
HETATM   19  C21 UNL     1      19.570   4.027  49.667  1.00  0.00     0.074 A 
HETATM   20 CL1  UNL     1      18.031   4.856  49.960  1.00  0.00    -0.081 Cl
HETATM   21  C22 UNL     1      20.677   4.512  50.329  1.00  0.00     0.056 A 
ENDBRANCH  12  14
ENDBRANCH  10  12
BRANCH   1  22
HETATM   22  C6  UNL     1      23.705   1.749  52.396  1.00  0.00     0.203 C 
HETATM   23  O1  UNL     1      24.127   1.055  51.394  1.00  0.00    -0.289 OA
BRANCH  22  24
HETATM   24  C2  UNL     1      22.454   1.054  52.535  1.00  0.00    -0.013 C 
HETATM   25  C1  UNL     1      21.245   1.631  52.618  1.00  0.00     0.044 C 
BRANCH  24  26
HETATM   26  C3  UNL     1      21.968  -0.331  52.622  1.00  0.00     0.154 C 
BRANCH  26  27
HETATM   27  N1  UNL     1      21.877  -0.808  53.952  1.00  0.00    -0.417 N 
HETATM   28  C4  UNL     1      23.101  -1.047  54.641  1.00  0.00     0.142 C 
HETATM   29  C5  UNL     1      20.782  -1.650  54.279  1.00  0.00     0.142 C 
ENDBRANCH  26  27
ENDBRANCH  24  26
ENDBRANCH  22  24
ENDBRANCH   1  22
BRANCH   1  30
HETATM   30  N2  UNL     1      24.655   3.605  53.642  1.00  0.00     0.107 N 
HETATM   31  H11 UNL     1      25.441   3.572  54.318  1.00  0.00     0.315 HD
HETATM   32  H12 UNL     1      24.397   4.560  53.306  1.00  0.00     0.315 HD
ENDBRANCH   1  30
BRANCH   2  33
HETATM   33  O2  UNL     1      26.421   1.052  53.896  1.00  0.00    -0.352 OA
BRANCH  33  34
HETATM   34  C9  UNL     1      27.280  -0.039  53.725  1.00  0.00     0.171 C 
HETATM   35  C10 UNL     1      26.441  -1.138  53.084  1.00  0.00     0.034 C 
ENDBRANCH  33  34
ENDBRANCH   2  33
TORSDOF 9
ENDMDL
MODEL 6
REMARK VINA RESULT:      -6.7     10.235     13.051
REMARK  9 active torsions:
REMARK  status: ('A' for Active; 'I' for Inactive)
REMARK    1  A    between atoms: C2_2  and  C3_3 
REMARK    2  A    between atoms: C2_2  and  C6_7 
REMARK    3  A    between atoms: C3_3  and  N1_4 
REMARK    4  A    between atoms: C6_7  and  C7_9 
REMARK    5  A    between atoms: C7_9  and  N2_10 
REMARK    6  A    between atoms: C8_11  and  O2_12 
REMARK    7  A    between atoms: O2_12  and  C9_13 
REMARK    8  A    between atoms: C16_22  and  N5_23 
REMARK    9  A    between atoms: N5_23  and  C17_24 
ROOT
HETATM    1  C7  UNL     1      29.693   9.658  48.954  1.00  0.00     0.298 A 
HETATM    2  C8  UNL     1      28.263  10.054  48.999  1.00  0.00     0.100 A 
HETATM    3  C11 UNL     1      27.454   9.027  48.800  1.00  0.00     0.068 A 
HETATM    4  C12 UNL     1      28.232   7.803  48.597  1.00  0.00     0.071 A 
HETATM    5  N3  UNL     1      27.968   6.491  48.349  1.00  0.00    -0.259 NA
HETATM    6  C13 UNL     1      29.012   5.615  48.209  1.00  0.00     0.142 A 
HETATM    7  C14 UNL     1      30.334   5.995  48.308  1.00  0.00     0.089 A 
HETATM    8  C15 UNL     1      31.405   5.029  48.154  1.00  0.00     0.103 C 
HETATM    9  N4  UNL     1      32.270   4.233  48.047  1.00  0.00    -0.191 NA
HETATM   10  C16 UNL     1      30.601   7.325  48.557  1.00  0.00     0.067 A 
HETATM   11  C23 UNL     1      29.551   8.188  48.694  1.00  0.00     0.052 A 
ENDROOT
BRANCH  10  12
HETATM   12  N5  UNL     1      31.987   7.665  48.659  1.00  0.00    -0.354 N 
HETATM   13  H20 UNL     1      32.482   7.726  49.573  1.00  0.00     0.166 HD
BRANCH  12  14
HETATM   14  C17 UNL     1      32.754   7.938  47.463  1.00  0.00     0.034 A 
HETATM   15  C18 UNL     1      33.982   8.587  47.510  1.00  0.00     0.032 A 
HETATM   16  C19 UNL     1      34.662   8.817  46.324  1.00  0.00     0.046 A 
HETATM   17  C20 UNL     1      34.148   8.417  45.119  1.00  0.00     0.138 A 
HETATM   18  F1  UNL     1      34.790   8.621  43.934  1.00  0.00    -0.204 F 
HETATM   19  C21 UNL     1      32.939   7.774  45.049  1.00  0.00     0.074 A 
HETATM   20 CL1  UNL     1      32.164   7.204  43.560  1.00  0.00    -0.081 Cl
HETATM   21  C22 UNL     1      32.266   7.548  46.230  1.00  0.00     0.056 A 
ENDBRANCH  12  14
ENDBRANCH  10  12
BRANCH   1  22
HETATM   22  C6  UNL     1      30.386  10.349  47.914  1.00  0.00     0.203 C 
HETATM   23  O1  UNL     1      31.402  10.793  48.574  1.00  0.00    -0.289 OA
BRANCH  22  24
HETATM   24  C2  UNL     1      30.776  10.916  46.651  1.00  0.00    -0.013 C 
HETATM   25  C1  UNL     1      31.994  11.396  46.354  1.00  0.00     0.044 C 
BRANCH  24  26
HETATM   26  C3  UNL     1      30.180  11.184  45.334  1.00  0.00     0.154 C 
BRANCH  26  27
HETATM   27  N1  UNL     1      30.075  10.028  44.523  1.00  0.00    -0.417 N 
HETATM   28  C4  UNL     1      30.314  10.190  43.128  1.00  0.00     0.142 C 
HETATM   29  C5  UNL     1      29.130   9.039  44.901  1.00  0.00     0.142 C 
ENDBRANCH  26  27
ENDBRANCH  24  26
ENDBRANCH  22  24
ENDBRANCH   1  22
BRANCH   1  30
HETATM   30  N2  UNL     1      30.204   9.894  50.294  1.00  0.00     0.107 N 
HETATM   31  H11 UNL     1      29.917  10.815  50.673  1.00  0.00     0.315 HD
HETATM   32  H12 UNL     1      30.058   9.082  50.936  1.00  0.00     0.315 HD
ENDBRANCH   1  30
BRANCH   2  33
HETATM   33  O2  UNL     1      27.630  11.269  49.206  1.00  0.00    -0.352 OA
BRANCH  33  34
HETATM   34  C9  UNL     1      27.212  12.105  48.165  1.00  0.00     0.171 C 
HETATM   35  C10 UNL     1      27.778  13.485  48.480  1.00  0.00     0.034 C 
ENDBRANCH  33  34
ENDBRANCH   2  33
TORSDOF 9
ENDMDL
MODEL 7
REMARK VINA RESULT:      -6.6      8.768     11.666
REMARK  9 active torsions:
REMARK  status: ('A' for Active; 'I' for Inactive)
REMARK    1  A    between atoms: C2_2  and  C3_3 
REMARK    2  A    between atoms: C2_2  and  C6_7 
REMARK    3  A    between atoms: C3_3  and  N1_4 
REMARK    4  A    between atoms: C6_7  and  C7_9 
REMARK    5  A    between atoms: C7_9  and  N2_10 
REMARK    6  A    between atoms: C8_11  and  O2_12 
REMARK    7  A    between atoms: O2_12  and  C9_13 
REMARK    8  A    between atoms: C16_22  and  N5_23 
REMARK    9  A    between atoms: N5_23  and  C17_24 
ROOT
HETATM    1  C7  UNL     1      31.789   7.486  47.905  1.00  0.00     0.298 A 
HETATM    2  C8  UNL     1      33.103   8.080  48.261  1.00  0.00     0.100 A 
HETATM    3  C11 UNL     1      33.226   9.320  47.819  1.00  0.00     0.068 A 
HETATM    4  C12 UNL     1      32.012   9.726  47.108  1.00  0.00     0.071 A 
HETATM    5  N3  UNL     1      31.571  10.836  46.455  1.00  0.00    -0.259 NA
HETATM    6  C13 UNL     1      30.322  10.825  45.891  1.00  0.00     0.142 A 
HETATM    7  C14 UNL     1      29.475   9.738  45.952  1.00  0.00     0.089 A 
HETATM    8  C15 UNL     1      28.161   9.778  45.340  1.00  0.00     0.103 C 
HETATM    9  N4  UNL     1      27.085   9.825  44.857  1.00  0.00    -0.191 NA
HETATM   10  C16 UNL     1      29.924   8.614  46.612  1.00  0.00     0.067 A 
HETATM   11  C23 UNL     1      31.170   8.637  47.170  1.00  0.00     0.052 A 
ENDROOT
BRANCH  10  12
HETATM   12  N5  UNL     1      29.004   7.518  46.655  1.00  0.00    -0.354 N 
HETATM   13  H20 UNL     1      28.981   6.779  45.923  1.00  0.00     0.166 HD
BRANCH  12  14
HETATM   14  C17 UNL     1      28.061   7.408  47.747  1.00  0.00     0.034 A 
HETATM   15  C18 UNL     1      27.674   8.513  48.496  1.00  0.00     0.032 A 
HETATM   16  C19 UNL     1      26.767   8.333  49.530  1.00  0.00     0.046 A 
HETATM   17  C20 UNL     1      26.252   7.098  49.820  1.00  0.00     0.138 A 
HETATM   18  F1  UNL     1      25.356   6.884  50.825  1.00  0.00    -0.204 F 
HETATM   19  C21 UNL     1      26.621   5.994  49.093  1.00  0.00     0.074 A 
HETATM   20 CL1  UNL     1      26.031   4.345  49.362  1.00  0.00    -0.081 Cl
HETATM   21  C22 UNL     1      27.522   6.176  48.068  1.00  0.00     0.056 A 
ENDBRANCH  12  14
ENDBRANCH  10  12
BRANCH   1  22
HETATM   22  C6  UNL     1      31.954   6.323  47.093  1.00  0.00     0.203 C 
HETATM   23  O1  UNL     1      31.116   5.526  47.666  1.00  0.00    -0.289 OA
BRANCH  22  24
HETATM   24  C2  UNL     1      32.381   5.385  46.090  1.00  0.00    -0.013 C 
HETATM   25  C1  UNL     1      32.730   5.694  44.831  1.00  0.00     0.044 C 
BRANCH  24  26
HETATM   26  C3  UNL     1      32.617   3.939  45.963  1.00  0.00     0.154 C 
BRANCH  26  27
HETATM   27  N1  UNL     1      33.653   3.466  46.804  1.00  0.00    -0.417 N 
HETATM   28  C4  UNL     1      34.944   3.314  46.221  1.00  0.00     0.142 C 
HETATM   29  C5  UNL     1      33.304   2.557  47.836  1.00  0.00     0.142 C 
ENDBRANCH  26  27
ENDBRANCH  24  26
ENDBRANCH  22  24
ENDBRANCH   1  22
BRANCH   1  30
HETATM   30  N2  UNL     1      31.109   7.261  49.169  1.00  0.00     0.107 N 
HETATM   31  H11 UNL     1      31.734   6.861  49.893  1.00  0.00     0.315 HD
HETATM   32  H12 UNL     1      30.537   8.079  49.477  1.00  0.00     0.315 HD
ENDBRANCH   1  30
BRANCH   2  33
HETATM   33  O2  UNL     1      34.198   7.591  48.954  1.00  0.00    -0.352 OA
BRANCH  33  34
HETATM   34  C9  UNL     1      35.235   6.873  48.347  1.00  0.00     0.171 C 
HETATM   35  C10 UNL     1      35.396   5.596  49.164  1.00  0.00     0.034 C 
ENDBRANCH  33  34
ENDBRANCH   2  33
TORSDOF 9
ENDMDL
MODEL 8
REMARK VINA RESULT:      -6.5     10.445     13.350
REMARK  9 active torsions:
REMARK  status: ('A' for Active; 'I' for Inactive)
REMARK    1  A    between atoms: C2_2  and  C3_3 
REMARK    2  A    between atoms: C2_2  and  C6_7 
REMARK    3  A    between atoms: C3_3  and  N1_4 
REMARK    4  A    between atoms: C6_7  and  C7_9 
REMARK    5  A    between atoms: C7_9  and  N2_10 
REMARK    6  A    between atoms: C8_11  and  O2_12 
REMARK    7  A    between atoms: O2_12  and  C9_13 
REMARK    8  A    between atoms: C16_22  and  N5_23 
REMARK    9  A    between atoms: N5_23  and  C17_24 
ROOT
HETATM    1  C7  UNL     1      29.840  10.599  48.262  1.00  0.00     0.298 A 
HETATM    2  C8  UNL     1      29.118  11.777  47.717  1.00  0.00     0.100 A 
HETATM    3  C11 UNL     1      27.932  11.454  47.228  1.00  0.00     0.068 A 
HETATM    4  C12 UNL     1      27.699  10.016  47.381  1.00  0.00     0.071 A 
HETATM    5  N3  UNL     1      26.707   9.136  47.072  1.00  0.00    -0.259 NA
HETATM    6  C13 UNL     1      26.871   7.811  47.383  1.00  0.00     0.142 A 
HETATM    7  C14 UNL     1      27.999   7.315  48.001  1.00  0.00     0.089 A 
HETATM    8  C15 UNL     1      28.124   5.904  48.311  1.00  0.00     0.103 C 
HETATM    9  N4  UNL     1      28.209   4.758  48.578  1.00  0.00    -0.191 NA
HETATM   10  C16 UNL     1      29.004   8.207  48.311  1.00  0.00     0.067 A 
HETATM   11  C23 UNL     1      28.829   9.524  47.996  1.00  0.00     0.052 A 
ENDROOT
BRANCH  10  12
HETATM   12  N5  UNL     1      30.149   7.643  48.958  1.00  0.00    -0.354 N 
HETATM   13  H20 UNL     1      30.248   7.614  49.994  1.00  0.00     0.166 HD
BRANCH  12  14
HETATM   14  C17 UNL     1      31.223   7.083  48.168  1.00  0.00     0.034 A 
HETATM   15  C18 UNL     1      31.097   6.877  46.799  1.00  0.00     0.032 A 
HETATM   16  C19 UNL     1      32.167   6.334  46.104  1.00  0.00     0.046 A 
HETATM   17  C20 UNL     1      33.335   6.002  46.739  1.00  0.00     0.138 A 
HETATM   18  F1  UNL     1      34.408   5.471  46.089  1.00  0.00    -0.204 F 
HETATM   19  C21 UNL     1      33.481   6.197  48.089  1.00  0.00     0.074 A 
HETATM   20 CL1  UNL     1      34.933   5.813  49.030  1.00  0.00    -0.081 Cl
HETATM   21  C22 UNL     1      32.415   6.736  48.776  1.00  0.00     0.056 A 
ENDBRANCH  12  14
ENDBRANCH  10  12
BRANCH   1  22
HETATM   22  C6  UNL     1      31.075  10.392  47.579  1.00  0.00     0.203 C 
HETATM   23  O1  UNL     1      31.868  10.236  48.584  1.00  0.00    -0.289 OA
BRANCH  22  24
HETATM   24  C2  UNL     1      32.089  10.231  46.570  1.00  0.00    -0.013 C 
HETATM   25  C1  UNL     1      33.366   9.886  46.796  1.00  0.00     0.044 C 
BRANCH  24  26
HETATM   26  C3  UNL     1      32.212  10.325  45.108  1.00  0.00     0.154 C 
BRANCH  26  27
HETATM   27  N1  UNL     1      32.622  11.605  44.664  1.00  0.00    -0.417 N 
HETATM   28  C4  UNL     1      31.701  12.678  44.837  1.00  0.00     0.142 C 
HETATM   29  C5  UNL     1      33.477  11.670  43.533  1.00  0.00     0.142 C 
ENDBRANCH  26  27
ENDBRANCH  24  26
ENDBRANCH  22  24
ENDBRANCH   1  22
BRANCH   1  30
HETATM   30  N2  UNL     1      29.961  10.844  49.689  1.00  0.00     0.107 N 
HETATM   31  H11 UNL     1      30.627  10.197  50.150  1.00  0.00     0.315 HD
HETATM   32  H12 UNL     1      30.089  11.855  49.922  1.00  0.00     0.315 HD
ENDBRANCH   1  30
BRANCH   2  33
HETATM   33  O2  UNL     1      29.443  13.121  47.628  1.00  0.00    -0.352 OA
BRANCH  33  34
HETATM   34  C9  UNL     1      28.496  14.129  47.414  1.00  0.00     0.171 C 
HETATM   35  C10 UNL     1      29.230  15.248  46.686  1.00  0.00     0.034 C 
ENDBRANCH  33  34
ENDBRANCH   2  33
TORSDOF 9
ENDMDL
MODEL 9
REMARK VINA RESULT:      -6.5      6.039      9.231
REMARK  9 active torsions:
REMARK  status: ('A' for Active; 'I' for Inactive)
REMARK    1  A    between atoms: C2_2  and  C3_3 
REMARK    2  A    between atoms: C2_2  and  C6_7 
REMARK    3  A    between atoms: C3_3  and  N1_4 
REMARK    4  A    between atoms: C6_7  and  C7_9 
REMARK    5  A    between atoms: C7_9  and  N2_10 
REMARK    6  A    between atoms: C8_11  and  O2_12 
REMARK    7  A    between atoms: O2_12  and  C9_13 
REMARK    8  A    between atoms: C16_22  and  N5_23 
REMARK    9  A    between atoms: N5_23  and  C17_24 
ROOT
HETATM    1  C7  UNL     1      26.596   8.388  49.092  1.00  0.00     0.298 A 
HETATM    2  C8  UNL     1      26.681   9.871  49.093  1.00  0.00     0.100 A 
HETATM    3  C11 UNL     1      25.600  10.434  48.579  1.00  0.00     0.068 A 
HETATM    4  C12 UNL     1      24.644   9.406  48.166  1.00  0.00     0.071 A 
HETATM    5  N3  UNL     1      23.411   9.375  47.589  1.00  0.00    -0.259 NA
HETATM    6  C13 UNL     1      22.820   8.163  47.344  1.00  0.00     0.142 A 
HETATM    7  C14 UNL     1      23.413   6.957  47.656  1.00  0.00     0.089 A 
HETATM    8  C15 UNL     1      22.744   5.700  47.378  1.00  0.00     0.103 C 
HETATM    9  N4  UNL     1      22.185   4.683  47.167  1.00  0.00    -0.191 NA
HETATM   10  C16 UNL     1      24.662   6.990  48.238  1.00  0.00     0.067 A 
HETATM   11  C23 UNL     1      25.240   8.204  48.477  1.00  0.00     0.052 A 
ENDROOT
BRANCH  10  12
HETATM   12  N5  UNL     1      25.228   5.713  48.550  1.00  0.00    -0.354 N 
HETATM   13  H20 UNL     1      25.900   5.230  47.919  1.00  0.00     0.166 HD
BRANCH  12  14
HETATM   14  C17 UNL     1      24.872   5.047  49.784  1.00  0.00     0.034 A 
HETATM   15  C18 UNL     1      23.946   5.587  50.669  1.00  0.00     0.032 A 
HETATM   16  C19 UNL     1      23.653   4.894  51.834  1.00  0.00     0.046 A 
HETATM   17  C20 UNL     1      24.257   3.699  52.123  1.00  0.00     0.138 A 
HETATM   18  F1  UNL     1      23.991   2.988  53.256  1.00  0.00    -0.204 F 
HETATM   19  C21 UNL     1      25.173   3.148  51.264  1.00  0.00     0.074 A 
HETATM   20 CL1  UNL     1      26.023   1.613  51.516  1.00  0.00    -0.081 Cl
HETATM   21  C22 UNL     1      25.462   3.839  50.108  1.00  0.00     0.056 A 
ENDBRANCH  12  14
ENDBRANCH  10  12
BRANCH   1  22
HETATM   22  C6  UNL     1      27.648   7.813  48.317  1.00  0.00     0.203 C 
HETATM   23  O1  UNL     1      27.814   6.701  48.950  1.00  0.00    -0.289 OA
BRANCH  22  24
HETATM   24  C2  UNL     1      28.669   7.573  47.333  1.00  0.00    -0.013 C 
HETATM   25  C1  UNL     1      28.640   7.994  46.059  1.00  0.00     0.044 C 
BRANCH  24  26
HETATM   26  C3  UNL     1      29.977   6.907  47.244  1.00  0.00     0.154 C 
BRANCH  26  27
HETATM   27  N1  UNL     1      30.896   7.347  48.228  1.00  0.00    -0.417 N 
HETATM   28  C4  UNL     1      31.794   8.389  47.857  1.00  0.00     0.142 C 
HETATM   29  C5  UNL     1      31.372   6.391  49.161  1.00  0.00     0.142 C 
ENDBRANCH  26  27
ENDBRANCH  24  26
ENDBRANCH  22  24
ENDBRANCH   1  22
BRANCH   1  30
HETATM   30  N2  UNL     1      26.580   7.998  50.491  1.00  0.00     0.107 N 
HETATM   31  H11 UNL     1      26.177   8.731  51.105  1.00  0.00     0.315 HD
HETATM   32  H12 UNL     1      26.206   7.035  50.644  1.00  0.00     0.315 HD
ENDBRANCH   1  30
BRANCH   2  33
HETATM   33  O2  UNL     1      27.657  10.756  49.523  1.00  0.00    -0.352 OA
BRANCH  33  34
HETATM   34  C9  UNL     1      28.183  11.771  48.716  1.00  0.00     0.171 C 
HETATM   35  C10 UNL     1      29.549  11.277  48.255  1.00  0.00     0.034 C 
ENDBRANCH  33  34
ENDBRANCH   2  33
TORSDOF 9
ENDMDL
