MODEL 1
REMARK VINA RESULT:      -6.5      0.000      0.000
REMARK  6 active torsions:
REMARK  status: ('A' for Active; 'I' for Inactive)
REMARK    1  A    between atoms: C1_2  and  C2_3 
REMARK    2  A    between atoms: C1_2  and  C5_7 
REMARK    3  A    between atoms: C2_3  and  C3_4 
REMARK    4  A    between atoms: C5_7  and  C6_8 
REMARK    5  A    between atoms: C7_10  and  O1_11 
REMARK    6  A    between atoms: C13_19  and  N3_20 
ROOT
HETATM    1  C5  UNL     1      24.751   2.867  51.235  1.00  0.00     0.112 C 
HETATM    2  C9  UNL     1      23.847   2.196  50.268  1.00  0.00     0.016 C 
HETATM    3  C10 UNL     1      22.913   1.525  50.904  1.00  0.00    -0.009 C 
HETATM    4  C11 UNL     1      22.350   2.077  51.959  1.00  0.00     0.023 C 
HETATM    5 BR2  UNL     1      21.074   1.062  52.934  1.00  0.00    -0.050 Br
HETATM    6  C12 UNL     1      22.735   3.455  52.332  1.00  0.00     0.046 C 
HETATM    7  C13 UNL     1      23.958   3.875  51.970  1.00  0.00     0.029 C 
ENDROOT
BRANCH   1   8
HETATM    8  C1  UNL     1      25.942   3.468  50.579  1.00  0.00     0.032 C 
HETATM    9  N1  UNL     1      27.082   3.199  51.102  1.00  0.00    -0.307 NA
HETATM   10  H1  UNL     1      27.986   3.533  50.771  1.00  0.00     0.186 HD
BRANCH   8  11
HETATM   11  C2  UNL     1      25.621   4.306  49.390  1.00  0.00     0.083 C 
BRANCH  11  12
HETATM   12  C3  UNL     1      26.860   4.945  48.822  1.00  0.00    -0.013 C 
HETATM   13  C4  UNL     1      27.074   6.229  48.531  1.00  0.00     0.052 C 
HETATM   14 BR1  UNL     1      28.722   6.857  47.811  1.00  0.00    -0.064 Br
ENDBRANCH  11  12
ENDBRANCH   8  11
ENDBRANCH   1   8
BRANCH   1  15
HETATM   15  C6  UNL     1      25.277   1.793  52.133  1.00  0.00     0.102 A 
HETATM   16  N2  UNL     1      25.590   0.615  51.985  1.00  0.00    -0.220 NA
HETATM   17  C7  UNL     1      26.041  -0.129  52.982  1.00  0.00     0.169 A 
HETATM   18  C8  UNL     1      26.167   0.456  54.275  1.00  0.00     0.109 A 
HETATM   19  S1  UNL     1      25.571   2.185  53.913  1.00  0.00    -0.080 SA
BRANCH  17  20
HETATM   20  O1  UNL     1      26.346  -1.455  52.609  1.00  0.00    -0.344 OA
HETATM   21  H6  UNL     1      26.999  -2.024  53.122  1.00  0.00     0.219 HD
ENDBRANCH  17  20
ENDBRANCH   1  15
BRANCH   7  22
HETATM   22  N3  UNL     1      24.167   5.232  52.412  1.00  0.00    -0.401 N 
HETATM   23  H10 UNL     1      24.602   5.035  53.359  1.00  0.00     0.156 HD
HETATM   24  H11 UNL     1      23.952   6.150  51.937  1.00  0.00     0.156 HD
ENDBRANCH   7  22
TORSDOF 6
ENDMDL
MODEL 2
REMARK VINA RESULT:      -6.4      7.182     10.177
REMARK  6 active torsions:
REMARK  status: ('A' for Active; 'I' for Inactive)
REMARK    1  A    between atoms: C1_2  and  C2_3 
REMARK    2  A    between atoms: C1_2  and  C5_7 
REMARK    3  A    between atoms: C2_3  and  C3_4 
REMARK    4  A    between atoms: C5_7  and  C6_8 
REMARK    5  A    between atoms: C7_10  and  O1_11 
REMARK    6  A    between atoms: C13_19  and  N3_20 
ROOT
HETATM    1  C5  UNL     1      31.714   6.795  48.050  1.00  0.00     0.112 C 
HETATM    2  C9  UNL     1      31.408   6.141  46.753  1.00  0.00     0.016 C 
HETATM    3  C10 UNL     1      32.468   5.516  46.293  1.00  0.00    -0.009 C 
HETATM    4  C11 UNL     1      33.214   4.836  47.139  1.00  0.00     0.023 C 
HETATM    5 BR2  UNL     1      34.800   4.020  46.487  1.00  0.00    -0.050 Br
HETATM    6  C12 UNL     1      32.782   4.740  48.550  1.00  0.00     0.046 C 
HETATM    7  C13 UNL     1      32.016   5.732  49.032  1.00  0.00     0.029 C 
ENDROOT
BRANCH   1   8
HETATM    8  C1  UNL     1      30.617   7.685  48.513  1.00  0.00     0.032 C 
HETATM    9  N1  UNL     1      30.844   8.372  49.572  1.00  0.00    -0.307 NA
HETATM   10  H1  UNL     1      30.196   9.023  50.012  1.00  0.00     0.186 HD
BRANCH   8  11
HETATM   11  C2  UNL     1      29.399   7.641  47.656  1.00  0.00     0.083 C 
BRANCH  11  12
HETATM   12  C3  UNL     1      28.327   6.785  48.275  1.00  0.00    -0.013 C 
HETATM   13  C4  UNL     1      28.281   5.455  48.376  1.00  0.00     0.052 C 
HETATM   14 BR1  UNL     1      26.828   4.540  49.201  1.00  0.00    -0.064 Br
ENDBRANCH  11  12
ENDBRANCH   8  11
ENDBRANCH   1   8
BRANCH   1  15
HETATM   15  C6  UNL     1      32.889   7.688  47.801  1.00  0.00     0.102 A 
HETATM   16  N2  UNL     1      33.977   7.859  48.342  1.00  0.00    -0.220 NA
HETATM   17  C7  UNL     1      34.856   8.745  47.901  1.00  0.00     0.169 A 
HETATM   18  C8  UNL     1      34.527   9.530  46.759  1.00  0.00     0.109 A 
HETATM   19  S1  UNL     1      32.827   8.866  46.381  1.00  0.00    -0.080 SA
BRANCH  17  20
HETATM   20  O1  UNL     1      36.045   8.790  48.658  1.00  0.00    -0.344 OA
HETATM   21  H6  UNL     1      36.947   8.580  48.262  1.00  0.00     0.219 HD
ENDBRANCH  17  20
ENDBRANCH   1  15
BRANCH   7  22
HETATM   22  N3  UNL     1      31.689   5.480  50.414  1.00  0.00    -0.401 N 
HETATM   23  H10 UNL     1      32.602   5.037  50.724  1.00  0.00     0.156 HD
HETATM   24  H11 UNL     1      30.806   5.676  50.958  1.00  0.00     0.156 HD
ENDBRANCH   7  22
TORSDOF 6
ENDMDL
MODEL 3
REMARK VINA RESULT:      -6.3      3.612      5.033
REMARK  6 active torsions:
REMARK  status: ('A' for Active; 'I' for Inactive)
REMARK    1  A    between atoms: C1_2  and  C2_3 
REMARK    2  A    between atoms: C1_2  and  C5_7 
REMARK    3  A    between atoms: C2_3  and  C3_4 
REMARK    4  A    between atoms: C5_7  and  C6_8 
REMARK    5  A    between atoms: C7_10  and  O1_11 
REMARK    6  A    between atoms: C13_19  and  N3_20 
ROOT
HETATM    1  C5  UNL     1      23.923   3.846  51.103  1.00  0.00     0.112 C 
HETATM    2  C9  UNL     1      24.335   3.503  49.718  1.00  0.00     0.016 C 
HETATM    3  C10 UNL     1      23.432   3.913  48.857  1.00  0.00    -0.009 C 
HETATM    4  C11 UNL     1      22.882   5.096  49.037  1.00  0.00     0.023 C 
HETATM    5 BR2  UNL     1      21.505   5.641  47.848  1.00  0.00    -0.050 Br
HETATM    6  C12 UNL     1      23.362   5.942  50.151  1.00  0.00     0.046 C 
HETATM    7  C13 UNL     1      23.897   5.319  51.214  1.00  0.00     0.029 C 
ENDROOT
BRANCH   1   8
HETATM    8  C1  UNL     1      24.802   3.226  52.129  1.00  0.00     0.032 C 
HETATM    9  N1  UNL     1      24.459   3.391  53.354  1.00  0.00    -0.307 NA
HETATM   10  H1  UNL     1      24.955   3.030  54.167  1.00  0.00     0.186 HD
BRANCH   8  11
HETATM   11  C2  UNL     1      25.969   2.492  51.564  1.00  0.00     0.083 C 
BRANCH  11  12
HETATM   12  C3  UNL     1      25.962   1.048  51.985  1.00  0.00    -0.013 C 
HETATM   13  C4  UNL     1      26.996   0.215  52.117  1.00  0.00     0.052 C 
HETATM   14 BR1  UNL     1      26.791  -1.597  52.666  1.00  0.00    -0.064 Br
ENDBRANCH  11  12
ENDBRANCH   8  11
ENDBRANCH   1   8
BRANCH   1  15
HETATM   15  C6  UNL     1      22.570   3.237  51.301  1.00  0.00     0.102 A 
HETATM   16  N2  UNL     1      21.497   3.636  51.741  1.00  0.00    -0.220 NA
HETATM   17  C7  UNL     1      20.426   2.862  51.805  1.00  0.00     0.169 A 
HETATM   18  C8  UNL     1      20.520   1.516  51.346  1.00  0.00     0.109 A 
HETATM   19  S1  UNL     1      22.307   1.476  50.814  1.00  0.00    -0.080 SA
BRANCH  17  20
HETATM   20  O1  UNL     1      19.291   3.505  52.342  1.00  0.00    -0.344 OA
HETATM   21  H6  UNL     1      19.338   4.410  52.780  1.00  0.00     0.219 HD
ENDBRANCH  17  20
ENDBRANCH   1  15
BRANCH   7  22
HETATM   22  N3  UNL     1      24.309   6.288  52.201  1.00  0.00    -0.401 N 
HETATM   23  H10 UNL     1      23.354   6.572  52.566  1.00  0.00     0.156 HD
HETATM   24  H11 UNL     1      25.272   6.618  52.479  1.00  0.00     0.156 HD
ENDBRANCH   7  22
TORSDOF 6
ENDMDL
MODEL 4
REMARK VINA RESULT:      -6.1      6.590     10.377
REMARK  6 active torsions:
REMARK  status: ('A' for Active; 'I' for Inactive)
REMARK    1  A    between atoms: C1_2  and  C2_3 
REMARK    2  A    between atoms: C1_2  and  C5_7 
REMARK    3  A    between atoms: C2_3  and  C3_4 
REMARK    4  A    between atoms: C5_7  and  C6_8 
REMARK    5  A    between atoms: C7_10  and  O1_11 
REMARK    6  A    between atoms: C13_19  and  N3_20 
ROOT
HETATM    1  C5  UNL     1      30.082   8.365  47.912  1.00  0.00     0.112 C 
HETATM    2  C9  UNL     1      30.229   7.863  46.523  1.00  0.00     0.016 C 
HETATM    3  C10 UNL     1      31.272   8.413  45.945  1.00  0.00    -0.009 C 
HETATM    4  C11 UNL     1      32.379   8.552  46.645  1.00  0.00     0.023 C 
HETATM    5 BR2  UNL     1      33.851   9.440  45.838  1.00  0.00    -0.050 Br
HETATM    6  C12 UNL     1      32.422   8.013  48.021  1.00  0.00     0.046 C 
HETATM    7  C13 UNL     1      31.258   7.910  48.683  1.00  0.00     0.029 C 
ENDROOT
BRANCH   1   8
HETATM    8  C1  UNL     1      28.805   7.937  48.541  1.00  0.00     0.032 C 
HETATM    9  N1  UNL     1      28.540   8.429  49.696  1.00  0.00    -0.307 NA
HETATM   10  H1  UNL     1      27.710   8.234  50.252  1.00  0.00     0.186 HD
BRANCH   8  11
HETATM   11  C2  UNL     1      28.013   6.983  47.715  1.00  0.00     0.083 C 
BRANCH  11  12
HETATM   12  C3  UNL     1      27.784   5.687  48.446  1.00  0.00    -0.013 C 
HETATM   13  C4  UNL     1      26.633   5.168  48.876  1.00  0.00     0.052 C 
HETATM   14 BR1  UNL     1      26.538   3.500  49.791  1.00  0.00    -0.064 Br
ENDBRANCH  11  12
ENDBRANCH   8  11
ENDBRANCH   1   8
BRANCH   1  15
HETATM   15  C6  UNL     1      30.009   9.856  47.813  1.00  0.00     0.102 A 
HETATM   16  N2  UNL     1      30.561  10.790  48.388  1.00  0.00    -0.220 NA
HETATM   17  C7  UNL     1      30.302  12.054  48.095  1.00  0.00     0.169 A 
HETATM   18  C8  UNL     1      29.348  12.343  47.076  1.00  0.00     0.109 A 
HETATM   19  S1  UNL     1      28.861  10.613  46.582  1.00  0.00    -0.080 SA
BRANCH  17  20
HETATM   20  O1  UNL     1      31.038  12.979  48.865  1.00  0.00    -0.344 OA
HETATM   21  H6  UNL     1      31.121  12.904  49.866  1.00  0.00     0.219 HD
ENDBRANCH  17  20
ENDBRANCH   1  15
BRANCH   7  22
HETATM   22  N3  UNL     1      31.482   7.370  50.001  1.00  0.00    -0.401 N 
HETATM   23  H10 UNL     1      32.292   6.721  49.781  1.00  0.00     0.156 HD
HETATM   24  H11 UNL     1      30.989   7.560  50.915  1.00  0.00     0.156 HD
ENDBRANCH   7  22
TORSDOF 6
ENDMDL
MODEL 5
REMARK VINA RESULT:      -6.1      7.563      9.307
REMARK  6 active torsions:
REMARK  status: ('A' for Active; 'I' for Inactive)
REMARK    1  A    between atoms: C1_2  and  C2_3 
REMARK    2  A    between atoms: C1_2  and  C5_7 
REMARK    3  A    between atoms: C2_3  and  C3_4 
REMARK    4  A    between atoms: C5_7  and  C6_8 
REMARK    5  A    between atoms: C7_10  and  O1_11 
REMARK    6  A    between atoms: C13_19  and  N3_20 
ROOT
HETATM    1  C5  UNL     1      30.589   7.265  47.883  1.00  0.00     0.112 C 
HETATM    2  C9  UNL     1      30.327   7.227  46.423  1.00  0.00     0.016 C 
HETATM    3  C10 UNL     1      29.968   8.414  45.991  1.00  0.00    -0.009 C 
HETATM    4  C11 UNL     1      30.605   9.471  46.451  1.00  0.00     0.023 C 
HETATM    5 BR2  UNL     1      30.016  11.190  45.901  1.00  0.00    -0.050 Br
HETATM    6  C12 UNL     1      31.746   9.269  47.371  1.00  0.00     0.046 C 
HETATM    7  C13 UNL     1      31.754   8.148  48.110  1.00  0.00     0.029 C 
ENDROOT
BRANCH   1   8
HETATM    8  C1  UNL     1      30.797   5.912  48.462  1.00  0.00     0.032 C 
HETATM    9  N1  UNL     1      30.882   5.840  49.739  1.00  0.00    -0.307 NA
HETATM   10  H1  UNL     1      31.023   4.990  50.282  1.00  0.00     0.186 HD
BRANCH   8  11
HETATM   11  C2  UNL     1      30.874   4.825  47.446  1.00  0.00     0.083 C 
BRANCH  11  12
HETATM   12  C3  UNL     1      32.268   4.267  47.348  1.00  0.00    -0.013 C 
HETATM   13  C4  UNL     1      33.065   4.205  46.280  1.00  0.00     0.052 C 
HETATM   14 BR1  UNL     1      34.816   3.456  46.348  1.00  0.00    -0.064 Br
ENDBRANCH  11  12
ENDBRANCH   8  11
ENDBRANCH   1   8
BRANCH   1  15
HETATM   15  C6  UNL     1      29.343   7.796  48.520  1.00  0.00     0.102 A 
HETATM   16  N2  UNL     1      29.089   8.711  49.297  1.00  0.00    -0.220 NA
HETATM   17  C7  UNL     1      27.859   8.967  49.712  1.00  0.00     0.169 A 
HETATM   18  C8  UNL     1      26.790   8.151  49.240  1.00  0.00     0.109 A 
HETATM   19  S1  UNL     1      27.732   6.978  48.140  1.00  0.00    -0.080 SA
BRANCH  17  20
HETATM   20  O1  UNL     1      27.774  10.058  50.601  1.00  0.00    -0.344 OA
HETATM   21  H6  UNL     1      27.323   9.991  51.499  1.00  0.00     0.219 HD
ENDBRANCH  17  20
ENDBRANCH   1  15
BRANCH   7  22
HETATM   22  N3  UNL     1      32.929   8.112  48.945  1.00  0.00    -0.401 N 
HETATM   23  H10 UNL     1      33.488   8.885  48.481  1.00  0.00     0.156 HD
HETATM   24  H11 UNL     1      33.166   7.501  49.772  1.00  0.00     0.156 HD
ENDBRANCH   7  22
TORSDOF 6
ENDMDL
MODEL 6
REMARK VINA RESULT:      -6.1      8.984     10.263
REMARK  6 active torsions:
REMARK  status: ('A' for Active; 'I' for Inactive)
REMARK    1  A    between atoms: C1_2  and  C2_3 
REMARK    2  A    between atoms: C1_2  and  C5_7 
REMARK    3  A    between atoms: C2_3  and  C3_4 
REMARK    4  A    between atoms: C5_7  and  C6_8 
REMARK    5  A    between atoms: C7_10  and  O1_11 
REMARK    6  A    between atoms: C13_19  and  N3_20 
ROOT
HETATM    1  C5  UNL     1      31.604   7.208  48.334  1.00  0.00     0.112 C 
HETATM    2  C9  UNL     1      31.017   6.771  47.043  1.00  0.00     0.016 C 
HETATM    3  C10 UNL     1      31.870   6.020  46.383  1.00  0.00    -0.009 C 
HETATM    4  C11 UNL     1      32.567   5.125  47.051  1.00  0.00     0.023 C 
HETATM    5 BR2  UNL     1      33.871   4.113  46.110  1.00  0.00    -0.050 Br
HETATM    6  C12 UNL     1      32.304   4.950  48.495  1.00  0.00     0.046 C 
HETATM    7  C13 UNL     1      31.811   6.004  49.167  1.00  0.00     0.029 C 
ENDROOT
BRANCH   1   8
HETATM    8  C1  UNL     1      30.768   8.224  49.026  1.00  0.00     0.032 C 
HETATM    9  N1  UNL     1      31.221   8.683  50.135  1.00  0.00    -0.307 NA
HETATM   10  H1  UNL     1      30.768   9.379  50.723  1.00  0.00     0.186 HD
BRANCH   8  11
HETATM   11  C2  UNL     1      29.506   8.560  48.308  1.00  0.00     0.083 C 
BRANCH  11  12
HETATM   12  C3  UNL     1      29.324  10.050  48.194  1.00  0.00    -0.013 C 
HETATM   13  C4  UNL     1      28.597  10.860  48.966  1.00  0.00     0.052 C 
HETATM   14 BR1  UNL     1      28.486  12.737  48.664  1.00  0.00    -0.064 Br
ENDBRANCH  11  12
ENDBRANCH   8  11
ENDBRANCH   1   8
BRANCH   1  15
HETATM   15  C6  UNL     1      32.890   7.895  48.000  1.00  0.00     0.102 A 
HETATM   16  N2  UNL     1      34.033   7.861  48.446  1.00  0.00    -0.220 NA
HETATM   17  C7  UNL     1      35.011   8.598  47.946  1.00  0.00     0.169 A 
HETATM   18  C8  UNL     1      34.730   9.463  46.849  1.00  0.00     0.109 A 
HETATM   19  S1  UNL     1      32.915   9.110  46.610  1.00  0.00    -0.080 SA
BRANCH  17  20
HETATM   20  O1  UNL     1      36.249   8.416  48.597  1.00  0.00    -0.344 OA
HETATM   21  H6  UNL     1      37.130   8.608  48.148  1.00  0.00     0.219 HD
ENDBRANCH  17  20
ENDBRANCH   1  15
BRANCH   7  22
HETATM   22  N3  UNL     1      31.616   5.661  50.554  1.00  0.00    -0.401 N 
HETATM   23  H10 UNL     1      32.246   6.390  50.997  1.00  0.00     0.156 HD
HETATM   24  H11 UNL     1      31.024   4.909  50.999  1.00  0.00     0.156 HD
ENDBRANCH   7  22
TORSDOF 6
ENDMDL
MODEL 7
REMARK VINA RESULT:      -6.0      7.528      9.135
REMARK  6 active torsions:
REMARK  status: ('A' for Active; 'I' for Inactive)
REMARK    1  A    between atoms: C1_2  and  C2_3 
REMARK    2  A    between atoms: C1_2  and  C5_7 
REMARK    3  A    between atoms: C2_3  and  C3_4 
REMARK    4  A    between atoms: C5_7  and  C6_8 
REMARK    5  A    between atoms: C7_10  and  O1_11 
REMARK    6  A    between atoms: C13_19  and  N3_20 
ROOT
HETATM    1  C5  UNL     1      29.973   8.135  48.247  1.00  0.00     0.112 C 
HETATM    2  C9  UNL     1      30.235   8.842  46.968  1.00  0.00     0.016 C 
HETATM    3  C10 UNL     1      29.904  10.109  47.069  1.00  0.00    -0.009 C 
HETATM    4  C11 UNL     1      30.210  10.753  48.175  1.00  0.00     0.023 C 
HETATM    5 BR2  UNL     1      29.639  12.556  48.356  1.00  0.00    -0.050 Br
HETATM    6  C12 UNL     1      30.980  10.046  49.221  1.00  0.00     0.046 C 
HETATM    7  C13 UNL     1      30.871   8.708  49.272  1.00  0.00     0.029 C 
ENDROOT
BRANCH   1   8
HETATM    8  C1  UNL     1      30.133   6.662  48.128  1.00  0.00     0.032 C 
HETATM    9  N1  UNL     1      29.553   5.948  49.021  1.00  0.00    -0.307 NA
HETATM   10  H1  UNL     1      29.568   4.931  49.076  1.00  0.00     0.186 HD
BRANCH   8  11
HETATM   11  C2  UNL     1      30.961   6.235  46.965  1.00  0.00     0.083 C 
BRANCH  11  12
HETATM   12  C3  UNL     1      31.917   5.138  47.349  1.00  0.00    -0.013 C 
HETATM   13  C4  UNL     1      31.901   3.855  46.983  1.00  0.00     0.052 C 
HETATM   14 BR1  UNL     1      33.207   2.602  47.576  1.00  0.00    -0.064 Br
ENDBRANCH  11  12
ENDBRANCH   8  11
ENDBRANCH   1   8
BRANCH   1  15
HETATM   15  C6  UNL     1      28.529   8.365  48.564  1.00  0.00     0.102 A 
HETATM   16  N2  UNL     1      27.910   8.758  49.549  1.00  0.00    -0.220 NA
HETATM   17  C7  UNL     1      26.592   8.870  49.558  1.00  0.00     0.169 A 
HETATM   18  C8  UNL     1      25.863   8.522  48.384  1.00  0.00     0.109 A 
HETATM   19  S1  UNL     1      27.265   8.017  47.265  1.00  0.00    -0.080 SA
BRANCH  17  20
HETATM   20  O1  UNL     1      26.070   9.338  50.782  1.00  0.00    -0.344 OA
HETATM   21  H6  UNL     1      25.241   8.950  51.201  1.00  0.00     0.219 HD
ENDBRANCH  17  20
ENDBRANCH   1  15
BRANCH   7  22
HETATM   22  N3  UNL     1      31.682   8.185  50.343  1.00  0.00    -0.401 N 
HETATM   23  H10 UNL     1      32.639   8.301  49.901  1.00  0.00     0.156 HD
HETATM   24  H11 UNL     1      31.408   7.799  51.287  1.00  0.00     0.156 HD
ENDBRANCH   7  22
TORSDOF 6
ENDMDL
MODEL 8
REMARK VINA RESULT:      -5.9      2.401      2.901
REMARK  6 active torsions:
REMARK  status: ('A' for Active; 'I' for Inactive)
REMARK    1  A    between atoms: C1_2  and  C2_3 
REMARK    2  A    between atoms: C1_2  and  C5_7 
REMARK    3  A    between atoms: C2_3  and  C3_4 
REMARK    4  A    between atoms: C5_7  and  C6_8 
REMARK    5  A    between atoms: C7_10  and  O1_11 
REMARK    6  A    between atoms: C13_19  and  N3_20 
ROOT
HETATM    1  C5  UNL     1      23.914   5.119  50.145  1.00  0.00     0.112 C 
HETATM    2  C9  UNL     1      23.762   4.696  48.731  1.00  0.00     0.016 C 
HETATM    3  C10 UNL     1      23.203   3.509  48.665  1.00  0.00    -0.009 C 
HETATM    4  C11 UNL     1      22.201   3.240  49.475  1.00  0.00     0.023 C 
HETATM    5 BR2  UNL     1      21.463   1.490  49.447  1.00  0.00    -0.050 Br
HETATM    6  C12 UNL     1      21.698   4.309  50.365  1.00  0.00     0.046 C 
HETATM    7  C13 UNL     1      22.560   5.277  50.718  1.00  0.00     0.029 C 
ENDROOT
BRANCH   1   8
HETATM    8  C1  UNL     1      24.725   6.356  50.287  1.00  0.00     0.032 C 
HETATM    9  N1  UNL     1      24.917   6.783  51.481  1.00  0.00    -0.307 NA
HETATM   10  H1  UNL     1      25.449   7.613  51.741  1.00  0.00     0.186 HD
BRANCH   8  11
HETATM   11  C2  UNL     1      25.200   6.921  48.992  1.00  0.00     0.083 C 
BRANCH  11  12
HETATM   12  C3  UNL     1      26.701   7.018  48.957  1.00  0.00    -0.013 C 
HETATM   13  C4  UNL     1      27.550   6.460  48.092  1.00  0.00     0.052 C 
HETATM   14 BR1  UNL     1      29.437   6.698  48.208  1.00  0.00    -0.064 Br
ENDBRANCH  11  12
ENDBRANCH   8  11
ENDBRANCH   1   8
BRANCH   1  15
HETATM   15  C6  UNL     1      24.695   4.038  50.824  1.00  0.00     0.102 A 
HETATM   16  N2  UNL     1      24.570   3.404  51.867  1.00  0.00    -0.220 NA
HETATM   17  C7  UNL     1      25.435   2.474  52.239  1.00  0.00     0.169 A 
HETATM   18  C8  UNL     1      26.553   2.198  51.398  1.00  0.00     0.109 A 
HETATM   19  S1  UNL     1      26.234   3.412  50.020  1.00  0.00    -0.080 SA
BRANCH  17  20
HETATM   20  O1  UNL     1      25.117   1.859  53.468  1.00  0.00    -0.344 OA
HETATM   21  H6  UNL     1      24.221   1.435  53.644  1.00  0.00     0.219 HD
ENDBRANCH  17  20
ENDBRANCH   1  15
BRANCH   7  22
HETATM   22  N3  UNL     1      21.909   6.230  51.583  1.00  0.00    -0.401 N 
HETATM   23  H10 UNL     1      22.669   6.969  51.619  1.00  0.00     0.156 HD
HETATM   24  H11 UNL     1      20.961   6.203  52.044  1.00  0.00     0.156 HD
ENDBRANCH   7  22
TORSDOF 6
ENDMDL
MODEL 9
REMARK VINA RESULT:      -5.8      2.776      3.966
REMARK  6 active torsions:
REMARK  status: ('A' for Active; 'I' for Inactive)
REMARK    1  A    between atoms: C1_2  and  C2_3 
REMARK    2  A    between atoms: C1_2  and  C5_7 
REMARK    3  A    between atoms: C2_3  and  C3_4 
REMARK    4  A    between atoms: C5_7  and  C6_8 
REMARK    5  A    between atoms: C7_10  and  O1_11 
REMARK    6  A    between atoms: C13_19  and  N3_20 
ROOT
HETATM    1  C5  UNL     1      24.295   4.432  50.857  1.00  0.00     0.112 C 
HETATM    2  C9  UNL     1      23.420   4.695  52.026  1.00  0.00     0.016 C 
HETATM    3  C10 UNL     1      22.737   3.618  52.338  1.00  0.00    -0.009 C 
HETATM    4  C11 UNL     1      23.349   2.452  52.305  1.00  0.00     0.023 C 
HETATM    5 BR2  UNL     1      22.330   0.888  52.657  1.00  0.00    -0.050 Br
HETATM    6  C12 UNL     1      24.794   2.416  51.997  1.00  0.00     0.046 C 
HETATM    7  C13 UNL     1      25.295   3.420  51.258  1.00  0.00     0.029 C 
ENDROOT
BRANCH   1   8
HETATM    8  C1  UNL     1      24.935   5.668  50.333  1.00  0.00     0.032 C 
HETATM    9  N1  UNL     1      25.046   6.649  51.153  1.00  0.00    -0.307 NA
HETATM   10  H1  UNL     1      25.458   7.557  50.946  1.00  0.00     0.186 HD
BRANCH   8  11
HETATM   11  C2  UNL     1      25.357   5.574  48.908  1.00  0.00     0.083 C 
BRANCH  11  12
HETATM   12  C3  UNL     1      26.797   5.977  48.737  1.00  0.00    -0.013 C 
HETATM   13  C4  UNL     1      27.846   5.208  48.443  1.00  0.00     0.052 C 
HETATM   14 BR1  UNL     1      29.611   5.903  48.266  1.00  0.00    -0.064 Br
ENDBRANCH  11  12
ENDBRANCH   8  11
ENDBRANCH   1   8
BRANCH   1  15
HETATM   15  C6  UNL     1      23.398   3.942  49.764  1.00  0.00     0.102 A 
HETATM   16  N2  UNL     1      23.428   3.004  48.974  1.00  0.00    -0.220 NA
HETATM   17  C7  UNL     1      22.472   2.797  48.082  1.00  0.00     0.169 A 
HETATM   18  C8  UNL     1      21.368   3.696  48.037  1.00  0.00     0.109 A 
HETATM   19  S1  UNL     1      21.843   4.870  49.406  1.00  0.00    -0.080 SA
BRANCH  17  20
HETATM   20  O1  UNL     1      22.690   1.668  47.266  1.00  0.00    -0.344 OA
HETATM   21  H6  UNL     1      22.463   0.733  47.564  1.00  0.00     0.219 HD
ENDBRANCH  17  20
ENDBRANCH   1  15
BRANCH   7  22
HETATM   22  N3  UNL     1      26.710   3.228  51.053  1.00  0.00    -0.401 N 
HETATM   23  H10 UNL     1      26.803   3.676  50.096  1.00  0.00     0.156 HD
HETATM   24  H11 UNL     1      27.438   2.776  51.669  1.00  0.00     0.156 HD
ENDBRANCH   7  22
TORSDOF 6
ENDMDL
