MODEL 1
REMARK VINA RESULT:      -8.4      0.000      0.000
REMARK  1 active torsions:
REMARK  status: ('A' for Active; 'I' for Inactive)
REMARK    1  A    between atoms: C18_22  and  O2_23 
ROOT
HETATM    1  C1  UNL     1      28.537  -0.732  53.452  1.00  0.00     0.019 C 
HETATM    2  C2  UNL     1      27.351   0.137  53.705  1.00  0.00     0.061 C 
HETATM    3  C3  UNL     1      26.103  -0.719  53.735  1.00  0.00     0.178 C 
HETATM    4  O1  UNL     1      24.964   0.063  53.900  1.00  0.00    -0.390 OA
HETATM    5  C4  UNL     1      23.861  -0.789  53.915  1.00  0.00     0.173 C 
HETATM    6  C5  UNL     1      22.568   0.013  54.016  1.00  0.00     0.086 C 
HETATM    7  C6  UNL     1      22.447   0.917  52.839  1.00  0.00     0.053 A 
HETATM    8  N1  UNL     1      23.548   1.653  52.665  1.00  0.00    -0.237 NA
HETATM    9  C7  UNL     1      23.589   2.502  51.629  1.00  0.00     0.127 A 
HETATM   10  N2  UNL     1      22.514   2.558  50.824  1.00  0.00    -0.232 NA
HETATM   11  C8  UNL     1      21.406   1.817  50.998  1.00  0.00     0.086 A 
HETATM   12  C9  UNL     1      21.320   0.931  52.050  1.00  0.00     0.048 A 
HETATM   13  C10 UNL     1      19.981   0.488  51.693  1.00  0.00     0.083 A 
HETATM   14  N3  UNL     1      18.931  -0.306  51.973  1.00  0.00    -0.259 NA
HETATM   15  C11 UNL     1      17.848  -0.243  51.154  1.00  0.00     0.117 A 
HETATM   16  C12 UNL     1      17.884   0.633  50.080  1.00  0.00     0.020 A 
HETATM   17  C13 UNL     1      18.960   1.458  49.778  1.00  0.00     0.017 A 
HETATM   18  C14 UNL     1      20.054   1.383  50.619  1.00  0.00     0.024 A 
HETATM   19  C15 UNL     1      24.700   3.411  51.260  1.00  0.00     0.084 C 
HETATM   20  C16 UNL     1      25.931   2.683  50.778  1.00  0.00     0.037 C 
HETATM   21  C17 UNL     1      26.469   1.796  51.822  1.00  0.00     0.006 C 
HETATM   22  C18 UNL     1      27.224   1.223  52.717  1.00  0.00     0.045 C 
ENDROOT
BRANCH  22  23
HETATM   23  O2  UNL     1      28.109   2.216  52.358  1.00  0.00    -0.365 OA
HETATM   24  H19 UNL     1      28.985   1.934  51.930  1.00  0.00     0.217 HD
ENDBRANCH  22  23
TORSDOF 1
ENDMDL
MODEL 2
REMARK VINA RESULT:      -8.3      2.750      6.406
REMARK  1 active torsions:
REMARK  status: ('A' for Active; 'I' for Inactive)
REMARK    1  A    between atoms: C18_22  and  O2_23 
ROOT
HETATM    1  C1  UNL     1      18.847  -0.877  53.126  1.00  0.00     0.019 C 
HETATM    2  C2  UNL     1      19.892   0.111  53.520  1.00  0.00     0.061 C 
HETATM    3  C3  UNL     1      19.916   1.240  52.512  1.00  0.00     0.178 C 
HETATM    4  O1  UNL     1      20.926   2.151  52.804  1.00  0.00    -0.390 OA
HETATM    5  C4  UNL     1      20.889   3.154  51.837  1.00  0.00     0.173 C 
HETATM    6  C5  UNL     1      22.024   4.148  52.055  1.00  0.00     0.086 C 
HETATM    7  C6  UNL     1      23.332   3.445  51.949  1.00  0.00     0.053 A 
HETATM    8  N1  UNL     1      23.378   2.366  52.735  1.00  0.00    -0.237 NA
HETATM    9  C7  UNL     1      24.491   1.621  52.729  1.00  0.00     0.127 A 
HETATM   10  N2  UNL     1      25.498   2.008  51.926  1.00  0.00    -0.232 NA
HETATM   11  C8  UNL     1      25.452   3.094  51.135  1.00  0.00     0.086 A 
HETATM   12  C9  UNL     1      24.327   3.889  51.110  1.00  0.00     0.048 A 
HETATM   13  C10 UNL     1      24.885   4.813  50.134  1.00  0.00     0.083 A 
HETATM   14  N3  UNL     1      24.717   5.920  49.388  1.00  0.00    -0.259 NA
HETATM   15  C11 UNL     1      25.740   6.305  48.580  1.00  0.00     0.117 A 
HETATM   16  C12 UNL     1      26.896   5.539  48.568  1.00  0.00     0.020 A 
HETATM   17  C13 UNL     1      27.084   4.394  49.332  1.00  0.00     0.017 A 
HETATM   18  C14 UNL     1      26.034   4.014  50.149  1.00  0.00     0.024 A 
HETATM   19  C15 UNL     1      24.755   0.398  53.523  1.00  0.00     0.084 C 
HETATM   20  C16 UNL     1      23.906  -0.778  53.107  1.00  0.00     0.037 C 
HETATM   21  C17 UNL     1      22.473  -0.490  53.280  1.00  0.00     0.006 C 
HETATM   22  C18 UNL     1      21.225  -0.501  53.659  1.00  0.00     0.045 C 
ENDROOT
BRANCH  22  23
HETATM   23  O2  UNL     1      21.653  -1.548  54.446  1.00  0.00    -0.365 OA
HETATM   24  H19 UNL     1      21.398  -2.488  54.160  1.00  0.00     0.217 HD
ENDBRANCH  22  23
TORSDOF 1
ENDMDL
MODEL 3
REMARK VINA RESULT:      -8.3      2.665      7.226
REMARK  1 active torsions:
REMARK  status: ('A' for Active; 'I' for Inactive)
REMARK    1  A    between atoms: C18_22  and  O2_23 
ROOT
HETATM    1  C1  UNL     1      19.828   4.746  49.114  1.00  0.00     0.019 C 
HETATM    2  C2  UNL     1      20.305   4.237  50.432  1.00  0.00     0.061 C 
HETATM    3  C3  UNL     1      21.724   4.708  50.666  1.00  0.00     0.178 C 
HETATM    4  O1  UNL     1      22.233   4.197  51.855  1.00  0.00    -0.390 OA
HETATM    5  C4  UNL     1      23.536   4.668  52.000  1.00  0.00     0.173 C 
HETATM    6  C5  UNL     1      24.181   4.081  53.251  1.00  0.00     0.086 C 
HETATM    7  C6  UNL     1      24.230   2.597  53.138  1.00  0.00     0.053 A 
HETATM    8  N1  UNL     1      23.034   2.085  52.834  1.00  0.00    -0.237 NA
HETATM    9  C7  UNL     1      22.930   0.758  52.682  1.00  0.00     0.127 A 
HETATM   10  N2  UNL     1      24.043   0.021  52.844  1.00  0.00    -0.232 NA
HETATM   11  C8  UNL     1      25.246   0.536  53.149  1.00  0.00     0.086 A 
HETATM   12  C9  UNL     1      25.399   1.895  53.316  1.00  0.00     0.048 A 
HETATM   13  C10 UNL     1      26.821   1.797  53.607  1.00  0.00     0.083 A 
HETATM   14  N3  UNL     1      27.968   2.431  53.912  1.00  0.00    -0.259 NA
HETATM   15  C11 UNL     1      29.089   1.679  54.075  1.00  0.00     0.117 A 
HETATM   16  C12 UNL     1      28.989   0.305  53.918  1.00  0.00     0.020 A 
HETATM   17  C13 UNL     1      27.813  -0.364  53.604  1.00  0.00     0.017 A 
HETATM   18  C14 UNL     1      26.682   0.414  53.441  1.00  0.00     0.024 A 
HETATM   19  C15 UNL     1      21.707  -0.014  52.356  1.00  0.00     0.084 C 
HETATM   20  C16 UNL     1      21.200   0.238  50.956  1.00  0.00     0.037 C 
HETATM   21  C17 UNL     1      20.845   1.652  50.764  1.00  0.00     0.006 C 
HETATM   22  C18 UNL     1      20.211   2.770  50.540  1.00  0.00     0.045 C 
ENDROOT
BRANCH  22  23
HETATM   23  O2  UNL     1      19.130   1.928  50.394  1.00  0.00    -0.365 OA
HETATM   24  H19 UNL     1      18.399   2.207  49.748  1.00  0.00     0.217 HD
ENDBRANCH  22  23
TORSDOF 1
ENDMDL
MODEL 4
REMARK VINA RESULT:      -8.3      3.028      7.134
REMARK  1 active torsions:
REMARK  status: ('A' for Active; 'I' for Inactive)
REMARK    1  A    between atoms: C18_22  and  O2_23 
ROOT
HETATM    1  C1  UNL     1      16.224  -1.263  51.476  1.00  0.00     0.019 C 
HETATM    2  C2  UNL     1      17.140  -0.279  52.122  1.00  0.00     0.061 C 
HETATM    3  C3  UNL     1      17.891   0.482  51.050  1.00  0.00     0.178 C 
HETATM    4  O1  UNL     1      18.809   1.363  51.611  1.00  0.00    -0.390 OA
HETATM    5  C4  UNL     1      19.460   2.021  50.570  1.00  0.00     0.173 C 
HETATM    6  C5  UNL     1      20.538   2.951  51.116  1.00  0.00     0.086 C 
HETATM    7  C6  UNL     1      21.546   2.157  51.872  1.00  0.00     0.053 A 
HETATM    8  N1  UNL     1      20.972   1.371  52.786  1.00  0.00    -0.237 NA
HETATM    9  C7  UNL     1      21.758   0.583  53.532  1.00  0.00     0.127 A 
HETATM   10  N2  UNL     1      23.083   0.632  53.310  1.00  0.00    -0.232 NA
HETATM   11  C8  UNL     1      23.661   1.423  52.390  1.00  0.00     0.086 A 
HETATM   12  C9  UNL     1      22.892   2.251  51.601  1.00  0.00     0.048 A 
HETATM   13  C10 UNL     1      24.036   2.787  50.881  1.00  0.00     0.083 A 
HETATM   14  N3  UNL     1      24.493   3.621  49.929  1.00  0.00    -0.259 NA
HETATM   15  C11 UNL     1      25.834   3.666  49.712  1.00  0.00     0.117 A 
HETATM   16  C12 UNL     1      26.654   2.853  50.478  1.00  0.00     0.020 A 
HETATM   17  C13 UNL     1      26.197   1.987  51.464  1.00  0.00     0.017 A 
HETATM   18  C14 UNL     1      24.830   1.953  51.674  1.00  0.00     0.024 A 
HETATM   19  C15 UNL     1      21.334  -0.353  54.600  1.00  0.00     0.084 C 
HETATM   20  C16 UNL     1      20.554  -1.537  54.080  1.00  0.00     0.037 C 
HETATM   21  C17 UNL     1      19.317  -1.107  53.409  1.00  0.00     0.006 C 
HETATM   22  C18 UNL     1      18.072  -0.912  53.071  1.00  0.00     0.045 C 
ENDROOT
BRANCH  22  23
HETATM   23  O2  UNL     1      17.829  -1.695  54.179  1.00  0.00    -0.365 OA
HETATM   24  H19 UNL     1      17.294  -2.547  54.046  1.00  0.00     0.217 HD
ENDBRANCH  22  23
TORSDOF 1
ENDMDL
MODEL 5
REMARK VINA RESULT:      -8.0      3.575      6.976
REMARK  1 active torsions:
REMARK  status: ('A' for Active; 'I' for Inactive)
REMARK    1  A    between atoms: C18_22  and  O2_23 
ROOT
HETATM    1  C1  UNL     1      21.199   7.400  50.251  1.00  0.00     0.019 C 
HETATM    2  C2  UNL     1      21.861   6.098  49.953  1.00  0.00     0.061 C 
HETATM    3  C3  UNL     1      21.913   5.264  51.215  1.00  0.00     0.178 C 
HETATM    4  O1  UNL     1      22.586   4.067  50.997  1.00  0.00    -0.390 OA
HETATM    5  C4  UNL     1      22.597   3.359  52.198  1.00  0.00     0.173 C 
HETATM    6  C5  UNL     1      23.389   2.064  52.047  1.00  0.00     0.086 C 
HETATM    7  C6  UNL     1      24.796   2.380  51.678  1.00  0.00     0.053 A 
HETATM    8  N1  UNL     1      24.859   3.197  50.623  1.00  0.00    -0.237 NA
HETATM    9  C7  UNL     1      26.066   3.583  50.187  1.00  0.00     0.127 A 
HETATM   10  N2  UNL     1      27.144   3.121  50.845  1.00  0.00    -0.232 NA
HETATM   11  C8  UNL     1      27.082   2.299  51.906  1.00  0.00     0.086 A 
HETATM   12  C9  UNL     1      25.862   1.876  52.387  1.00  0.00     0.048 A 
HETATM   13  C10 UNL     1      26.450   1.079  53.452  1.00  0.00     0.083 A 
HETATM   14  N3  UNL     1      26.256   0.260  54.502  1.00  0.00    -0.259 NA
HETATM   15  C11 UNL     1      27.352  -0.203  55.161  1.00  0.00     0.117 A 
HETATM   16  C12 UNL     1      28.604   0.192  54.716  1.00  0.00     0.020 A 
HETATM   17  C13 UNL     1      28.820   1.037  53.634  1.00  0.00     0.017 A 
HETATM   18  C14 UNL     1      27.696   1.500  52.975  1.00  0.00     0.024 A 
HETATM   19  C15 UNL     1      26.362   4.472  49.039  1.00  0.00     0.084 C 
HETATM   20  C16 UNL     1      25.930   5.901  49.265  1.00  0.00     0.037 C 
HETATM   21  C17 UNL     1      24.477   5.992  49.478  1.00  0.00     0.006 C 
HETATM   22  C18 UNL     1      23.206   6.265  49.374  1.00  0.00     0.045 C 
ENDROOT
BRANCH  22  23
HETATM   23  O2  UNL     1      23.620   6.946  48.250  1.00  0.00    -0.365 OA
HETATM   24  H19 UNL     1      24.449   6.607  47.773  1.00  0.00     0.217 HD
ENDBRANCH  22  23
TORSDOF 1
ENDMDL
MODEL 6
REMARK VINA RESULT:      -8.0      2.251      4.119
REMARK  1 active torsions:
REMARK  status: ('A' for Active; 'I' for Inactive)
REMARK    1  A    between atoms: C18_22  and  O2_23 
ROOT
HETATM    1  C1  UNL     1      25.521   5.849  49.219  1.00  0.00     0.019 C 
HETATM    2  C2  UNL     1      25.115   4.414  49.225  1.00  0.00     0.061 C 
HETATM    3  C3  UNL     1      23.647   4.310  48.871  1.00  0.00     0.178 C 
HETATM    4  O1  UNL     1      23.209   2.992  48.932  1.00  0.00    -0.390 OA
HETATM    5  C4  UNL     1      21.855   2.976  48.599  1.00  0.00     0.173 C 
HETATM    6  C5  UNL     1      21.292   1.564  48.721  1.00  0.00     0.086 C 
HETATM    7  C6  UNL     1      21.434   1.089  50.125  1.00  0.00     0.053 A 
HETATM    8  N1  UNL     1      22.686   1.230  50.570  1.00  0.00    -0.237 NA
HETATM    9  C7  UNL     1      22.959   0.860  51.829  1.00  0.00     0.127 A 
HETATM   10  N2  UNL     1      21.950   0.369  52.569  1.00  0.00    -0.232 NA
HETATM   11  C8  UNL     1      20.690   0.227  52.122  1.00  0.00     0.086 A 
HETATM   12  C9  UNL     1      20.364   0.594  50.834  1.00  0.00     0.048 A 
HETATM   13  C10 UNL     1      18.966   0.216  50.978  1.00  0.00     0.083 A 
HETATM   14  N3  UNL     1      17.748   0.124  50.415  1.00  0.00    -0.259 NA
HETATM   15  C11 UNL     1      16.733  -0.375  51.170  1.00  0.00     0.117 A 
HETATM   16  C12 UNL     1      17.008  -0.759  52.473  1.00  0.00     0.020 A 
HETATM   17  C13 UNL     1      18.261  -0.670  53.068  1.00  0.00     0.017 A 
HETATM   18  C14 UNL     1      19.283  -0.161  52.288  1.00  0.00     0.024 A 
HETATM   19  C15 UNL     1      24.270   0.923  52.516  1.00  0.00     0.084 C 
HETATM   20  C16 UNL     1      24.741   2.334  52.775  1.00  0.00     0.037 C 
HETATM   21  C17 UNL     1      24.911   3.079  51.517  1.00  0.00     0.006 C 
HETATM   22  C18 UNL     1      25.396   3.751  50.510  1.00  0.00     0.045 C 
ENDROOT
BRANCH  22  23
HETATM   23  O2  UNL     1      26.576   3.612  51.207  1.00  0.00    -0.365 OA
HETATM   24  H19 UNL     1      27.111   2.761  51.065  1.00  0.00     0.217 HD
ENDBRANCH  22  23
TORSDOF 1
ENDMDL
MODEL 7
REMARK VINA RESULT:      -7.8      2.336      7.329
REMARK  1 active torsions:
REMARK  status: ('A' for Active; 'I' for Inactive)
REMARK    1  A    between atoms: C18_22  and  O2_23 
ROOT
HETATM    1  C1  UNL     1      18.381   0.625  50.090  1.00  0.00     0.019 C 
HETATM    2  C2  UNL     1      19.227   1.075  51.233  1.00  0.00     0.061 C 
HETATM    3  C3  UNL     1      20.555   1.572  50.704  1.00  0.00     0.178 C 
HETATM    4  O1  UNL     1      21.403   1.938  51.744  1.00  0.00    -0.390 OA
HETATM    5  C4  UNL     1      22.600   2.379  51.184  1.00  0.00     0.173 C 
HETATM    6  C5  UNL     1      23.606   2.725  52.277  1.00  0.00     0.086 C 
HETATM    7  C6  UNL     1      23.890   1.514  53.095  1.00  0.00     0.053 A 
HETATM    8  N1  UNL     1      22.767   0.939  53.534  1.00  0.00    -0.237 NA
HETATM    9  C7  UNL     1      22.868  -0.175  54.271  1.00  0.00     0.127 A 
HETATM   10  N2  UNL     1      24.102  -0.647  54.523  1.00  0.00    -0.232 NA
HETATM   11  C8  UNL     1      25.232  -0.069  54.083  1.00  0.00     0.086 A 
HETATM   12  C9  UNL     1      25.175   1.079  53.322  1.00  0.00     0.048 A 
HETATM   13  C10 UNL     1      26.621   1.175  53.186  1.00  0.00     0.083 A 
HETATM   14  N3  UNL     1      27.675   1.846  52.688  1.00  0.00    -0.259 NA
HETATM   15  C11 UNL     1      28.919   1.363  52.949  1.00  0.00     0.117 A 
HETATM   16  C12 UNL     1      29.032   0.210  53.710  1.00  0.00     0.020 A 
HETATM   17  C13 UNL     1      27.952  -0.494  54.232  1.00  0.00     0.017 A 
HETATM   18  C14 UNL     1      26.694   0.010  53.958  1.00  0.00     0.024 A 
HETATM   19  C15 UNL     1      21.761  -0.964  54.859  1.00  0.00     0.084 C 
HETATM   20  C16 UNL     1      20.912  -1.664  53.825  1.00  0.00     0.037 C 
HETATM   21  C17 UNL     1      20.277  -0.700  52.914  1.00  0.00     0.006 C 
HETATM   22  C18 UNL     1      19.421   0.020  52.243  1.00  0.00     0.045 C 
ENDROOT
BRANCH  22  23
HETATM   23  O2  UNL     1      18.503  -0.708  52.967  1.00  0.00    -0.365 OA
HETATM   24  H19 UNL     1      18.350  -0.444  53.935  1.00  0.00     0.217 HD
ENDBRANCH  22  23
TORSDOF 1
ENDMDL
MODEL 8
REMARK VINA RESULT:      -7.6      2.716      7.199
REMARK  1 active torsions:
REMARK  status: ('A' for Active; 'I' for Inactive)
REMARK    1  A    between atoms: C18_22  and  O2_23 
ROOT
HETATM    1  C1  UNL     1      18.493   4.481  49.050  1.00  0.00     0.019 C 
HETATM    2  C2  UNL     1      19.143   4.142  50.349  1.00  0.00     0.061 C 
HETATM    3  C3  UNL     1      20.634   4.379  50.237  1.00  0.00     0.178 C 
HETATM    4  O1  UNL     1      21.288   4.009  51.407  1.00  0.00    -0.390 OA
HETATM    5  C4  UNL     1      22.649   4.251  51.229  1.00  0.00     0.173 C 
HETATM    6  C5  UNL     1      23.437   3.794  52.452  1.00  0.00     0.086 C 
HETATM    7  C6  UNL     1      23.244   2.332  52.654  1.00  0.00     0.053 A 
HETATM    8  N1  UNL     1      21.949   2.002  52.670  1.00  0.00    -0.237 NA
HETATM    9  C7  UNL     1      21.623   0.712  52.826  1.00  0.00     0.127 A 
HETATM   10  N2  UNL     1      22.625  -0.175  52.955  1.00  0.00    -0.232 NA
HETATM   11  C8  UNL     1      23.928   0.156  52.939  1.00  0.00     0.086 A 
HETATM   12  C9  UNL     1      24.309   1.471  52.782  1.00  0.00     0.048 A 
HETATM   13  C10 UNL     1      25.731   1.167  52.847  1.00  0.00     0.083 A 
HETATM   14  N3  UNL     1      26.996   1.623  52.814  1.00  0.00    -0.259 NA
HETATM   15  C11 UNL     1      28.003   0.721  52.947  1.00  0.00     0.117 A 
HETATM   16  C12 UNL     1      27.673  -0.616  53.108  1.00  0.00     0.020 A 
HETATM   17  C13 UNL     1      26.372  -1.103  53.143  1.00  0.00     0.017 A 
HETATM   18  C14 UNL     1      25.358  -0.173  53.007  1.00  0.00     0.024 A 
HETATM   19  C15 UNL     1      20.260   0.133  52.879  1.00  0.00     0.084 C 
HETATM   20  C16 UNL     1      19.526   0.212  51.563  1.00  0.00     0.037 C 
HETATM   21  C17 UNL     1      19.351   1.608  51.133  1.00  0.00     0.006 C 
HETATM   22  C18 UNL     1      18.857   2.764  50.782  1.00  0.00     0.045 C 
ENDROOT
BRANCH  22  23
HETATM   23  O2  UNL     1      17.657   2.123  51.002  1.00  0.00    -0.365 OA
HETATM   24  H19 UNL     1      17.162   2.333  51.863  1.00  0.00     0.217 HD
ENDBRANCH  22  23
TORSDOF 1
ENDMDL
MODEL 9
REMARK VINA RESULT:      -7.2      3.224      5.967
REMARK  1 active torsions:
REMARK  status: ('A' for Active; 'I' for Inactive)
REMARK    1  A    between atoms: C18_22  and  O2_23 
ROOT
HETATM    1  C1  UNL     1      21.602   8.063  49.213  1.00  0.00     0.019 C 
HETATM    2  C2  UNL     1      21.886   6.612  49.011  1.00  0.00     0.061 C 
HETATM    3  C3  UNL     1      21.191   5.813  50.092  1.00  0.00     0.178 C 
HETATM    4  O1  UNL     1      21.486   4.458  49.981  1.00  0.00    -0.390 OA
HETATM    5  C4  UNL     1      20.818   3.791  51.006  1.00  0.00     0.173 C 
HETATM    6  C5  UNL     1      21.161   2.305  50.989  1.00  0.00     0.086 C 
HETATM    7  C6  UNL     1      22.625   2.128  51.192  1.00  0.00     0.053 A 
HETATM    8  N1  UNL     1      23.336   2.874  50.341  1.00  0.00    -0.237 NA
HETATM    9  C7  UNL     1      24.673   2.831  50.420  1.00  0.00     0.127 A 
HETATM   10  N2  UNL     1      25.218   2.035  51.357  1.00  0.00    -0.232 NA
HETATM   11  C8  UNL     1      24.503   1.284  52.213  1.00  0.00     0.086 A 
HETATM   12  C9  UNL     1      23.126   1.297  52.167  1.00  0.00     0.048 A 
HETATM   13  C10 UNL     1      22.985   0.350  53.263  1.00  0.00     0.083 A 
HETATM   14  N3  UNL     1      22.161  -0.353  54.061  1.00  0.00    -0.259 NA
HETATM   15  C11 UNL     1      22.720  -1.156  55.005  1.00  0.00     0.117 A 
HETATM   16  C12 UNL     1      24.103  -1.206  55.093  1.00  0.00     0.020 A 
HETATM   17  C13 UNL     1      24.966  -0.485  54.276  1.00  0.00     0.017 A 
HETATM   18  C14 UNL     1      24.383   0.327  53.321  1.00  0.00     0.024 A 
HETATM   19  C15 UNL     1      25.644   3.566  49.577  1.00  0.00     0.084 C 
HETATM   20  C16 UNL     1      25.629   5.057  49.811  1.00  0.00     0.037 C 
HETATM   21  C17 UNL     1      24.311   5.632  49.498  1.00  0.00     0.006 C 
HETATM   22  C18 UNL     1      23.329   6.317  48.980  1.00  0.00     0.045 C 
ENDROOT
BRANCH  22  23
HETATM   23  O2  UNL     1      24.329   6.816  48.175  1.00  0.00    -0.365 OA
HETATM   24  H19 UNL     1      24.766   7.689  48.452  1.00  0.00     0.217 HD
ENDBRANCH  22  23
TORSDOF 1
ENDMDL
