MODEL 1
REMARK VINA RESULT:      -8.6      0.000      0.000
REMARK  8 active torsions:
REMARK  status: ('A' for Active; 'I' for Inactive)
REMARK    1  A    between atoms: N1_2  and  C2_3 
REMARK    2  A    between atoms: C9_10  and  O1_11 
REMARK    3  A    between atoms: C18_20  and  C19_21 
REMARK    4  A    between atoms: C19_21  and  C20_22 
REMARK    5  A    between atoms: C20_22  and  C21_23 
REMARK    6  A    between atoms: C21_23  and  O2_24 
REMARK    7  A    between atoms: O2_24  and  C22_25 
REMARK    8  A    between atoms: N2_31  and  O3_32 
ROOT
HETATM    1  C2  UNL     1      23.432   3.776  50.548  1.00  0.00     0.225 A 
HETATM    2  C3  UNL     1      22.099   4.365  50.796  1.00  0.00    -0.003 A 
HETATM    3  C4  UNL     1      21.169   5.280  50.966  1.00  0.00     0.011 C 
HETATM    4  C5  UNL     1      22.081   6.463  50.832  1.00  0.00     0.008 C 
HETATM    5  C6  UNL     1      23.415   6.247  50.629  1.00  0.00    -0.047 C 
HETATM    6  C7  UNL     1      23.838   7.660  50.571  1.00  0.00     0.011 C 
HETATM    7  C8  UNL     1      24.872   8.491  50.337  1.00  0.00     0.037 C 
HETATM    8  C9  UNL     1      26.259   8.110  49.969  1.00  0.00     0.068 C 
HETATM    9  C11 UNL     1      26.768   7.035  49.319  1.00  0.00     0.036 C 
HETATM   10  C12 UNL     1      26.046   5.867  48.756  1.00  0.00    -0.001 C 
HETATM   11  C13 UNL     1      25.098   5.146  49.324  1.00  0.00    -0.014 C 
HETATM   12  C14 UNL     1      24.300   5.007  50.566  1.00  0.00     0.089 C 
HETATM   13  C15 UNL     1      22.630   3.028  51.364  1.00  0.00     0.024 A 
HETATM   14  C16 UNL     1      22.589   1.899  52.076  1.00  0.00     0.074 A 
HETATM   15  C17 UNL     1      23.531   0.839  52.311  1.00  0.00     0.060 A 
HETATM   16  C18 UNL     1      22.683   0.187  53.089  1.00  0.00     0.043 A 
HETATM   17  N2  UNL     1      21.682   1.174  52.926  1.00  0.00    -0.228 N 
ENDROOT
BRANCH   1  18
HETATM   18  N1  UNL     1      23.592   3.111  49.181  1.00  0.00     0.099 N 
HETATM   19  C1  UNL     1      22.218   2.911  48.735  1.00  0.00     0.308 C 
HETATM   20  H4  UNL     1      24.035   3.776  48.525  1.00  0.00     0.317 HD
ENDBRANCH   1  18
BRANCH  17  21
HETATM   21  O3  UNL     1      20.420   1.516  53.276  1.00  0.00    -0.282 OA
HETATM   22  H32 UNL     1      20.359   2.405  53.717  1.00  0.00     0.245 HD
ENDBRANCH  17  21
BRANCH  16  23
HETATM   23  C19 UNL     1      22.612  -1.060  53.889  1.00  0.00     0.062 C 
BRANCH  23  24
HETATM   24  C20 UNL     1      23.249  -0.893  55.232  1.00  0.00     0.033 C 
BRANCH  24  25
HETATM   25  C21 UNL     1      24.697  -1.300  55.290  1.00  0.00     0.175 C 
BRANCH  25  26
HETATM   26  O2  UNL     1      25.510  -0.198  54.994  1.00  0.00    -0.356 OA
BRANCH  26  27
HETATM   27  C22 UNL     1      26.692  -0.266  54.281  1.00  0.00     0.042 C 
HETATM   28  C23 UNL     1      27.847   0.265  54.659  1.00  0.00     0.005 C 
HETATM   29  C24 UNL     1      29.045   0.115  53.791  1.00  0.00     0.029 C 
HETATM   30  C25 UNL     1      29.146  -1.320  53.373  1.00  0.00     0.004 C 
HETATM   31  C26 UNL     1      27.873  -1.891  52.832  1.00  0.00     0.007 C 
HETATM   32  C27 UNL     1      26.679  -0.989  52.985  1.00  0.00     0.064 C 
ENDBRANCH  26  27
ENDBRANCH  25  26
ENDBRANCH  24  25
ENDBRANCH  23  24
ENDBRANCH  16  23
BRANCH   8  33
HETATM   33  O1  UNL     1      27.205   9.035  50.373  1.00  0.00    -0.356 OA
HETATM   34  C10 UNL     1      28.294   9.336  49.493  1.00  0.00     0.210 C 
ENDBRANCH   8  33
TORSDOF 8
ENDMDL
MODEL 2
REMARK VINA RESULT:      -8.3      2.371      7.830
REMARK  8 active torsions:
REMARK  status: ('A' for Active; 'I' for Inactive)
REMARK    1  A    between atoms: N1_2  and  C2_3 
REMARK    2  A    between atoms: C9_10  and  O1_11 
REMARK    3  A    between atoms: C18_20  and  C19_21 
REMARK    4  A    between atoms: C19_21  and  C20_22 
REMARK    5  A    between atoms: C20_22  and  C21_23 
REMARK    6  A    between atoms: C21_23  and  O2_24 
REMARK    7  A    between atoms: O2_24  and  C22_25 
REMARK    8  A    between atoms: N2_31  and  O3_32 
ROOT
HETATM    1  C2  UNL     1      23.350   2.459  51.358  1.00  0.00     0.225 A 
HETATM    2  C3  UNL     1      22.176   1.591  51.587  1.00  0.00    -0.003 A 
HETATM    3  C4  UNL     1      21.457   0.585  52.038  1.00  0.00     0.011 C 
HETATM    4  C5  UNL     1      22.579  -0.103  52.761  1.00  0.00     0.008 C 
HETATM    5  C6  UNL     1      23.829   0.444  52.707  1.00  0.00    -0.047 C 
HETATM    6  C7  UNL     1      24.521  -0.565  53.534  1.00  0.00     0.011 C 
HETATM    7  C8  UNL     1      25.686  -0.891  54.127  1.00  0.00     0.037 C 
HETATM    8  C9  UNL     1      26.947  -0.108  54.109  1.00  0.00     0.068 C 
HETATM    9  C11 UNL     1      27.196   1.218  53.989  1.00  0.00     0.036 C 
HETATM   10  C12 UNL     1      26.227   2.332  53.832  1.00  0.00    -0.001 C 
HETATM   11  C13 UNL     1      25.186   2.395  53.023  1.00  0.00    -0.014 C 
HETATM   12  C14 UNL     1      24.445   1.637  51.985  1.00  0.00     0.089 C 
HETATM   13  C15 UNL     1      22.460   2.430  50.320  1.00  0.00     0.024 A 
HETATM   14  C16 UNL     1      22.234   2.911  49.095  1.00  0.00     0.074 A 
HETATM   15  C17 UNL     1      22.957   3.802  48.229  1.00  0.00     0.060 A 
HETATM   16  C18 UNL     1      22.040   3.709  47.281  1.00  0.00     0.043 A 
HETATM   17  N2  UNL     1      21.247   2.824  48.050  1.00  0.00    -0.228 N 
ENDROOT
BRANCH   1  18
HETATM   18  N1  UNL     1      23.300   3.805  52.082  1.00  0.00     0.099 N 
HETATM   19  C1  UNL     1      21.873   4.042  52.265  1.00  0.00     0.308 C 
HETATM   20  H4  UNL     1      23.719   3.704  53.022  1.00  0.00     0.317 HD
ENDBRANCH   1  18
BRANCH  17  21
HETATM   21  O3  UNL     1      20.100   2.107  48.051  1.00  0.00    -0.282 OA
HETATM   22  H32 UNL     1      19.287   2.660  47.912  1.00  0.00     0.245 HD
ENDBRANCH  17  21
BRANCH  16  23
HETATM   23  C19 UNL     1      21.765   4.228  45.918  1.00  0.00     0.062 C 
BRANCH  23  24
HETATM   24  C20 UNL     1      21.420   5.683  45.941  1.00  0.00     0.033 C 
BRANCH  24  25
HETATM   25  C21 UNL     1      22.607   6.604  46.026  1.00  0.00     0.175 C 
BRANCH  25  26
HETATM   26  O2  UNL     1      22.534   7.362  47.203  1.00  0.00    -0.356 OA
BRANCH  26  27
HETATM   27  C22 UNL     1      23.460   7.307  48.227  1.00  0.00     0.042 C 
HETATM   28  C23 UNL     1      23.170   7.237  49.520  1.00  0.00     0.005 C 
HETATM   29  C24 UNL     1      24.270   7.184  50.519  1.00  0.00     0.029 C 
HETATM   30  C25 UNL     1      25.267   6.162  50.066  1.00  0.00     0.004 C 
HETATM   31  C26 UNL     1      25.690   6.309  48.638  1.00  0.00     0.007 C 
HETATM   32  C27 UNL     1      24.899   7.328  47.864  1.00  0.00     0.064 C 
ENDBRANCH  26  27
ENDBRANCH  25  26
ENDBRANCH  24  25
ENDBRANCH  23  24
ENDBRANCH  16  23
BRANCH   8  33
HETATM   33  O1  UNL     1      28.079  -0.893  54.241  1.00  0.00    -0.356 OA
HETATM   34  C10 UNL     1      29.343  -0.355  53.834  1.00  0.00     0.210 C 
ENDBRANCH   8  33
TORSDOF 8
ENDMDL
MODEL 3
REMARK VINA RESULT:      -8.0      3.007      4.942
REMARK  8 active torsions:
REMARK  status: ('A' for Active; 'I' for Inactive)
REMARK    1  A    between atoms: N1_2  and  C2_3 
REMARK    2  A    between atoms: C9_10  and  O1_11 
REMARK    3  A    between atoms: C18_20  and  C19_21 
REMARK    4  A    between atoms: C19_21  and  C20_22 
REMARK    5  A    between atoms: C20_22  and  C21_23 
REMARK    6  A    between atoms: C21_23  and  O2_24 
REMARK    7  A    between atoms: O2_24  and  C22_25 
REMARK    8  A    between atoms: N2_31  and  O3_32 
ROOT
HETATM    1  C2  UNL     1      24.105   4.680  50.234  1.00  0.00     0.225 A 
HETATM    2  C3  UNL     1      24.839   3.396  50.208  1.00  0.00    -0.003 A 
HETATM    3  C4  UNL     1      25.818   2.541  50.003  1.00  0.00     0.011 C 
HETATM    4  C5  UNL     1      26.772   3.531  49.400  1.00  0.00     0.008 C 
HETATM    5  C6  UNL     1      26.368   4.827  49.249  1.00  0.00    -0.047 C 
HETATM    6  C7  UNL     1      27.609   5.351  48.645  1.00  0.00     0.011 C 
HETATM    7  C8  UNL     1      28.244   6.462  48.223  1.00  0.00     0.037 C 
HETATM    8  C9  UNL     1      27.730   7.854  48.261  1.00  0.00     0.068 C 
HETATM    9  C11 UNL     1      26.843   8.477  49.074  1.00  0.00     0.036 C 
HETATM   10  C12 UNL     1      26.089   7.917  50.224  1.00  0.00    -0.001 C 
HETATM   11  C13 UNL     1      25.431   6.775  50.286  1.00  0.00    -0.014 C 
HETATM   12  C14 UNL     1      25.063   5.576  49.494  1.00  0.00     0.089 C 
HETATM   13  C15 UNL     1      23.313   3.582  50.044  1.00  0.00     0.024 A 
HETATM   14  C16 UNL     1      22.047   3.201  49.853  1.00  0.00     0.074 A 
HETATM   15  C17 UNL     1      20.801   3.910  49.753  1.00  0.00     0.060 A 
HETATM   16  C18 UNL     1      20.119   2.791  49.574  1.00  0.00     0.043 A 
HETATM   17  N2  UNL     1      21.286   1.995  49.657  1.00  0.00    -0.228 N 
ENDROOT
BRANCH   1  18
HETATM   18  N1  UNL     1      23.899   5.267  51.631  1.00  0.00     0.099 N 
HETATM   19  C1  UNL     1      23.783   4.090  52.484  1.00  0.00     0.308 C 
HETATM   20  H4  UNL     1      24.752   5.774  51.919  1.00  0.00     0.317 HD
ENDBRANCH   1  18
BRANCH  17  21
HETATM   21  O3  UNL     1      21.744   0.723  49.610  1.00  0.00    -0.282 OA
HETATM   22  H32 UNL     1      21.715   0.324  48.700  1.00  0.00     0.245 HD
ENDBRANCH  17  21
BRANCH  16  23
HETATM   23  C19 UNL     1      18.721   2.341  49.359  1.00  0.00     0.062 C 
BRANCH  23  24
HETATM   24  C20 UNL     1      18.386   1.155  50.207  1.00  0.00     0.033 C 
BRANCH  24  25
HETATM   25  C21 UNL     1      18.423   1.418  51.688  1.00  0.00     0.175 C 
BRANCH  25  26
HETATM   26  O2  UNL     1      18.749   0.237  52.371  1.00  0.00    -0.356 OA
BRANCH  26  27
HETATM   27  C22 UNL     1      19.903   0.053  53.107  1.00  0.00     0.042 C 
HETATM   28  C23 UNL     1      20.218  -1.049  53.776  1.00  0.00     0.005 C 
HETATM   29  C24 UNL     1      21.498  -1.111  54.531  1.00  0.00     0.029 C 
HETATM   30  C25 UNL     1      22.594  -0.610  53.640  1.00  0.00     0.004 C 
HETATM   31  C26 UNL     1      22.292   0.695  52.973  1.00  0.00     0.007 C 
HETATM   32  C27 UNL     1      20.878   1.172  53.162  1.00  0.00     0.064 C 
ENDBRANCH  26  27
ENDBRANCH  25  26
ENDBRANCH  24  25
ENDBRANCH  23  24
ENDBRANCH  16  23
BRANCH   8  33
HETATM   33  O1  UNL     1      28.264   8.661  47.273  1.00  0.00    -0.356 OA
HETATM   34  C10 UNL     1      27.494   9.772  46.798  1.00  0.00     0.210 C 
ENDBRANCH   8  33
TORSDOF 8
ENDMDL
MODEL 4
REMARK VINA RESULT:      -8.0      3.158      5.733
REMARK  8 active torsions:
REMARK  status: ('A' for Active; 'I' for Inactive)
REMARK    1  A    between atoms: N1_2  and  C2_3 
REMARK    2  A    between atoms: C9_10  and  O1_11 
REMARK    3  A    between atoms: C18_20  and  C19_21 
REMARK    4  A    between atoms: C19_21  and  C20_22 
REMARK    5  A    between atoms: C20_22  and  C21_23 
REMARK    6  A    between atoms: C21_23  and  O2_24 
REMARK    7  A    between atoms: O2_24  and  C22_25 
REMARK    8  A    between atoms: N2_31  and  O3_32 
ROOT
HETATM    1  C2  UNL     1      27.311   7.469  48.397  1.00  0.00     0.225 A 
HETATM    2  C3  UNL     1      27.197   8.523  49.427  1.00  0.00    -0.003 A 
HETATM    3  C4  UNL     1      27.546   9.516  50.218  1.00  0.00     0.011 C 
HETATM    4  C5  UNL     1      28.978   9.579  49.773  1.00  0.00     0.008 C 
HETATM    5  C6  UNL     1      29.416   8.689  48.834  1.00  0.00    -0.047 C 
HETATM    6  C7  UNL     1      30.815   9.154  48.758  1.00  0.00     0.011 C 
HETATM    7  C8  UNL     1      31.989   9.012  48.113  1.00  0.00     0.037 C 
HETATM    8  C9  UNL     1      32.283   8.092  46.986  1.00  0.00     0.068 C 
HETATM    9  C11 UNL     1      31.502   7.561  46.014  1.00  0.00     0.036 C 
HETATM   10  C12 UNL     1      30.049   7.758  45.783  1.00  0.00    -0.001 C 
HETATM   11  C13 UNL     1      29.073   7.717  46.670  1.00  0.00    -0.014 C 
HETATM   12  C14 UNL     1      28.789   7.503  48.110  1.00  0.00     0.089 C 
HETATM   13  C15 UNL     1      26.429   7.182  49.402  1.00  0.00     0.024 A 
HETATM   14  C16 UNL     1      25.581   6.248  49.842  1.00  0.00     0.074 A 
HETATM   15  C17 UNL     1      25.189   4.954  49.356  1.00  0.00     0.060 A 
HETATM   16  C18 UNL     1      24.360   4.766  50.368  1.00  0.00     0.043 A 
HETATM   17  N2  UNL     1      24.673   6.025  50.936  1.00  0.00    -0.228 N 
ENDROOT
BRANCH   1  18
HETATM   18  N1  UNL     1      26.573   7.770  47.092  1.00  0.00     0.099 N 
HETATM   19  C1  UNL     1      25.658   8.846  47.456  1.00  0.00     0.308 C 
HETATM   20  H4  UNL     1      27.240   8.152  46.401  1.00  0.00     0.317 HD
ENDBRANCH   1  18
BRANCH  17  21
HETATM   21  O3  UNL     1      24.405   6.851  51.973  1.00  0.00    -0.282 OA
HETATM   22  H32 UNL     1      23.708   7.530  51.770  1.00  0.00     0.245 HD
ENDBRANCH  17  21
BRANCH  16  23
HETATM   23  C19 UNL     1      23.412   3.746  50.880  1.00  0.00     0.062 C 
BRANCH  23  24
HETATM   24  C20 UNL     1      24.021   2.924  51.971  1.00  0.00     0.033 C 
BRANCH  24  25
HETATM   25  C21 UNL     1      25.018   1.901  51.498  1.00  0.00     0.175 C 
BRANCH  25  26
HETATM   26  O2  UNL     1      26.299   2.242  51.955  1.00  0.00    -0.356 OA
BRANCH  26  27
HETATM   27  C22 UNL     1      26.906   1.688  53.066  1.00  0.00     0.042 C 
HETATM   28  C23 UNL     1      26.422   0.682  53.782  1.00  0.00     0.005 C 
HETATM   29  C24 UNL     1      27.183   0.183  54.959  1.00  0.00     0.029 C 
HETATM   30  C25 UNL     1      28.613   0.003  54.551  1.00  0.00     0.004 C 
HETATM   31  C26 UNL     1      29.202   1.184  53.846  1.00  0.00     0.007 C 
HETATM   32  C27 UNL     1      28.205   2.257  53.502  1.00  0.00     0.064 C 
ENDBRANCH  26  27
ENDBRANCH  25  26
ENDBRANCH  24  25
ENDBRANCH  23  24
ENDBRANCH  16  23
BRANCH   8  33
HETATM   33  O1  UNL     1      33.611   7.708  46.925  1.00  0.00    -0.356 OA
HETATM   34  C10 UNL     1      34.348   7.580  48.146  1.00  0.00     0.210 C 
ENDBRANCH   8  33
TORSDOF 8
ENDMDL
MODEL 5
REMARK VINA RESULT:      -7.8      3.575      8.505
REMARK  8 active torsions:
REMARK  status: ('A' for Active; 'I' for Inactive)
REMARK    1  A    between atoms: N1_2  and  C2_3 
REMARK    2  A    between atoms: C9_10  and  O1_11 
REMARK    3  A    between atoms: C18_20  and  C19_21 
REMARK    4  A    between atoms: C19_21  and  C20_22 
REMARK    5  A    between atoms: C20_22  and  C21_23 
REMARK    6  A    between atoms: C21_23  and  O2_24 
REMARK    7  A    between atoms: O2_24  and  C22_25 
REMARK    8  A    between atoms: N2_31  and  O3_32 
ROOT
HETATM    1  C2  UNL     1      23.339   2.405  51.307  1.00  0.00     0.225 A 
HETATM    2  C3  UNL     1      22.127   1.627  51.640  1.00  0.00    -0.003 A 
HETATM    3  C4  UNL     1      21.368   0.708  52.197  1.00  0.00     0.011 C 
HETATM    4  C5  UNL     1      22.469   0.032  52.962  1.00  0.00     0.008 C 
HETATM    5  C6  UNL     1      23.745   0.504  52.834  1.00  0.00    -0.047 C 
HETATM    6  C7  UNL     1      24.403  -0.458  53.740  1.00  0.00     0.011 C 
HETATM    7  C8  UNL     1      25.562  -0.789  54.341  1.00  0.00     0.037 C 
HETATM    8  C9  UNL     1      26.861  -0.080  54.226  1.00  0.00     0.068 C 
HETATM    9  C11 UNL     1      27.176   1.214  53.976  1.00  0.00     0.036 C 
HETATM   10  C12 UNL     1      26.262   2.358  53.730  1.00  0.00    -0.001 C 
HETATM   11  C13 UNL     1      25.208   2.400  52.938  1.00  0.00    -0.014 C 
HETATM   12  C14 UNL     1      24.405   1.589  51.991  1.00  0.00     0.089 C 
HETATM   13  C15 UNL     1      22.425   2.326  50.294  1.00  0.00     0.024 A 
HETATM   14  C16 UNL     1      22.196   2.701  49.032  1.00  0.00     0.074 A 
HETATM   15  C17 UNL     1      22.944   3.466  48.072  1.00  0.00     0.060 A 
HETATM   16  C18 UNL     1      22.002   3.333  47.154  1.00  0.00     0.043 A 
HETATM   17  N2  UNL     1      21.183   2.569  48.019  1.00  0.00    -0.228 N 
ENDROOT
BRANCH   1  18
HETATM   18  N1  UNL     1      23.375   3.814  51.901  1.00  0.00     0.099 N 
HETATM   19  C1  UNL     1      21.994   4.050  52.305  1.00  0.00     0.308 C 
HETATM   20  H4  UNL     1      23.952   3.810  52.759  1.00  0.00     0.317 HD
ENDBRANCH   1  18
BRANCH  17  21
HETATM   21  O3  UNL     1      20.001   1.917  48.108  1.00  0.00    -0.282 OA
HETATM   22  H32 UNL     1      19.516   1.854  47.243  1.00  0.00     0.245 HD
ENDBRANCH  17  21
BRANCH  16  23
HETATM   23  C19 UNL     1      21.723   3.736  45.753  1.00  0.00     0.062 C 
BRANCH  23  24
HETATM   24  C20 UNL     1      20.877   4.968  45.690  1.00  0.00     0.033 C 
BRANCH  24  25
HETATM   25  C21 UNL     1      19.398   4.703  45.602  1.00  0.00     0.175 C 
BRANCH  25  26
HETATM   26  O2  UNL     1      18.707   5.601  46.428  1.00  0.00    -0.356 OA
BRANCH  26  27
HETATM   27  C22 UNL     1      18.456   5.393  47.771  1.00  0.00     0.042 C 
HETATM   28  C23 UNL     1      17.587   4.519  48.262  1.00  0.00     0.005 C 
HETATM   29  C24 UNL     1      17.417   4.399  49.735  1.00  0.00     0.029 C 
HETATM   30  C25 UNL     1      18.776   4.320  50.360  1.00  0.00     0.004 C 
HETATM   31  C26 UNL     1      19.726   5.379  49.898  1.00  0.00     0.007 C 
HETATM   32  C27 UNL     1      19.213   6.209  48.752  1.00  0.00     0.064 C 
ENDBRANCH  26  27
ENDBRANCH  25  26
ENDBRANCH  24  25
ENDBRANCH  23  24
ENDBRANCH  16  23
BRANCH   8  33
HETATM   33  O1  UNL     1      27.954  -0.908  54.412  1.00  0.00    -0.356 OA
HETATM   34  C10 UNL     1      28.961  -0.960  53.395  1.00  0.00     0.210 C 
ENDBRANCH   8  33
TORSDOF 8
ENDMDL
MODEL 6
REMARK VINA RESULT:      -7.8      2.867      5.221
REMARK  8 active torsions:
REMARK  status: ('A' for Active; 'I' for Inactive)
REMARK    1  A    between atoms: N1_2  and  C2_3 
REMARK    2  A    between atoms: C9_10  and  O1_11 
REMARK    3  A    between atoms: C18_20  and  C19_21 
REMARK    4  A    between atoms: C19_21  and  C20_22 
REMARK    5  A    between atoms: C20_22  and  C21_23 
REMARK    6  A    between atoms: C21_23  and  O2_24 
REMARK    7  A    between atoms: O2_24  and  C22_25 
REMARK    8  A    between atoms: N2_31  and  O3_32 
ROOT
HETATM    1  C2  UNL     1      25.141   5.991  49.733  1.00  0.00     0.225 A 
HETATM    2  C3  UNL     1      25.840   4.698  49.571  1.00  0.00    -0.003 A 
HETATM    3  C4  UNL     1      26.782   3.840  49.241  1.00  0.00     0.011 C 
HETATM    4  C5  UNL     1      27.713   4.849  48.634  1.00  0.00     0.008 C 
HETATM    5  C6  UNL     1      27.330   6.159  48.597  1.00  0.00    -0.047 C 
HETATM    6  C7  UNL     1      28.536   6.698  47.937  1.00  0.00     0.011 C 
HETATM    7  C8  UNL     1      29.166   7.822  47.542  1.00  0.00     0.037 C 
HETATM    8  C9  UNL     1      28.688   9.218  47.706  1.00  0.00     0.068 C 
HETATM    9  C11 UNL     1      27.877   9.804  48.620  1.00  0.00     0.036 C 
HETATM   10  C12 UNL     1      27.195   9.184  49.784  1.00  0.00    -0.001 C 
HETATM   11  C13 UNL     1      26.516   8.053  49.821  1.00  0.00    -0.014 C 
HETATM   12  C14 UNL     1      26.064   6.916  48.983  1.00  0.00     0.089 C 
HETATM   13  C15 UNL     1      24.311   4.923  49.532  1.00  0.00     0.024 A 
HETATM   14  C16 UNL     1      23.026   4.579  49.409  1.00  0.00     0.074 A 
HETATM   15  C17 UNL     1      21.793   5.317  49.446  1.00  0.00     0.060 A 
HETATM   16  C18 UNL     1      21.074   4.225  49.246  1.00  0.00     0.043 A 
HETATM   17  N2  UNL     1      22.225   3.403  49.193  1.00  0.00    -0.228 N 
ENDROOT
BRANCH   1  18
HETATM   18  N1  UNL     1      25.049   6.490  51.175  1.00  0.00     0.099 N 
HETATM   19  C1  UNL     1      23.896   7.382  51.156  1.00  0.00     0.308 C 
HETATM   20  H4  UNL     1      24.815   5.698  51.798  1.00  0.00     0.317 HD
ENDBRANCH   1  18
BRANCH  17  21
HETATM   21  O3  UNL     1      22.649   2.129  49.032  1.00  0.00    -0.282 OA
HETATM   22  H32 UNL     1      22.377   1.727  48.165  1.00  0.00     0.245 HD
ENDBRANCH  17  21
BRANCH  16  23
HETATM   23  C19 UNL     1      19.654   3.817  49.106  1.00  0.00     0.062 C 
BRANCH  23  24
HETATM   24  C20 UNL     1      19.227   2.913  50.220  1.00  0.00     0.033 C 
BRANCH  24  25
HETATM   25  C21 UNL     1      19.538   3.432  51.597  1.00  0.00     0.175 C 
BRANCH  25  26
HETATM   26  O2  UNL     1      19.985   2.380  52.409  1.00  0.00    -0.356 OA
BRANCH  26  27
HETATM   27  C22 UNL     1      21.235   1.799  52.318  1.00  0.00     0.042 C 
HETATM   28  C23 UNL     1      22.388   2.424  52.523  1.00  0.00     0.005 C 
HETATM   29  C24 UNL     1      23.665   1.673  52.391  1.00  0.00     0.029 C 
HETATM   30  C25 UNL     1      23.533   0.384  53.143  1.00  0.00     0.004 C 
HETATM   31  C26 UNL     1      22.289  -0.385  52.827  1.00  0.00     0.007 C 
HETATM   32  C27 UNL     1      21.307   0.359  51.963  1.00  0.00     0.064 C 
ENDBRANCH  26  27
ENDBRANCH  25  26
ENDBRANCH  24  25
ENDBRANCH  23  24
ENDBRANCH  16  23
BRANCH   8  33
HETATM   33  O1  UNL     1      29.169  10.078  46.735  1.00  0.00    -0.356 OA
HETATM   34  C10 UNL     1      29.800   9.524  45.574  1.00  0.00     0.210 C 
ENDBRANCH   8  33
TORSDOF 8
ENDMDL
MODEL 7
REMARK VINA RESULT:      -7.6      6.036      9.464
REMARK  8 active torsions:
REMARK  status: ('A' for Active; 'I' for Inactive)
REMARK    1  A    between atoms: N1_2  and  C2_3 
REMARK    2  A    between atoms: C9_10  and  O1_11 
REMARK    3  A    between atoms: C18_20  and  C19_21 
REMARK    4  A    between atoms: C19_21  and  C20_22 
REMARK    5  A    between atoms: C20_22  and  C21_23 
REMARK    6  A    between atoms: C21_23  and  O2_24 
REMARK    7  A    between atoms: O2_24  and  C22_25 
REMARK    8  A    between atoms: N2_31  and  O3_32 
ROOT
HETATM    1  C2  UNL     1      31.380   6.596  47.018  1.00  0.00     0.225 A 
HETATM    2  C3  UNL     1      31.552   5.217  47.522  1.00  0.00    -0.003 A 
HETATM    3  C4  UNL     1      31.998   3.982  47.603  1.00  0.00     0.011 C 
HETATM    4  C5  UNL     1      32.878   4.049  46.388  1.00  0.00     0.008 C 
HETATM    5  C6  UNL     1      32.913   5.206  45.664  1.00  0.00    -0.047 C 
HETATM    6  C7  UNL     1      33.875   4.767  44.634  1.00  0.00     0.011 C 
HETATM    7  C8  UNL     1      34.605   5.156  43.571  1.00  0.00     0.037 C 
HETATM    8  C9  UNL     1      34.659   6.514  42.974  1.00  0.00     0.068 C 
HETATM    9  C11 UNL     1      34.470   7.749  43.498  1.00  0.00     0.036 C 
HETATM   10  C12 UNL     1      34.136   8.120  44.897  1.00  0.00    -0.001 C 
HETATM   11  C13 UNL     1      33.224   7.584  45.684  1.00  0.00    -0.014 C 
HETATM   12  C14 UNL     1      32.173   6.538  45.738  1.00  0.00     0.089 C 
HETATM   13  C15 UNL     1      30.263   6.068  47.602  1.00  0.00     0.024 A 
HETATM   14  C16 UNL     1      28.990   6.335  47.904  1.00  0.00     0.074 A 
HETATM   15  C17 UNL     1      28.140   7.476  47.704  1.00  0.00     0.060 A 
HETATM   16  C18 UNL     1      27.113   6.880  48.285  1.00  0.00     0.043 A 
HETATM   17  N2  UNL     1      27.860   5.704  48.534  1.00  0.00    -0.228 N 
ENDROOT
BRANCH   1  18
HETATM   18  N1  UNL     1      31.998   7.680  47.902  1.00  0.00     0.099 N 
HETATM   19  C1  UNL     1      32.098   7.040  49.208  1.00  0.00     0.308 C 
HETATM   20  H4  UNL     1      32.961   7.877  47.581  1.00  0.00     0.317 HD
ENDBRANCH   1  18
BRANCH  17  21
HETATM   21  O3  UNL     1      27.796   4.464  49.072  1.00  0.00    -0.282 OA
HETATM   22  H32 UNL     1      28.325   3.787  48.572  1.00  0.00     0.245 HD
ENDBRANCH  17  21
BRANCH  16  23
HETATM   23  C19 UNL     1      25.696   7.151  48.632  1.00  0.00     0.062 C 
BRANCH  23  24
HETATM   24  C20 UNL     1      25.522   7.388  50.099  1.00  0.00     0.033 C 
BRANCH  24  25
HETATM   25  C21 UNL     1      24.584   6.426  50.778  1.00  0.00     0.175 C 
BRANCH  25  26
HETATM   26  O2  UNL     1      24.953   5.109  50.469  1.00  0.00    -0.356 OA
BRANCH  26  27
HETATM   27  C22 UNL     1      24.309   3.984  50.947  1.00  0.00     0.042 C 
HETATM   28  C23 UNL     1      24.016   2.906  50.230  1.00  0.00     0.005 C 
HETATM   29  C24 UNL     1      23.317   1.762  50.875  1.00  0.00     0.029 C 
HETATM   30  C25 UNL     1      24.007   1.459  52.170  1.00  0.00     0.004 C 
HETATM   31  C26 UNL     1      24.234   2.657  53.037  1.00  0.00     0.007 C 
HETATM   32  C27 UNL     1      23.908   3.968  52.376  1.00  0.00     0.064 C 
ENDBRANCH  26  27
ENDBRANCH  25  26
ENDBRANCH  24  25
ENDBRANCH  23  24
ENDBRANCH  16  23
BRANCH   8  33
HETATM   33  O1  UNL     1      34.961   6.506  41.624  1.00  0.00    -0.356 OA
HETATM   34  C10 UNL     1      34.138   5.739  40.738  1.00  0.00     0.210 C 
ENDBRANCH   8  33
TORSDOF 8
ENDMDL
MODEL 8
REMARK VINA RESULT:      -7.6      2.881      8.617
REMARK  8 active torsions:
REMARK  status: ('A' for Active; 'I' for Inactive)
REMARK    1  A    between atoms: N1_2  and  C2_3 
REMARK    2  A    between atoms: C9_10  and  O1_11 
REMARK    3  A    between atoms: C18_20  and  C19_21 
REMARK    4  A    between atoms: C19_21  and  C20_22 
REMARK    5  A    between atoms: C20_22  and  C21_23 
REMARK    6  A    between atoms: C21_23  and  O2_24 
REMARK    7  A    between atoms: O2_24  and  C22_25 
REMARK    8  A    between atoms: N2_31  and  O3_32 
ROOT
HETATM    1  C2  UNL     1      24.081   6.761  50.168  1.00  0.00     0.225 A 
HETATM    2  C3  UNL     1      23.424   6.517  48.866  1.00  0.00    -0.003 A 
HETATM    3  C4  UNL     1      22.860   5.861  47.875  1.00  0.00     0.011 C 
HETATM    4  C5  UNL     1      23.008   4.496  48.482  1.00  0.00     0.008 C 
HETATM    5  C6  UNL     1      23.623   4.378  49.696  1.00  0.00    -0.047 C 
HETATM    6  C7  UNL     1      23.515   2.912  49.831  1.00  0.00     0.011 C 
HETATM    7  C8  UNL     1      23.722   1.864  50.651  1.00  0.00     0.037 C 
HETATM    8  C9  UNL     1      24.268   1.904  52.031  1.00  0.00     0.068 C 
HETATM    9  C11 UNL     1      24.246   2.857  52.994  1.00  0.00     0.036 C 
HETATM   10  C12 UNL     1      23.637   4.210  52.943  1.00  0.00    -0.001 C 
HETATM   11  C13 UNL     1      23.724   5.105  51.978  1.00  0.00    -0.014 C 
HETATM   12  C14 UNL     1      24.318   5.351  50.642  1.00  0.00     0.089 C 
HETATM   13  C15 UNL     1      24.454   7.627  49.178  1.00  0.00     0.024 A 
HETATM   14  C16 UNL     1      25.243   8.674  48.918  1.00  0.00     0.074 A 
HETATM   15  C17 UNL     1      26.172   9.437  49.705  1.00  0.00     0.060 A 
HETATM   16  C18 UNL     1      26.470  10.225  48.685  1.00  0.00     0.043 A 
HETATM   17  N2  UNL     1      25.581   9.542  47.821  1.00  0.00    -0.228 N 
ENDROOT
BRANCH   1  18
HETATM   18  N1  UNL     1      23.202   7.463  51.204  1.00  0.00     0.099 N 
HETATM   19  C1  UNL     1      22.015   7.841  50.446  1.00  0.00     0.308 C 
HETATM   20  H4  UNL     1      22.906   6.779  51.921  1.00  0.00     0.317 HD
ENDBRANCH   1  18
BRANCH  17  21
HETATM   21  O3  UNL     1      25.098   9.509  46.557  1.00  0.00    -0.282 OA
HETATM   22  H32 UNL     1      24.426   8.792  46.409  1.00  0.00     0.245 HD
ENDBRANCH  17  21
BRANCH  16  23
HETATM   23  C19 UNL     1      27.337  11.386  48.369  1.00  0.00     0.062 C 
BRANCH  23  24
HETATM   24  C20 UNL     1      28.772  11.108  48.685  1.00  0.00     0.033 C 
BRANCH  24  25
HETATM   25  C21 UNL     1      29.491  10.288  47.648  1.00  0.00     0.175 C 
BRANCH  25  26
HETATM   26  O2  UNL     1      30.110   9.189  48.259  1.00  0.00    -0.356 OA
BRANCH  26  27
HETATM   27  C22 UNL     1      29.787   7.869  48.009  1.00  0.00     0.042 C 
HETATM   28  C23 UNL     1      30.528   6.821  48.345  1.00  0.00     0.005 C 
HETATM   29  C24 UNL     1      30.058   5.450  48.012  1.00  0.00     0.029 C 
HETATM   30  C25 UNL     1      28.623   5.333  48.423  1.00  0.00     0.004 C 
HETATM   31  C26 UNL     1      27.755   6.454  47.945  1.00  0.00     0.007 C 
HETATM   32  C27 UNL     1      28.509   7.589  47.307  1.00  0.00     0.064 C 
ENDBRANCH  26  27
ENDBRANCH  25  26
ENDBRANCH  24  25
ENDBRANCH  23  24
ENDBRANCH  16  23
BRANCH   8  33
HETATM   33  O1  UNL     1      24.923   0.740  52.393  1.00  0.00    -0.356 OA
HETATM   34  C10 UNL     1      24.260  -0.182  53.264  1.00  0.00     0.210 C 
ENDBRANCH   8  33
TORSDOF 8
ENDMDL
MODEL 9
REMARK VINA RESULT:      -7.5      5.554      8.901
REMARK  8 active torsions:
REMARK  status: ('A' for Active; 'I' for Inactive)
REMARK    1  A    between atoms: N1_2  and  C2_3 
REMARK    2  A    between atoms: C9_10  and  O1_11 
REMARK    3  A    between atoms: C18_20  and  C19_21 
REMARK    4  A    between atoms: C19_21  and  C20_22 
REMARK    5  A    between atoms: C20_22  and  C21_23 
REMARK    6  A    between atoms: C21_23  and  O2_24 
REMARK    7  A    between atoms: O2_24  and  C22_25 
REMARK    8  A    between atoms: N2_31  and  O3_32 
ROOT
HETATM    1  C2  UNL     1      21.073   1.352  52.632  1.00  0.00     0.225 A 
HETATM    2  C3  UNL     1      21.494   0.385  53.669  1.00  0.00    -0.003 A 
HETATM    3  C4  UNL     1      22.287  -0.350  54.418  1.00  0.00     0.011 C 
HETATM    4  C5  UNL     1      23.569   0.086  53.770  1.00  0.00     0.008 C 
HETATM    5  C6  UNL     1      23.513   0.968  52.729  1.00  0.00    -0.047 C 
HETATM    6  C7  UNL     1      24.964   1.059  52.469  1.00  0.00     0.011 C 
HETATM    7  C8  UNL     1      25.916   1.685  51.752  1.00  0.00     0.037 C 
HETATM    8  C9  UNL     1      25.716   2.755  50.742  1.00  0.00     0.068 C 
HETATM    9  C11 UNL     1      24.758   3.701  50.593  1.00  0.00     0.036 C 
HETATM   10  C12 UNL     1      23.567   3.955  51.443  1.00  0.00    -0.001 C 
HETATM   11  C13 UNL     1      22.707   3.076  51.919  1.00  0.00    -0.014 C 
HETATM   12  C14 UNL     1      22.384   1.628  51.945  1.00  0.00     0.089 C 
HETATM   13  C15 UNL     1      20.181   0.340  52.854  1.00  0.00     0.024 A 
HETATM   14  C16 UNL     1      19.000  -0.147  52.461  1.00  0.00     0.074 A 
HETATM   15  C17 UNL     1      18.032   0.268  51.483  1.00  0.00     0.060 A 
HETATM   16  C18 UNL     1      17.233  -0.748  51.767  1.00  0.00     0.043 A 
HETATM   17  N2  UNL     1      18.117  -1.244  52.755  1.00  0.00    -0.228 N 
ENDROOT
BRANCH   1  18
HETATM   18  N1  UNL     1      20.540   2.678  53.176  1.00  0.00     0.099 N 
HETATM   19  C1  UNL     1      19.754   3.210  52.069  1.00  0.00     0.308 C 
HETATM   20  H4  UNL     1      19.887   2.492  53.956  1.00  0.00     0.317 HD
ENDBRANCH   1  18
BRANCH  17  21
HETATM   21  O3  UNL     1      18.293  -2.230  53.665  1.00  0.00    -0.282 OA
HETATM   22  H32 UNL     1      17.689  -3.007  53.529  1.00  0.00     0.245 HD
ENDBRANCH  17  21
BRANCH  16  23
HETATM   23  C19 UNL     1      15.925  -1.309  51.349  1.00  0.00     0.062 C 
BRANCH  23  24
HETATM   24  C20 UNL     1      14.800  -0.368  51.643  1.00  0.00     0.033 C 
BRANCH  24  25
HETATM   25  C21 UNL     1      14.872   0.286  52.996  1.00  0.00     0.175 C 
BRANCH  25  26
HETATM   26  O2  UNL     1      13.600   0.290  53.587  1.00  0.00    -0.356 OA
BRANCH  26  27
HETATM   27  C22 UNL     1      12.844   1.425  53.806  1.00  0.00     0.042 C 
HETATM   28  C23 UNL     1      12.117   1.665  54.890  1.00  0.00     0.005 C 
HETATM   29  C24 UNL     1      11.348   2.934  54.995  1.00  0.00     0.029 C 
HETATM   30  C25 UNL     1      12.252   4.064  54.609  1.00  0.00     0.004 C 
HETATM   31  C26 UNL     1      12.986   3.851  53.323  1.00  0.00     0.007 C 
HETATM   32  C27 UNL     1      12.835   2.468  52.750  1.00  0.00     0.064 C 
ENDBRANCH  26  27
ENDBRANCH  25  26
ENDBRANCH  24  25
ENDBRANCH  23  24
ENDBRANCH  16  23
BRANCH   8  33
HETATM   33  O1  UNL     1      26.702   2.782  49.771  1.00  0.00    -0.356 OA
HETATM   34  C10 UNL     1      27.025   4.032  49.152  1.00  0.00     0.210 C 
ENDBRANCH   8  33
TORSDOF 8
ENDMDL
