MODEL 1
REMARK VINA RESULT:      -7.0      0.000      0.000
REMARK  10 active torsions:
REMARK  status: ('A' for Active; 'I' for Inactive)
REMARK    1  A    between atoms: C3_3  and  C4_5 
REMARK    2  A    between atoms: C5_6  and  C6_7 
REMARK    3  A    between atoms: C6_7  and  C7_8 
REMARK    4  A    between atoms: C7_8  and  C8_9 
REMARK    5  A    between atoms: C8_9  and  N1_10 
REMARK    6  A    between atoms: N1_10  and  C9_11 
REMARK       I    between atoms: N1_10  and  C12_15 
REMARK    7  A    between atoms: C9_11  and  C10_12 
REMARK    8  A    between atoms: C10_12  and  C11_13 
REMARK    9  A    between atoms: C11_13  and  O1_14 
REMARK       I    between atoms: C12_15  and  N2_17 
REMARK   10  A    between atoms: N2_17  and  C13_18 
ROOT
HETATM    1  N1  UNL     1      24.885   3.497  51.169  1.00  0.00    -0.334 N 
HETATM    2  C12 UNL     1      26.061   2.741  51.478  1.00  0.00     0.322 C 
HETATM    3  O2  UNL     1      27.201   2.436  51.042  1.00  0.00    -0.247 OA
HETATM    4  N2  UNL     1      26.019   2.028  52.730  1.00  0.00    -0.309 N 
HETATM    5  H20 UNL     1      25.239   1.976  53.452  1.00  0.00     0.170 HD
ENDROOT
BRANCH   1   6
HETATM    6  C8  UNL     1      23.701   3.634  51.991  1.00  0.00     0.128 C 
BRANCH   6   7
HETATM    7  C7  UNL     1      22.513   2.865  51.552  1.00  0.00     0.023 C 
BRANCH   7   8
HETATM    8  C6  UNL     1      22.690   1.409  51.309  1.00  0.00     0.029 C 
BRANCH   8   9
HETATM    9  C5  UNL     1      22.854   0.652  52.611  1.00  0.00    -0.025 C 
HETATM   10  C4  UNL     1      23.235  -0.536  53.028  1.00  0.00     0.019 C 
BRANCH  10  11
HETATM   11  C3  UNL     1      23.275  -0.957  54.413  1.00  0.00     0.029 C 
HETATM   12  C2  UNL     1      22.073  -1.347  54.803  1.00  0.00    -0.007 C 
HETATM   13  C1  UNL     1      20.703  -1.484  54.249  1.00  0.00     0.038 C 
HETATM   14 CL1  UNL     1      24.820  -0.856  55.210  1.00  0.00    -0.085 Cl
ENDBRANCH  10  11
ENDBRANCH   8   9
ENDBRANCH   7   8
ENDBRANCH   6   7
ENDBRANCH   1   6
BRANCH   1  15
HETATM   15  C9  UNL     1      24.828   4.211  49.909  1.00  0.00     0.129 C 
BRANCH  15  16
HETATM   16  C10 UNL     1      25.623   5.449  49.807  1.00  0.00     0.046 C 
BRANCH  16  17
HETATM   17  C11 UNL     1      26.764   5.303  48.838  1.00  0.00     0.165 C 
BRANCH  17  18
HETATM   18  O1  UNL     1      27.906   4.804  49.409  1.00  0.00    -0.401 OA
HETATM   19  H19 UNL     1      28.679   5.128  48.851  1.00  0.00     0.209 HD
ENDBRANCH  17  18
ENDBRANCH  16  17
ENDBRANCH  15  16
ENDBRANCH   1  15
BRANCH   4  20
HETATM   20  C13 UNL     1      27.163   1.262  53.089  1.00  0.00     0.036 A 
HETATM   21  C14 UNL     1      27.109  -0.081  52.774  1.00  0.00     0.029 A 
HETATM   22  C15 UNL     1      28.200  -0.876  53.103  1.00  0.00     0.002 A 
HETATM   23  C16 UNL     1      29.318  -0.347  53.732  1.00  0.00     0.000 A 
HETATM   24  C17 UNL     1      29.344   1.000  54.035  1.00  0.00     0.002 A 
HETATM   25  C18 UNL     1      28.273   1.794  53.715  1.00  0.00     0.029 A 
ENDBRANCH   4  20
TORSDOF 10
ENDMDL
MODEL 2
REMARK VINA RESULT:      -6.8      3.080      5.819
REMARK  10 active torsions:
REMARK  status: ('A' for Active; 'I' for Inactive)
REMARK    1  A    between atoms: C3_3  and  C4_5 
REMARK    2  A    between atoms: C5_6  and  C6_7 
REMARK    3  A    between atoms: C6_7  and  C7_8 
REMARK    4  A    between atoms: C7_8  and  C8_9 
REMARK    5  A    between atoms: C8_9  and  N1_10 
REMARK    6  A    between atoms: N1_10  and  C9_11 
REMARK       I    between atoms: N1_10  and  C12_15 
REMARK    7  A    between atoms: C9_11  and  C10_12 
REMARK    8  A    between atoms: C10_12  and  C11_13 
REMARK    9  A    between atoms: C11_13  and  O1_14 
REMARK       I    between atoms: C12_15  and  N2_17 
REMARK   10  A    between atoms: N2_17  and  C13_18 
ROOT
HETATM    1  N1  UNL     1      23.687   0.589  52.817  1.00  0.00    -0.334 N 
HETATM    2  C12 UNL     1      24.936   0.053  53.268  1.00  0.00     0.322 C 
HETATM    3  O2  UNL     1      25.453  -0.679  54.152  1.00  0.00    -0.247 OA
HETATM    4  N2  UNL     1      26.085   0.439  52.489  1.00  0.00    -0.309 N 
HETATM    5  H20 UNL     1      26.142   1.070  51.634  1.00  0.00     0.170 HD
ENDROOT
BRANCH   1   6
HETATM    6  C8  UNL     1      23.475   1.435  51.661  1.00  0.00     0.128 C 
BRANCH   6   7
HETATM    7  C7  UNL     1      22.297   1.107  50.824  1.00  0.00     0.023 C 
BRANCH   7   8
HETATM    8  C6  UNL     1      21.923   2.075  49.758  1.00  0.00     0.029 C 
BRANCH   8   9
HETATM    9  C5  UNL     1      22.903   3.227  49.695  1.00  0.00    -0.025 C 
HETATM   10  C4  UNL     1      23.722   3.789  48.832  1.00  0.00     0.019 C 
BRANCH  10  11
HETATM   11  C3  UNL     1      24.561   4.937  49.108  1.00  0.00     0.029 C 
HETATM   12  C2  UNL     1      25.777   4.540  49.444  1.00  0.00    -0.007 C 
HETATM   13  C1  UNL     1      26.537   3.277  49.621  1.00  0.00     0.038 C 
HETATM   14 CL1  UNL     1      23.813   6.501  48.943  1.00  0.00    -0.085 Cl
ENDBRANCH  10  11
ENDBRANCH   8   9
ENDBRANCH   7   8
ENDBRANCH   6   7
ENDBRANCH   1   6
BRANCH   1  15
HETATM   15  C9  UNL     1      22.486   0.284  53.568  1.00  0.00     0.129 C 
BRANCH  15  16
HETATM   16  C10 UNL     1      22.084  -1.133  53.635  1.00  0.00     0.046 C 
BRANCH  16  17
HETATM   17  C11 UNL     1      21.868  -1.588  55.053  1.00  0.00     0.165 C 
BRANCH  17  18
HETATM   18  O1  UNL     1      23.034  -1.802  55.740  1.00  0.00    -0.401 OA
HETATM   19  H19 UNL     1      23.061  -1.129  56.489  1.00  0.00     0.209 HD
ENDBRANCH  17  18
ENDBRANCH  16  17
ENDBRANCH  15  16
ENDBRANCH   1  15
BRANCH   4  20
HETATM   20  C13 UNL     1      27.353  -0.068  52.892  1.00  0.00     0.036 A 
HETATM   21  C14 UNL     1      28.242   0.864  53.390  1.00  0.00     0.029 A 
HETATM   22  C15 UNL     1      29.495   0.423  53.797  1.00  0.00     0.002 A 
HETATM   23  C16 UNL     1      29.854  -0.914  53.710  1.00  0.00     0.000 A 
HETATM   24  C17 UNL     1      28.945  -1.824  53.208  1.00  0.00     0.002 A 
HETATM   25  C18 UNL     1      27.706  -1.400  52.803  1.00  0.00     0.029 A 
ENDBRANCH   4  20
TORSDOF 10
ENDMDL
MODEL 3
REMARK VINA RESULT:      -6.7      1.375      1.922
REMARK  10 active torsions:
REMARK  status: ('A' for Active; 'I' for Inactive)
REMARK    1  A    between atoms: C3_3  and  C4_5 
REMARK    2  A    between atoms: C5_6  and  C6_7 
REMARK    3  A    between atoms: C6_7  and  C7_8 
REMARK    4  A    between atoms: C7_8  and  C8_9 
REMARK    5  A    between atoms: C8_9  and  N1_10 
REMARK    6  A    between atoms: N1_10  and  C9_11 
REMARK       I    between atoms: N1_10  and  C12_15 
REMARK    7  A    between atoms: C9_11  and  C10_12 
REMARK    8  A    between atoms: C10_12  and  C11_13 
REMARK    9  A    between atoms: C11_13  and  O1_14 
REMARK       I    between atoms: C12_15  and  N2_17 
REMARK   10  A    between atoms: N2_17  and  C13_18 
ROOT
HETATM    1  N1  UNL     1      24.883   3.340  51.575  1.00  0.00    -0.334 N 
HETATM    2  C12 UNL     1      26.022   2.493  51.762  1.00  0.00     0.322 C 
HETATM    3  O2  UNL     1      27.136   2.186  51.265  1.00  0.00    -0.247 OA
HETATM    4  N2  UNL     1      25.964   1.634  52.917  1.00  0.00    -0.309 N 
HETATM    5  H20 UNL     1      25.194   1.532  53.646  1.00  0.00     0.170 HD
ENDROOT
BRANCH   1   6
HETATM    6  C8  UNL     1      23.721   3.433  52.437  1.00  0.00     0.128 C 
BRANCH   6   7
HETATM    7  C7  UNL     1      22.495   2.760  51.948  1.00  0.00     0.023 C 
BRANCH   7   8
HETATM    8  C6  UNL     1      22.637   1.379  51.417  1.00  0.00     0.029 C 
BRANCH   8   9
HETATM    9  C5  UNL     1      22.390   0.347  52.498  1.00  0.00    -0.025 C 
HETATM   10  C4  UNL     1      22.802   0.065  53.715  1.00  0.00     0.019 C 
BRANCH  10  11
HETATM   11  C3  UNL     1      22.339  -1.053  54.511  1.00  0.00     0.029 C 
HETATM   12  C2  UNL     1      23.301  -1.459  55.324  1.00  0.00    -0.007 C 
HETATM   13  C1  UNL     1      24.703  -1.114  55.664  1.00  0.00     0.038 C 
HETATM   14 CL1  UNL     1      20.705  -1.581  54.229  1.00  0.00    -0.085 Cl
ENDBRANCH  10  11
ENDBRANCH   8   9
ENDBRANCH   7   8
ENDBRANCH   6   7
ENDBRANCH   1   6
BRANCH   1  15
HETATM   15  C9  UNL     1      24.841   4.206  50.414  1.00  0.00     0.129 C 
BRANCH  15  16
HETATM   16  C10 UNL     1      24.446   5.608  50.642  1.00  0.00     0.046 C 
BRANCH  16  17
HETATM   17  C11 UNL     1      25.408   6.572  50.003  1.00  0.00     0.165 C 
BRANCH  17  18
HETATM   18  O1  UNL     1      26.096   7.337  50.909  1.00  0.00    -0.401 OA
HETATM   19  H19 UNL     1      26.514   8.095  50.394  1.00  0.00     0.209 HD
ENDBRANCH  17  18
ENDBRANCH  16  17
ENDBRANCH  15  16
ENDBRANCH   1  15
BRANCH   4  20
HETATM   20  C13 UNL     1      27.072   0.772  53.153  1.00  0.00     0.036 A 
HETATM   21  C14 UNL     1      28.168   1.356  53.757  1.00  0.00     0.029 A 
HETATM   22  C15 UNL     1      29.278   0.559  54.009  1.00  0.00     0.002 A 
HETATM   23  C16 UNL     1      29.297  -0.785  53.667  1.00  0.00     0.000 A 
HETATM   24  C17 UNL     1      28.186  -1.341  53.065  1.00  0.00     0.002 A 
HETATM   25  C18 UNL     1      27.085  -0.566  52.810  1.00  0.00     0.029 A 
ENDBRANCH   4  20
TORSDOF 10
ENDMDL
MODEL 4
REMARK VINA RESULT:      -6.6      2.743      5.763
REMARK  10 active torsions:
REMARK  status: ('A' for Active; 'I' for Inactive)
REMARK    1  A    between atoms: C3_3  and  C4_5 
REMARK    2  A    between atoms: C5_6  and  C6_7 
REMARK    3  A    between atoms: C6_7  and  C7_8 
REMARK    4  A    between atoms: C7_8  and  C8_9 
REMARK    5  A    between atoms: C8_9  and  N1_10 
REMARK    6  A    between atoms: N1_10  and  C9_11 
REMARK       I    between atoms: N1_10  and  C12_15 
REMARK    7  A    between atoms: C9_11  and  C10_12 
REMARK    8  A    between atoms: C10_12  and  C11_13 
REMARK    9  A    between atoms: C11_13  and  O1_14 
REMARK       I    between atoms: C12_15  and  N2_17 
REMARK   10  A    between atoms: N2_17  and  C13_18 
ROOT
HETATM    1  N1  UNL     1      23.461  -0.003  53.384  1.00  0.00    -0.334 N 
HETATM    2  C12 UNL     1      24.773  -0.475  53.709  1.00  0.00     0.322 C 
HETATM    3  O2  UNL     1      25.446  -1.017  54.623  1.00  0.00    -0.247 OA
HETATM    4  N2  UNL     1      25.758  -0.309  52.671  1.00  0.00    -0.309 N 
HETATM    5  H20 UNL     1      25.653   0.120  51.702  1.00  0.00     0.170 HD
ENDROOT
BRANCH   1   6
HETATM    6  C8  UNL     1      23.035   0.581  52.129  1.00  0.00     0.128 C 
BRANCH   6   7
HETATM    7  C7  UNL     1      22.061   1.693  52.226  1.00  0.00     0.023 C 
BRANCH   7   8
HETATM    8  C6  UNL     1      22.603   3.066  52.402  1.00  0.00     0.029 C 
BRANCH   8   9
HETATM    9  C5  UNL     1      23.934   3.224  51.697  1.00  0.00    -0.025 C 
HETATM   10  C4  UNL     1      24.405   3.660  50.549  1.00  0.00     0.019 C 
BRANCH  10  11
HETATM   11  C3  UNL     1      25.804   3.671  50.175  1.00  0.00     0.029 C 
HETATM   12  C2  UNL     1      26.056   4.706  49.390  1.00  0.00    -0.007 C 
HETATM   13  C1  UNL     1      25.337   5.854  48.782  1.00  0.00     0.038 C 
HETATM   14 CL1  UNL     1      26.788   2.383  50.811  1.00  0.00    -0.085 Cl
ENDBRANCH  10  11
ENDBRANCH   8   9
ENDBRANCH   7   8
ENDBRANCH   6   7
ENDBRANCH   1   6
BRANCH   1  15
HETATM   15  C9  UNL     1      22.419  -0.094  54.388  1.00  0.00     0.129 C 
BRANCH  15  16
HETATM   16  C10 UNL     1      21.857  -1.432  54.646  1.00  0.00     0.046 C 
BRANCH  16  17
HETATM   17  C11 UNL     1      20.498  -1.598  54.024  1.00  0.00     0.165 C 
BRANCH  17  18
HETATM   18  O1  UNL     1      19.736  -0.460  54.065  1.00  0.00    -0.401 OA
HETATM   19  H19 UNL     1      18.858  -0.678  53.624  1.00  0.00     0.209 HD
ENDBRANCH  17  18
ENDBRANCH  16  17
ENDBRANCH  15  16
ENDBRANCH   1  15
BRANCH   4  20
HETATM   20  C13 UNL     1      27.080  -0.763  52.939  1.00  0.00     0.036 A 
HETATM   21  C14 UNL     1      27.318  -2.100  52.685  1.00  0.00     0.029 A 
HETATM   22  C15 UNL     1      28.592  -2.596  52.930  1.00  0.00     0.002 A 
HETATM   23  C16 UNL     1      29.604  -1.782  53.418  1.00  0.00     0.000 A 
HETATM   24  C17 UNL     1      29.337  -0.450  53.663  1.00  0.00     0.002 A 
HETATM   25  C18 UNL     1      28.083   0.051  53.425  1.00  0.00     0.029 A 
ENDBRANCH   4  20
TORSDOF 10
ENDMDL
MODEL 5
REMARK VINA RESULT:      -6.4      2.358      2.838
REMARK  10 active torsions:
REMARK  status: ('A' for Active; 'I' for Inactive)
REMARK    1  A    between atoms: C3_3  and  C4_5 
REMARK    2  A    between atoms: C5_6  and  C6_7 
REMARK    3  A    between atoms: C6_7  and  C7_8 
REMARK    4  A    between atoms: C7_8  and  C8_9 
REMARK    5  A    between atoms: C8_9  and  N1_10 
REMARK    6  A    between atoms: N1_10  and  C9_11 
REMARK       I    between atoms: N1_10  and  C12_15 
REMARK    7  A    between atoms: C9_11  and  C10_12 
REMARK    8  A    between atoms: C10_12  and  C11_13 
REMARK    9  A    between atoms: C11_13  and  O1_14 
REMARK       I    between atoms: C12_15  and  N2_17 
REMARK   10  A    between atoms: N2_17  and  C13_18 
ROOT
HETATM    1  N1  UNL     1      22.923   3.653  51.367  1.00  0.00    -0.334 N 
HETATM    2  C12 UNL     1      23.894   2.934  52.135  1.00  0.00     0.322 C 
HETATM    3  O2  UNL     1      24.487   2.923  53.245  1.00  0.00    -0.247 OA
HETATM    4  N2  UNL     1      24.463   1.784  51.481  1.00  0.00    -0.309 N 
HETATM    5  H20 UNL     1      24.273   1.396  50.508  1.00  0.00     0.170 HD
ENDROOT
BRANCH   1   6
HETATM    6  C8  UNL     1      22.449   3.320  50.039  1.00  0.00     0.128 C 
BRANCH   6   7
HETATM    7  C7  UNL     1      21.253   2.448  49.976  1.00  0.00     0.023 C 
BRANCH   7   8
HETATM    8  C6  UNL     1      21.479   0.980  49.889  1.00  0.00     0.029 C 
BRANCH   8   9
HETATM    9  C5  UNL     1      21.112   0.290  51.186  1.00  0.00    -0.025 C 
HETATM   10  C4  UNL     1      20.689   0.602  52.392  1.00  0.00     0.019 C 
BRANCH  10  11
HETATM   11  C3  UNL     1      20.422  -0.350  53.451  1.00  0.00     0.029 C 
HETATM   12  C2  UNL     1      19.194  -0.828  53.331  1.00  0.00    -0.007 C 
HETATM   13  C1  UNL     1      18.015  -0.684  52.441  1.00  0.00     0.038 C 
HETATM   14 CL1  UNL     1      21.713  -0.632  54.584  1.00  0.00    -0.085 Cl
ENDBRANCH  10  11
ENDBRANCH   8   9
ENDBRANCH   7   8
ENDBRANCH   6   7
ENDBRANCH   1   6
BRANCH   1  15
HETATM   15  C9  UNL     1      22.332   4.848  51.934  1.00  0.00     0.129 C 
BRANCH  15  16
HETATM   16  C10 UNL     1      22.443   6.087  51.142  1.00  0.00     0.046 C 
BRANCH  16  17
HETATM   17  C11 UNL     1      23.845   6.632  51.149  1.00  0.00     0.165 C 
BRANCH  17  18
HETATM   18  O1  UNL     1      24.407   6.678  52.399  1.00  0.00    -0.401 OA
HETATM   19  H19 UNL     1      23.649   6.744  53.058  1.00  0.00     0.209 HD
ENDBRANCH  17  18
ENDBRANCH  16  17
ENDBRANCH  15  16
ENDBRANCH   1  15
BRANCH   4  20
HETATM   20  C13 UNL     1      25.433   1.030  52.201  1.00  0.00     0.036 A 
HETATM   21  C14 UNL     1      24.940  -0.020  52.951  1.00  0.00     0.029 A 
HETATM   22  C15 UNL     1      25.845  -0.788  53.674  1.00  0.00     0.002 A 
HETATM   23  C16 UNL     1      27.205  -0.518  53.652  1.00  0.00     0.000 A 
HETATM   24  C17 UNL     1      27.668   0.538  52.893  1.00  0.00     0.002 A 
HETATM   25  C18 UNL     1      26.786   1.304  52.175  1.00  0.00     0.029 A 
ENDBRANCH   4  20
TORSDOF 10
ENDMDL
MODEL 6
REMARK VINA RESULT:      -6.3      2.563      5.714
REMARK  10 active torsions:
REMARK  status: ('A' for Active; 'I' for Inactive)
REMARK    1  A    between atoms: C3_3  and  C4_5 
REMARK    2  A    between atoms: C5_6  and  C6_7 
REMARK    3  A    between atoms: C6_7  and  C7_8 
REMARK    4  A    between atoms: C7_8  and  C8_9 
REMARK    5  A    between atoms: C8_9  and  N1_10 
REMARK    6  A    between atoms: N1_10  and  C9_11 
REMARK       I    between atoms: N1_10  and  C12_15 
REMARK    7  A    between atoms: C9_11  and  C10_12 
REMARK    8  A    between atoms: C10_12  and  C11_13 
REMARK    9  A    between atoms: C11_13  and  O1_14 
REMARK       I    between atoms: C12_15  and  N2_17 
REMARK   10  A    between atoms: N2_17  and  C13_18 
ROOT
HETATM    1  N1  UNL     1      25.085   0.015  53.169  1.00  0.00    -0.334 N 
HETATM    2  C12 UNL     1      25.152   1.263  52.472  1.00  0.00     0.322 C 
HETATM    3  O2  UNL     1      25.941   2.185  52.139  1.00  0.00    -0.247 OA
HETATM    4  N2  UNL     1      23.906   1.719  51.910  1.00  0.00    -0.309 N 
HETATM    5  H20 UNL     1      22.943   1.267  51.946  1.00  0.00     0.170 HD
ENDROOT
BRANCH   1   6
HETATM    6  C8  UNL     1      23.916  -0.827  53.330  1.00  0.00     0.128 C 
BRANCH   6   7
HETATM    7  C7  UNL     1      23.181  -0.679  54.608  1.00  0.00     0.023 C 
BRANCH   7   8
HETATM    8  C6  UNL     1      22.082  -1.643  54.882  1.00  0.00     0.029 C 
BRANCH   8   9
HETATM    9  C5  UNL     1      20.873  -1.356  54.017  1.00  0.00    -0.025 C 
HETATM   10  C4  UNL     1      20.243  -0.323  53.501  1.00  0.00     0.019 C 
BRANCH  10  11
HETATM   11  C3  UNL     1      19.054  -0.401  52.678  1.00  0.00     0.029 C 
HETATM   12  C2  UNL     1      19.264   0.202  51.519  1.00  0.00    -0.007 C 
HETATM   13  C1  UNL     1      20.348   0.930  50.813  1.00  0.00     0.038 C 
HETATM   14 CL1  UNL     1      17.686  -1.228  53.367  1.00  0.00    -0.085 Cl
ENDBRANCH  10  11
ENDBRANCH   8   9
ENDBRANCH   7   8
ENDBRANCH   6   7
ENDBRANCH   1   6
BRANCH   1  15
HETATM   15  C9  UNL     1      26.285  -0.497  53.800  1.00  0.00     0.129 C 
BRANCH  15  16
HETATM   16  C10 UNL     1      27.356  -0.974  52.906  1.00  0.00     0.046 C 
BRANCH  16  17
HETATM   17  C11 UNL     1      27.154  -2.410  52.506  1.00  0.00     0.165 C 
BRANCH  17  18
HETATM   18  O1  UNL     1      28.207  -3.222  52.835  1.00  0.00    -0.401 OA
HETATM   19  H19 UNL     1      28.127  -4.051  52.268  1.00  0.00     0.209 HD
ENDBRANCH  17  18
ENDBRANCH  16  17
ENDBRANCH  15  16
ENDBRANCH   1  15
BRANCH   4  20
HETATM   20  C13 UNL     1      23.916   2.955  51.204  1.00  0.00     0.036 A 
HETATM   21  C14 UNL     1      23.631   4.078  51.955  1.00  0.00     0.029 A 
HETATM   22  C15 UNL     1      23.626   5.311  51.314  1.00  0.00     0.002 A 
HETATM   23  C16 UNL     1      23.898   5.423  49.958  1.00  0.00     0.000 A 
HETATM   24  C17 UNL     1      24.179   4.282  49.233  1.00  0.00     0.002 A 
HETATM   25  C18 UNL     1      24.187   3.060  49.854  1.00  0.00     0.029 A 
ENDBRANCH   4  20
TORSDOF 10
ENDMDL
MODEL 7
REMARK VINA RESULT:      -6.2      3.901      6.854
REMARK  10 active torsions:
REMARK  status: ('A' for Active; 'I' for Inactive)
REMARK    1  A    between atoms: C3_3  and  C4_5 
REMARK    2  A    between atoms: C5_6  and  C6_7 
REMARK    3  A    between atoms: C6_7  and  C7_8 
REMARK    4  A    between atoms: C7_8  and  C8_9 
REMARK    5  A    between atoms: C8_9  and  N1_10 
REMARK    6  A    between atoms: N1_10  and  C9_11 
REMARK       I    between atoms: N1_10  and  C12_15 
REMARK    7  A    between atoms: C9_11  and  C10_12 
REMARK    8  A    between atoms: C10_12  and  C11_13 
REMARK    9  A    between atoms: C11_13  and  O1_14 
REMARK       I    between atoms: C12_15  and  N2_17 
REMARK   10  A    between atoms: N2_17  and  C13_18 
ROOT
HETATM    1  N1  UNL     1      24.687   3.243  50.926  1.00  0.00    -0.334 N 
HETATM    2  C12 UNL     1      25.413   2.563  51.956  1.00  0.00     0.322 C 
HETATM    3  O2  UNL     1      25.340   2.188  53.155  1.00  0.00    -0.247 OA
HETATM    4  N2  UNL     1      26.725   2.101  51.578  1.00  0.00    -0.309 N 
HETATM    5  H20 UNL     1      27.234   2.201  50.649  1.00  0.00     0.170 HD
ENDROOT
BRANCH   1   6
HETATM    6  C8  UNL     1      25.126   3.476  49.566  1.00  0.00     0.128 C 
BRANCH   6   7
HETATM    7  C7  UNL     1      25.940   4.695  49.345  1.00  0.00     0.023 C 
BRANCH   7   8
HETATM    8  C6  UNL     1      27.364   4.507  48.963  1.00  0.00     0.029 C 
BRANCH   8   9
HETATM    9  C5  UNL     1      27.899   5.719  48.229  1.00  0.00    -0.025 C 
HETATM   10  C4  UNL     1      27.960   7.024  48.379  1.00  0.00     0.019 C 
BRANCH  10  11
HETATM   11  C3  UNL     1      28.575   7.941  47.441  1.00  0.00     0.029 C 
HETATM   12  C2  UNL     1      29.765   8.313  47.883  1.00  0.00    -0.007 C 
HETATM   13  C1  UNL     1      30.655   8.073  49.047  1.00  0.00     0.038 C 
HETATM   14 CL1  UNL     1      27.652   8.326  46.016  1.00  0.00    -0.085 Cl
ENDBRANCH  10  11
ENDBRANCH   8   9
ENDBRANCH   7   8
ENDBRANCH   6   7
ENDBRANCH   1   6
BRANCH   1  15
HETATM   15  C9  UNL     1      23.376   3.777  51.235  1.00  0.00     0.129 C 
BRANCH  15  16
HETATM   16  C10 UNL     1      23.318   4.883  52.208  1.00  0.00     0.046 C 
BRANCH  16  17
HETATM   17  C11 UNL     1      23.452   6.224  51.540  1.00  0.00     0.165 C 
BRANCH  17  18
HETATM   18  O1  UNL     1      24.503   6.967  52.012  1.00  0.00    -0.401 OA
HETATM   19  H19 UNL     1      25.239   6.319  52.242  1.00  0.00     0.209 HD
ENDBRANCH  17  18
ENDBRANCH  16  17
ENDBRANCH  15  16
ENDBRANCH   1  15
BRANCH   4  20
HETATM   20  C13 UNL     1      27.489   1.415  52.563  1.00  0.00     0.036 A 
HETATM   21  C14 UNL     1      28.322   2.204  53.333  1.00  0.00     0.029 A 
HETATM   22  C15 UNL     1      29.092   1.584  54.309  1.00  0.00     0.002 A 
HETATM   23  C16 UNL     1      29.036   0.213  54.514  1.00  0.00     0.000 A 
HETATM   24  C17 UNL     1      28.194  -0.550  53.729  1.00  0.00     0.002 A 
HETATM   25  C18 UNL     1      27.429   0.050  52.762  1.00  0.00     0.029 A 
ENDBRANCH   4  20
TORSDOF 10
ENDMDL
MODEL 8
REMARK VINA RESULT:      -6.1      2.099      2.891
REMARK  10 active torsions:
REMARK  status: ('A' for Active; 'I' for Inactive)
REMARK    1  A    between atoms: C3_3  and  C4_5 
REMARK    2  A    between atoms: C5_6  and  C6_7 
REMARK    3  A    between atoms: C6_7  and  C7_8 
REMARK    4  A    between atoms: C7_8  and  C8_9 
REMARK    5  A    between atoms: C8_9  and  N1_10 
REMARK    6  A    between atoms: N1_10  and  C9_11 
REMARK       I    between atoms: N1_10  and  C12_15 
REMARK    7  A    between atoms: C9_11  and  C10_12 
REMARK    8  A    between atoms: C10_12  and  C11_13 
REMARK    9  A    between atoms: C11_13  and  O1_14 
REMARK       I    between atoms: C12_15  and  N2_17 
REMARK   10  A    between atoms: N2_17  and  C13_18 
ROOT
HETATM    1  N1  UNL     1      25.086   4.507  50.533  1.00  0.00    -0.334 N 
HETATM    2  C12 UNL     1      25.936   3.394  50.829  1.00  0.00     0.322 C 
HETATM    3  O2  UNL     1      26.847   2.672  50.349  1.00  0.00    -0.247 OA
HETATM    4  N2  UNL     1      25.753   2.814  52.136  1.00  0.00    -0.309 N 
HETATM    5  H20 UNL     1      25.073   3.088  52.908  1.00  0.00     0.170 HD
ENDROOT
BRANCH   1   6
HETATM    6  C8  UNL     1      24.106   5.109  51.415  1.00  0.00     0.128 C 
BRANCH   6   7
HETATM    7  C7  UNL     1      22.791   5.421  50.809  1.00  0.00     0.023 C 
BRANCH   7   8
HETATM    8  C6  UNL     1      21.586   4.816  51.437  1.00  0.00     0.029 C 
BRANCH   8   9
HETATM    9  C5  UNL     1      21.442   3.358  51.053  1.00  0.00    -0.025 C 
HETATM   10  C4  UNL     1      22.135   2.242  51.111  1.00  0.00     0.019 C 
BRANCH  10  11
HETATM   11  C3  UNL     1      21.680   0.954  50.629  1.00  0.00     0.029 C 
HETATM   12  C2  UNL     1      21.611   0.093  51.631  1.00  0.00    -0.007 C 
HETATM   13  C1  UNL     1      21.857   0.052  53.094  1.00  0.00     0.038 C 
HETATM   14 CL1  UNL     1      21.346   0.838  48.924  1.00  0.00    -0.085 Cl
ENDBRANCH  10  11
ENDBRANCH   8   9
ENDBRANCH   7   8
ENDBRANCH   6   7
ENDBRANCH   1   6
BRANCH   1  15
HETATM   15  C9  UNL     1      25.175   5.124  49.225  1.00  0.00     0.129 C 
BRANCH  15  16
HETATM   16  C10 UNL     1      26.379   5.930  48.949  1.00  0.00     0.046 C 
BRANCH  16  17
HETATM   17  C11 UNL     1      26.169   7.382  49.281  1.00  0.00     0.165 C 
BRANCH  17  18
HETATM   18  O1  UNL     1      26.482   7.696  50.578  1.00  0.00    -0.401 OA
HETATM   19  H19 UNL     1      26.645   8.689  50.608  1.00  0.00     0.209 HD
ENDBRANCH  17  18
ENDBRANCH  16  17
ENDBRANCH  15  16
ENDBRANCH   1  15
BRANCH   4  20
HETATM   20  C13 UNL     1      26.574   1.705  52.484  1.00  0.00     0.036 A 
HETATM   21  C14 UNL     1      27.742   2.011  53.155  1.00  0.00     0.029 A 
HETATM   22  C15 UNL     1      28.581   0.965  53.518  1.00  0.00     0.002 A 
HETATM   23  C16 UNL     1      28.267  -0.352  53.220  1.00  0.00     0.000 A 
HETATM   24  C17 UNL     1      27.092  -0.628  52.548  1.00  0.00     0.002 A 
HETATM   25  C18 UNL     1      26.256   0.395  52.185  1.00  0.00     0.029 A 
ENDBRANCH   4  20
TORSDOF 10
ENDMDL
MODEL 9
REMARK VINA RESULT:      -6.1      3.147      6.609
REMARK  10 active torsions:
REMARK  status: ('A' for Active; 'I' for Inactive)
REMARK    1  A    between atoms: C3_3  and  C4_5 
REMARK    2  A    between atoms: C5_6  and  C6_7 
REMARK    3  A    between atoms: C6_7  and  C7_8 
REMARK    4  A    between atoms: C7_8  and  C8_9 
REMARK    5  A    between atoms: C8_9  and  N1_10 
REMARK    6  A    between atoms: N1_10  and  C9_11 
REMARK       I    between atoms: N1_10  and  C12_15 
REMARK    7  A    between atoms: C9_11  and  C10_12 
REMARK    8  A    between atoms: C10_12  and  C11_13 
REMARK    9  A    between atoms: C11_13  and  O1_14 
REMARK       I    between atoms: C12_15  and  N2_17 
REMARK   10  A    between atoms: N2_17  and  C13_18 
ROOT
HETATM    1  N1  UNL     1      25.977   0.617  53.035  1.00  0.00    -0.334 N 
HETATM    2  C12 UNL     1      24.614   0.181  53.066  1.00  0.00     0.322 C 
HETATM    3  O2  UNL     1      23.873  -0.773  53.417  1.00  0.00    -0.247 OA
HETATM    4  N2  UNL     1      23.662   1.109  52.508  1.00  0.00    -0.309 N 
HETATM    5  H20 UNL     1      23.827   2.065  52.070  1.00  0.00     0.170 HD
ENDROOT
BRANCH   1   6
HETATM    6  C8  UNL     1      26.472   1.884  52.537  1.00  0.00     0.128 C 
BRANCH   6   7
HETATM    7  C7  UNL     1      26.629   1.988  51.068  1.00  0.00     0.023 C 
BRANCH   7   8
HETATM    8  C6  UNL     1      26.352   3.308  50.441  1.00  0.00     0.029 C 
BRANCH   8   9
HETATM    9  C5  UNL     1      25.014   3.308  49.732  1.00  0.00    -0.025 C 
HETATM   10  C4  UNL     1      23.735   3.402  50.024  1.00  0.00     0.019 C 
BRANCH  10  11
HETATM   11  C3  UNL     1      22.656   3.364  49.057  1.00  0.00     0.029 C 
HETATM   12  C2  UNL     1      21.787   4.329  49.310  1.00  0.00    -0.007 C 
HETATM   13  C1  UNL     1      21.587   5.433  50.281  1.00  0.00     0.038 C 
HETATM   14 CL1  UNL     1      22.745   2.118  47.844  1.00  0.00    -0.085 Cl
ENDBRANCH  10  11
ENDBRANCH   8   9
ENDBRANCH   7   8
ENDBRANCH   6   7
ENDBRANCH   1   6
BRANCH   1  15
HETATM   15  C9  UNL     1      27.004  -0.273  53.538  1.00  0.00     0.129 C 
BRANCH  15  16
HETATM   16  C10 UNL     1      27.235  -1.519  52.783  1.00  0.00     0.046 C 
BRANCH  16  17
HETATM   17  C11 UNL     1      28.590  -2.106  53.071  1.00  0.00     0.165 C 
BRANCH  17  18
HETATM   18  O1  UNL     1      28.560  -3.454  53.314  1.00  0.00    -0.401 OA
HETATM   19  H19 UNL     1      28.877  -3.911  52.475  1.00  0.00     0.209 HD
ENDBRANCH  17  18
ENDBRANCH  16  17
ENDBRANCH  15  16
ENDBRANCH   1  15
BRANCH   4  20
HETATM   20  C13 UNL     1      22.291   0.728  52.515  1.00  0.00     0.036 A 
HETATM   21  C14 UNL     1      21.714   0.585  53.762  1.00  0.00     0.029 A 
HETATM   22  C15 UNL     1      20.377   0.214  53.826  1.00  0.00     0.002 A 
HETATM   23  C16 UNL     1      19.632  -0.011  52.677  1.00  0.00     0.000 A 
HETATM   24  C17 UNL     1      20.235   0.139  51.444  1.00  0.00     0.002 A 
HETATM   25  C18 UNL     1      21.554   0.505  51.368  1.00  0.00     0.029 A 
ENDBRANCH   4  20
TORSDOF 10
ENDMDL
