MODEL 1
REMARK VINA RESULT:      -8.1      0.000      0.000
REMARK  8 active torsions:
REMARK  status: ('A' for Active; 'I' for Inactive)
REMARK    1  A    between atoms: C3_3  and  C4_4 
REMARK    2  A    between atoms: C4_4  and  C5_6 
REMARK    3  A    between atoms: C9_11  and  N1_12 
REMARK    4  A    between atoms: N1_12  and  S1_13 
REMARK    5  A    between atoms: S1_13  and  C10_16 
REMARK    6  A    between atoms: C10_16  and  C11_17 
REMARK    7  A    between atoms: N3_24  and  C16_25 
REMARK    8  A    between atoms: C16_25  and  C17_26 
ROOT
HETATM    1  C5  UNL     1      24.834   0.530  52.892  1.00  0.00     0.094 A 
HETATM    2  C6  UNL     1      25.988   0.100  52.290  1.00  0.00     0.133 A 
HETATM    3  F1  UNL     1      26.414  -1.163  52.405  1.00  0.00    -0.205 F 
HETATM    4  C7  UNL     1      26.851   0.827  51.518  1.00  0.00     0.046 A 
HETATM    5  C8  UNL     1      26.503   2.143  51.334  1.00  0.00     0.036 A 
HETATM    6  C9  UNL     1      25.378   2.683  51.884  1.00  0.00     0.082 A 
HETATM    7  C13 UNL     1      24.588   1.865  52.638  1.00  0.00     0.160 A 
HETATM    8  F2  UNL     1      23.482   2.517  53.140  1.00  0.00    -0.203 F 
ENDROOT
BRANCH   1   9
HETATM    9  C4  UNL     1      23.942  -0.221  53.698  1.00  0.00     0.200 C 
HETATM   10  O1  UNL     1      24.551  -0.755  54.693  1.00  0.00    -0.286 OA
BRANCH   9  11
HETATM   11  C3  UNL     1      22.579  -0.615  53.819  1.00  0.00     0.044 A 
HETATM   12  C2  UNL     1      21.555  -0.278  52.845  1.00  0.00     0.016 A 
HETATM   13  C1  UNL     1      21.539   0.387  51.713  1.00  0.00     0.028 C 
HETATM   14  C15 UNL     1      20.280  -0.860  53.322  1.00  0.00     0.137 A 
HETATM   15  N2  UNL     1      20.571  -1.514  54.545  1.00  0.00    -0.349 N 
HETATM   16  N3  UNL     1      19.124  -0.773  52.719  1.00  0.00    -0.242 NA
HETATM   17  C14 UNL     1      21.957  -1.309  54.747  1.00  0.00     0.106 A 
HETATM   18  H14 UNL     1      19.803  -2.002  55.064  1.00  0.00     0.167 HD
BRANCH  16  19
HETATM   19  C16 UNL     1      18.002  -1.397  53.329  1.00  0.00     0.131 C 
BRANCH  19  20
HETATM   20  C17 UNL     1      17.356  -2.551  53.423  1.00  0.00     0.237 C 
HETATM   21 CL1  UNL     1      16.821  -4.168  53.816  1.00  0.00    -0.229 Cl
ENDBRANCH  19  20
ENDBRANCH  16  19
ENDBRANCH   9  11
ENDBRANCH   1   9
BRANCH   6  22
HETATM   22  N1  UNL     1      25.078   4.025  51.638  1.00  0.00    -0.281 N 
HETATM   23  H5  UNL     1      25.655   4.663  52.266  1.00  0.00     0.178 HD
BRANCH  22  24
HETATM   24  S1  UNL     1      24.001   4.806  50.560  1.00  0.00     0.231 S 
HETATM   25  O2  UNL     1      23.428   6.061  51.159  1.00  0.00    -0.206 OA
HETATM   26  O3  UNL     1      22.883   3.822  50.256  1.00  0.00    -0.206 OA
BRANCH  24  27
HETATM   27  C10 UNL     1      24.822   5.126  49.030  1.00  0.00     0.163 C 
BRANCH  27  28
HETATM   28  C11 UNL     1      26.184   5.681  49.299  1.00  0.00     0.012 C 
HETATM   29  C12 UNL     1      27.281   4.753  48.796  1.00  0.00     0.006 C 
ENDBRANCH  27  28
ENDBRANCH  24  27
ENDBRANCH  22  24
ENDBRANCH   6  22
TORSDOF 8
ENDMDL
MODEL 2
REMARK VINA RESULT:      -7.8      4.996      8.048
REMARK  8 active torsions:
REMARK  status: ('A' for Active; 'I' for Inactive)
REMARK    1  A    between atoms: C3_3  and  C4_4 
REMARK    2  A    between atoms: C4_4  and  C5_6 
REMARK    3  A    between atoms: C9_11  and  N1_12 
REMARK    4  A    between atoms: N1_12  and  S1_13 
REMARK    5  A    between atoms: S1_13  and  C10_16 
REMARK    6  A    between atoms: C10_16  and  C11_17 
REMARK    7  A    between atoms: N3_24  and  C16_25 
REMARK    8  A    between atoms: C16_25  and  C17_26 
ROOT
HETATM    1  C5  UNL     1      23.984   1.787  52.153  1.00  0.00     0.094 A 
HETATM    2  C6  UNL     1      23.165   1.036  52.957  1.00  0.00     0.133 A 
HETATM    3  F1  UNL     1      21.898   1.393  53.199  1.00  0.00    -0.205 F 
HETATM    4  C7  UNL     1      23.468  -0.127  53.607  1.00  0.00     0.046 A 
HETATM    5  C8  UNL     1      24.750  -0.583  53.423  1.00  0.00     0.036 A 
HETATM    6  C9  UNL     1      25.654   0.080  52.645  1.00  0.00     0.082 A 
HETATM    7  C13 UNL     1      25.244   1.233  52.042  1.00  0.00     0.160 A 
HETATM    8  F2  UNL     1      26.238   1.813  51.283  1.00  0.00    -0.203 F 
ENDROOT
BRANCH   1   9
HETATM    9  C4  UNL     1      23.673   2.997  51.483  1.00  0.00     0.200 C 
HETATM   10  O1  UNL     1      22.652   2.857  50.718  1.00  0.00    -0.286 OA
BRANCH   9  11
HETATM   11  C3  UNL     1      24.084   4.352  51.338  1.00  0.00     0.044 A 
HETATM   12  C2  UNL     1      24.987   4.812  50.297  1.00  0.00     0.016 A 
HETATM   13  C1  UNL     1      25.622   4.235  49.303  1.00  0.00     0.028 C 
HETATM   14  C15 UNL     1      25.171   6.269  50.481  1.00  0.00     0.137 A 
HETATM   15  N2  UNL     1      24.388   6.633  51.605  1.00  0.00    -0.349 N 
HETATM   16  N3  UNL     1      25.914   7.049  49.741  1.00  0.00    -0.242 NA
HETATM   17  C14 UNL     1      23.787   5.426  52.037  1.00  0.00     0.106 A 
HETATM   18  H14 UNL     1      24.370   7.633  51.919  1.00  0.00     0.167 HD
BRANCH  16  19
HETATM   19  C16 UNL     1      25.970   8.430  50.069  1.00  0.00     0.131 C 
BRANCH  19  20
HETATM   20  C17 UNL     1      26.044   9.641  49.534  1.00  0.00     0.237 C 
HETATM   21 CL1  UNL     1      26.218  11.018  48.471  1.00  0.00    -0.229 Cl
ENDBRANCH  19  20
ENDBRANCH  16  19
ENDBRANCH   9  11
ENDBRANCH   1   9
BRANCH   6  22
HETATM   22  N1  UNL     1      26.935  -0.455  52.487  1.00  0.00    -0.281 N 
HETATM   23  H5  UNL     1      27.129  -0.676  51.463  1.00  0.00     0.178 HD
BRANCH  22  24
HETATM   24  S1  UNL     1      28.201  -0.807  53.585  1.00  0.00     0.231 S 
HETATM   25  O2  UNL     1      28.670  -2.230  53.453  1.00  0.00    -0.206 OA
HETATM   26  O3  UNL     1      27.657  -0.571  54.984  1.00  0.00    -0.206 OA
BRANCH  24  27
HETATM   27  C10 UNL     1      29.521   0.342  53.356  1.00  0.00     0.163 C 
BRANCH  27  28
HETATM   28  C11 UNL     1      29.324   1.518  54.258  1.00  0.00     0.012 C 
HETATM   29  C12 UNL     1      28.528   2.623  53.578  1.00  0.00     0.006 C 
ENDBRANCH  27  28
ENDBRANCH  24  27
ENDBRANCH  22  24
ENDBRANCH   6  22
TORSDOF 8
ENDMDL
MODEL 3
REMARK VINA RESULT:      -7.8      1.287      1.961
REMARK  8 active torsions:
REMARK  status: ('A' for Active; 'I' for Inactive)
REMARK    1  A    between atoms: C3_3  and  C4_4 
REMARK    2  A    between atoms: C4_4  and  C5_6 
REMARK    3  A    between atoms: C9_11  and  N1_12 
REMARK    4  A    between atoms: N1_12  and  S1_13 
REMARK    5  A    between atoms: S1_13  and  C10_16 
REMARK    6  A    between atoms: C10_16  and  C11_17 
REMARK    7  A    between atoms: N3_24  and  C16_25 
REMARK    8  A    between atoms: C16_25  and  C17_26 
ROOT
HETATM    1  C5  UNL     1      24.832   0.549  52.898  1.00  0.00     0.094 A 
HETATM    2  C6  UNL     1      25.987   0.136  52.285  1.00  0.00     0.133 A 
HETATM    3  F1  UNL     1      26.429  -1.123  52.391  1.00  0.00    -0.205 F 
HETATM    4  C7  UNL     1      26.835   0.877  51.511  1.00  0.00     0.046 A 
HETATM    5  C8  UNL     1      26.471   2.190  51.337  1.00  0.00     0.036 A 
HETATM    6  C9  UNL     1      25.343   2.714  51.899  1.00  0.00     0.082 A 
HETATM    7  C13 UNL     1      24.569   1.883  52.654  1.00  0.00     0.160 A 
HETATM    8  F2  UNL     1      23.459   2.519  53.168  1.00  0.00    -0.203 F 
ENDROOT
BRANCH   1   9
HETATM    9  C4  UNL     1      23.955  -0.217  53.707  1.00  0.00     0.200 C 
HETATM   10  O1  UNL     1      24.582  -0.768  54.681  1.00  0.00    -0.286 OA
BRANCH   9  11
HETATM   11  C3  UNL     1      22.595  -0.614  53.846  1.00  0.00     0.044 A 
HETATM   12  C2  UNL     1      21.572  -0.339  52.851  1.00  0.00     0.016 A 
HETATM   13  C1  UNL     1      21.555   0.263  51.684  1.00  0.00     0.028 C 
HETATM   14  C15 UNL     1      20.300  -0.903  53.356  1.00  0.00     0.137 A 
HETATM   15  N2  UNL     1      20.592  -1.487  54.614  1.00  0.00    -0.349 N 
HETATM   16  N3  UNL     1      19.145  -0.859  52.746  1.00  0.00    -0.242 NA
HETATM   17  C14 UNL     1      21.975  -1.260  54.809  1.00  0.00     0.106 A 
HETATM   18  H14 UNL     1      19.825  -1.951  55.157  1.00  0.00     0.167 HD
BRANCH  16  19
HETATM   19  C16 UNL     1      18.026  -1.457  53.385  1.00  0.00     0.131 C 
BRANCH  19  20
HETATM   20  C17 UNL     1      17.386  -2.608  53.539  1.00  0.00     0.237 C 
HETATM   21 CL1  UNL     1      16.906  -4.288  53.588  1.00  0.00    -0.229 Cl
ENDBRANCH  19  20
ENDBRANCH  16  19
ENDBRANCH   9  11
ENDBRANCH   1   9
BRANCH   6  22
HETATM   22  N1  UNL     1      25.026   4.053  51.662  1.00  0.00    -0.281 N 
HETATM   23  H5  UNL     1      25.399   4.675  52.443  1.00  0.00     0.178 HD
BRANCH  22  24
HETATM   24  S1  UNL     1      24.184   4.853  50.404  1.00  0.00     0.231 S 
HETATM   25  O2  UNL     1      24.896   4.719  49.086  1.00  0.00    -0.206 OA
HETATM   26  O3  UNL     1      24.089   6.319  50.793  1.00  0.00    -0.206 OA
BRANCH  24  27
HETATM   27  C10 UNL     1      22.528   4.246  50.320  1.00  0.00     0.163 C 
BRANCH  27  28
HETATM   28  C11 UNL     1      21.730   4.808  51.453  1.00  0.00     0.012 C 
HETATM   29  C12 UNL     1      20.670   3.829  51.936  1.00  0.00     0.006 C 
ENDBRANCH  27  28
ENDBRANCH  24  27
ENDBRANCH  22  24
ENDBRANCH   6  22
TORSDOF 8
ENDMDL
MODEL 4
REMARK VINA RESULT:      -7.8      2.637      4.421
REMARK  8 active torsions:
REMARK  status: ('A' for Active; 'I' for Inactive)
REMARK    1  A    between atoms: C3_3  and  C4_4 
REMARK    2  A    between atoms: C4_4  and  C5_6 
REMARK    3  A    between atoms: C9_11  and  N1_12 
REMARK    4  A    between atoms: N1_12  and  S1_13 
REMARK    5  A    between atoms: S1_13  and  C10_16 
REMARK    6  A    between atoms: C10_16  and  C11_17 
REMARK    7  A    between atoms: N3_24  and  C16_25 
REMARK    8  A    between atoms: C16_25  and  C17_26 
ROOT
HETATM    1  C5  UNL     1      23.593   2.034  51.933  1.00  0.00     0.094 A 
HETATM    2  C6  UNL     1      24.074   2.825  50.921  1.00  0.00     0.133 A 
HETATM    3  F1  UNL     1      23.282   3.674  50.255  1.00  0.00    -0.205 F 
HETATM    4  C7  UNL     1      25.352   2.888  50.443  1.00  0.00     0.046 A 
HETATM    5  C8  UNL     1      26.250   2.053  51.062  1.00  0.00     0.036 A 
HETATM    6  C9  UNL     1      25.887   1.221  52.080  1.00  0.00     0.082 A 
HETATM    7  C13 UNL     1      24.583   1.239  52.478  1.00  0.00     0.160 A 
HETATM    8  F2  UNL     1      24.334   0.361  53.511  1.00  0.00    -0.203 F 
ENDROOT
BRANCH   1   9
HETATM    9  C4  UNL     1      22.266   1.962  52.425  1.00  0.00     0.200 C 
HETATM   10  O1  UNL     1      21.759   3.132  52.568  1.00  0.00    -0.286 OA
BRANCH   9  11
HETATM   11  C3  UNL     1      21.254   1.048  52.832  1.00  0.00     0.044 A 
HETATM   12  C2  UNL     1      20.159   0.626  51.975  1.00  0.00     0.016 A 
HETATM   13  C1  UNL     1      19.793   0.897  50.743  1.00  0.00     0.028 C 
HETATM   14  C15 UNL     1      19.326  -0.319  52.751  1.00  0.00     0.137 A 
HETATM   15  N2  UNL     1      19.933  -0.434  54.027  1.00  0.00    -0.349 N 
HETATM   16  N3  UNL     1      18.245  -0.918  52.327  1.00  0.00    -0.242 NA
HETATM   17  C14 UNL     1      21.065   0.414  53.969  1.00  0.00     0.106 A 
HETATM   18  H14 UNL     1      19.503  -1.060  54.748  1.00  0.00     0.167 HD
BRANCH  16  19
HETATM   19  C16 UNL     1      17.571  -1.796  53.217  1.00  0.00     0.131 C 
BRANCH  19  20
HETATM   20  C17 UNL     1      17.417  -3.076  53.524  1.00  0.00     0.237 C 
HETATM   21 CL1  UNL     1      16.804  -4.653  53.964  1.00  0.00    -0.229 Cl
ENDBRANCH  19  20
ENDBRANCH  16  19
ENDBRANCH   9  11
ENDBRANCH   1   9
BRANCH   6  22
HETATM   22  N1  UNL     1      26.859   0.414  52.676  1.00  0.00    -0.281 N 
HETATM   23  H5  UNL     1      26.904  -0.539  52.201  1.00  0.00     0.178 HD
BRANCH  22  24
HETATM   24  S1  UNL     1      27.949   0.656  53.975  1.00  0.00     0.231 S 
HETATM   25  O2  UNL     1      27.530  -0.109  55.201  1.00  0.00    -0.206 OA
HETATM   26  O3  UNL     1      27.961   2.146  54.275  1.00  0.00    -0.206 OA
BRANCH  24  27
HETATM   27  C10 UNL     1      29.584   0.231  53.464  1.00  0.00     0.163 C 
BRANCH  27  28
HETATM   28  C11 UNL     1      29.909  -1.155  53.923  1.00  0.00     0.012 C 
HETATM   29  C12 UNL     1      29.196  -2.208  53.087  1.00  0.00     0.006 C 
ENDBRANCH  27  28
ENDBRANCH  24  27
ENDBRANCH  22  24
ENDBRANCH   6  22
TORSDOF 8
ENDMDL
MODEL 5
REMARK VINA RESULT:      -7.7      5.279      8.964
REMARK  8 active torsions:
REMARK  status: ('A' for Active; 'I' for Inactive)
REMARK    1  A    between atoms: C3_3  and  C4_4 
REMARK    2  A    between atoms: C4_4  and  C5_6 
REMARK    3  A    between atoms: C9_11  and  N1_12 
REMARK    4  A    between atoms: N1_12  and  S1_13 
REMARK    5  A    between atoms: S1_13  and  C10_16 
REMARK    6  A    between atoms: C10_16  and  C11_17 
REMARK    7  A    between atoms: N3_24  and  C16_25 
REMARK    8  A    between atoms: C16_25  and  C17_26 
ROOT
HETATM    1  C5  UNL     1      24.641   2.718  50.953  1.00  0.00     0.094 A 
HETATM    2  C6  UNL     1      23.446   2.357  51.521  1.00  0.00     0.133 A 
HETATM    3  F1  UNL     1      22.298   2.957  51.185  1.00  0.00    -0.205 F 
HETATM    4  C7  UNL     1      23.224   1.392  52.462  1.00  0.00     0.046 A 
HETATM    5  C8  UNL     1      24.343   0.711  52.877  1.00  0.00     0.036 A 
HETATM    6  C9  UNL     1      25.585   0.983  52.383  1.00  0.00     0.082 A 
HETATM    7  C13 UNL     1      25.692   1.969  51.446  1.00  0.00     0.160 A 
HETATM    8  F2  UNL     1      26.990   2.154  51.020  1.00  0.00    -0.203 F 
ENDROOT
BRANCH   1   9
HETATM    9  C4  UNL     1      24.874   3.724  49.982  1.00  0.00     0.200 C 
HETATM   10  O1  UNL     1      24.077   3.600  48.984  1.00  0.00    -0.286 OA
BRANCH   9  11
HETATM   11  C3  UNL     1      25.687   4.856  49.693  1.00  0.00     0.044 A 
HETATM   12  C2  UNL     1      25.370   6.206  50.127  1.00  0.00     0.016 A 
HETATM   13  C1  UNL     1      24.394   6.749  50.818  1.00  0.00     0.028 C 
HETATM   14  C15 UNL     1      26.445   7.095  49.634  1.00  0.00     0.137 A 
HETATM   15  N2  UNL     1      27.357   6.269  48.930  1.00  0.00    -0.349 N 
HETATM   16  N3  UNL     1      26.519   8.386  49.819  1.00  0.00    -0.242 NA
HETATM   17  C14 UNL     1      26.815   4.964  49.026  1.00  0.00     0.106 A 
HETATM   18  H14 UNL     1      28.207   6.696  48.491  1.00  0.00     0.167 HD
BRANCH  16  19
HETATM   19  C16 UNL     1      27.630   9.080  49.269  1.00  0.00     0.131 C 
BRANCH  19  20
HETATM   20  C17 UNL     1      28.850   9.516  49.551  1.00  0.00     0.237 C 
HETATM   21 CL1  UNL     1      30.559   9.881  49.565  1.00  0.00    -0.229 Cl
ENDBRANCH  19  20
ENDBRANCH  16  19
ENDBRANCH   9  11
ENDBRANCH   1   9
BRANCH   6  22
HETATM   22  N1  UNL     1      26.675   0.236  52.837  1.00  0.00    -0.281 N 
HETATM   23  H5  UNL     1      26.752  -0.683  52.304  1.00  0.00     0.178 HD
BRANCH  22  24
HETATM   24  S1  UNL     1      27.862   0.508  54.041  1.00  0.00     0.231 S 
HETATM   25  O2  UNL     1      27.574  -0.277  55.292  1.00  0.00    -0.206 OA
HETATM   26  O3  UNL     1      27.849   1.996  54.352  1.00  0.00    -0.206 OA
BRANCH  24  27
HETATM   27  C10 UNL     1      29.461   0.142  53.390  1.00  0.00     0.163 C 
BRANCH  27  28
HETATM   28  C11 UNL     1      29.908  -1.197  53.883  1.00  0.00     0.012 C 
HETATM   29  C12 UNL     1      29.206  -2.331  53.152  1.00  0.00     0.006 C 
ENDBRANCH  27  28
ENDBRANCH  24  27
ENDBRANCH  22  24
ENDBRANCH   6  22
TORSDOF 8
ENDMDL
MODEL 6
REMARK VINA RESULT:      -7.6      4.932      8.746
REMARK  8 active torsions:
REMARK  status: ('A' for Active; 'I' for Inactive)
REMARK    1  A    between atoms: C3_3  and  C4_4 
REMARK    2  A    between atoms: C4_4  and  C5_6 
REMARK    3  A    between atoms: C9_11  and  N1_12 
REMARK    4  A    between atoms: N1_12  and  S1_13 
REMARK    5  A    between atoms: S1_13  and  C10_16 
REMARK    6  A    between atoms: C10_16  and  C11_17 
REMARK    7  A    between atoms: N3_24  and  C16_25 
REMARK    8  A    between atoms: C16_25  and  C17_26 
ROOT
HETATM    1  C5  UNL     1      23.824   2.610  50.892  1.00  0.00     0.094 A 
HETATM    2  C6  UNL     1      22.561   2.805  51.389  1.00  0.00     0.133 A 
HETATM    3  F1  UNL     1      21.715   3.681  50.835  1.00  0.00    -0.205 F 
HETATM    4  C7  UNL     1      21.978   2.187  52.459  1.00  0.00     0.046 A 
HETATM    5  C8  UNL     1      22.765   1.263  53.101  1.00  0.00     0.036 A 
HETATM    6  C9  UNL     1      24.039   0.985  52.698  1.00  0.00     0.082 A 
HETATM    7  C13 UNL     1      24.521   1.662  51.616  1.00  0.00     0.160 A 
HETATM    8  F2  UNL     1      25.813   1.300  51.300  1.00  0.00    -0.203 F 
ENDROOT
BRANCH   1   9
HETATM    9  C4  UNL     1      24.433   3.255  49.786  1.00  0.00     0.200 C 
HETATM   10  O1  UNL     1      23.789   3.025  48.701  1.00  0.00    -0.286 OA
BRANCH   9  11
HETATM   11  C3  UNL     1      25.526   4.090  49.421  1.00  0.00     0.044 A 
HETATM   12  C2  UNL     1      25.377   5.477  49.012  1.00  0.00     0.016 A 
HETATM   13  C1  UNL     1      24.359   6.294  48.868  1.00  0.00     0.028 C 
HETATM   14  C15 UNL     1      26.729   5.999  48.714  1.00  0.00     0.137 A 
HETATM   15  N2  UNL     1      27.632   4.931  48.947  1.00  0.00    -0.349 N 
HETATM   16  N3  UNL     1      27.014   7.210  48.314  1.00  0.00    -0.242 NA
HETATM   17  C14 UNL     1      26.818   3.850  49.361  1.00  0.00     0.106 A 
HETATM   18  H14 UNL     1      28.658   5.081  48.795  1.00  0.00     0.167 HD
BRANCH  16  19
HETATM   19  C16 UNL     1      28.376   7.535  48.075  1.00  0.00     0.131 C 
BRANCH  19  20
HETATM   20  C17 UNL     1      29.460   8.035  48.650  1.00  0.00     0.237 C 
HETATM   21 CL1  UNL     1      31.042   8.302  49.344  1.00  0.00    -0.229 Cl
ENDBRANCH  19  20
ENDBRANCH  16  19
ENDBRANCH   9  11
ENDBRANCH   1   9
BRANCH   6  22
HETATM   22  N1  UNL     1      24.774   0.018  53.388  1.00  0.00    -0.281 N 
HETATM   23  H5  UNL     1      24.320  -0.941  53.294  1.00  0.00     0.178 HD
BRANCH  22  24
HETATM   24  S1  UNL     1      26.210   0.081  54.319  1.00  0.00     0.231 S 
HETATM   25  O2  UNL     1      26.060  -0.656  55.621  1.00  0.00    -0.206 OA
HETATM   26  O3  UNL     1      26.504   1.548  54.586  1.00  0.00    -0.206 OA
BRANCH  24  27
HETATM   27  C10 UNL     1      27.561  -0.539  53.367  1.00  0.00     0.163 C 
BRANCH  27  28
HETATM   28  C11 UNL     1      28.848  -0.035  53.937  1.00  0.00     0.012 C 
HETATM   29  C12 UNL     1      29.992  -1.010  53.696  1.00  0.00     0.006 C 
ENDBRANCH  27  28
ENDBRANCH  24  27
ENDBRANCH  22  24
ENDBRANCH   6  22
TORSDOF 8
ENDMDL
MODEL 7
REMARK VINA RESULT:      -7.4      3.762      5.130
REMARK  8 active torsions:
REMARK  status: ('A' for Active; 'I' for Inactive)
REMARK    1  A    between atoms: C3_3  and  C4_4 
REMARK    2  A    between atoms: C4_4  and  C5_6 
REMARK    3  A    between atoms: C9_11  and  N1_12 
REMARK    4  A    between atoms: N1_12  and  S1_13 
REMARK    5  A    between atoms: S1_13  and  C10_16 
REMARK    6  A    between atoms: C10_16  and  C11_17 
REMARK    7  A    between atoms: N3_24  and  C16_25 
REMARK    8  A    between atoms: C16_25  and  C17_26 
ROOT
HETATM    1  C5  UNL     1      21.646   0.595  52.891  1.00  0.00     0.094 A 
HETATM    2  C6  UNL     1      21.808  -0.334  53.886  1.00  0.00     0.133 A 
HETATM    3  F1  UNL     1      20.761  -0.897  54.500  1.00  0.00    -0.205 F 
HETATM    4  C7  UNL     1      22.979  -0.819  54.396  1.00  0.00     0.046 A 
HETATM    5  C8  UNL     1      24.120  -0.305  53.831  1.00  0.00     0.036 A 
HETATM    6  C9  UNL     1      24.083   0.625  52.833  1.00  0.00     0.082 A 
HETATM    7  C13 UNL     1      22.858   1.040  52.400  1.00  0.00     0.160 A 
HETATM    8  F2  UNL     1      22.944   1.976  51.392  1.00  0.00    -0.203 F 
ENDROOT
BRANCH   1   9
HETATM    9  C4  UNL     1      20.432   1.104  52.365  1.00  0.00     0.200 C 
HETATM   10  O1  UNL     1      20.071   2.172  52.979  1.00  0.00    -0.286 OA
BRANCH   9  11
HETATM   11  C3  UNL     1      19.433   0.866  51.380  1.00  0.00     0.044 A 
HETATM   12  C2  UNL     1      18.326  -0.056  51.562  1.00  0.00     0.016 A 
HETATM   13  C1  UNL     1      17.933  -0.848  52.535  1.00  0.00     0.028 C 
HETATM   14  C15 UNL     1      17.515  -0.028  50.325  1.00  0.00     0.137 A 
HETATM   15  N2  UNL     1      18.147   0.893  49.453  1.00  0.00    -0.349 N 
HETATM   16  N3  UNL     1      16.432  -0.723  50.100  1.00  0.00    -0.242 NA
HETATM   17  C14 UNL     1      19.271   1.364  50.173  1.00  0.00     0.106 A 
HETATM   18  H14 UNL     1      17.736   1.072  48.505  1.00  0.00     0.167 HD
BRANCH  16  19
HETATM   19  C16 UNL     1      15.781  -0.566  48.847  1.00  0.00     0.131 C 
BRANCH  19  20
HETATM   20  C17 UNL     1      15.323  -1.241  47.802  1.00  0.00     0.237 C 
HETATM   21 CL1  UNL     1      14.806  -2.468  46.670  1.00  0.00    -0.229 Cl
ENDBRANCH  19  20
ENDBRANCH  16  19
ENDBRANCH   9  11
ENDBRANCH   1   9
BRANCH   6  22
HETATM   22  N1  UNL     1      25.285   1.089  52.292  1.00  0.00    -0.281 N 
HETATM   23  H5  UNL     1      25.200   1.223  51.239  1.00  0.00     0.178 HD
BRANCH  22  24
HETATM   24  S1  UNL     1      26.809   1.467  52.976  1.00  0.00     0.231 S 
HETATM   25  O2  UNL     1      26.666   2.170  54.297  1.00  0.00    -0.206 OA
HETATM   26  O3  UNL     1      27.530   2.368  51.987  1.00  0.00    -0.206 OA
BRANCH  24  27
HETATM   27  C10 UNL     1      27.776  -0.003  53.117  1.00  0.00     0.163 C 
BRANCH  27  28
HETATM   28  C11 UNL     1      29.157   0.347  53.572  1.00  0.00     0.012 C 
HETATM   29  C12 UNL     1      30.026  -0.890  53.745  1.00  0.00     0.006 C 
ENDBRANCH  27  28
ENDBRANCH  24  27
ENDBRANCH  22  24
ENDBRANCH   6  22
TORSDOF 8
ENDMDL
MODEL 8
REMARK VINA RESULT:      -7.4      4.594      6.425
REMARK  8 active torsions:
REMARK  status: ('A' for Active; 'I' for Inactive)
REMARK    1  A    between atoms: C3_3  and  C4_4 
REMARK    2  A    between atoms: C4_4  and  C5_6 
REMARK    3  A    between atoms: C9_11  and  N1_12 
REMARK    4  A    between atoms: N1_12  and  S1_13 
REMARK    5  A    between atoms: S1_13  and  C10_16 
REMARK    6  A    between atoms: C10_16  and  C11_17 
REMARK    7  A    between atoms: N3_24  and  C16_25 
REMARK    8  A    between atoms: C16_25  and  C17_26 
ROOT
HETATM    1  C5  UNL     1      22.425   0.055  53.272  1.00  0.00     0.094 A 
HETATM    2  C6  UNL     1      22.027  -0.662  54.371  1.00  0.00     0.133 A 
HETATM    3  F1  UNL     1      20.733  -0.823  54.674  1.00  0.00    -0.205 F 
HETATM    4  C7  UNL     1      22.816  -1.297  55.288  1.00  0.00     0.046 A 
HETATM    5  C8  UNL     1      24.167  -1.195  55.067  1.00  0.00     0.036 A 
HETATM    6  C9  UNL     1      24.682  -0.507  54.007  1.00  0.00     0.082 A 
HETATM    7  C13 UNL     1      23.801   0.090  53.152  1.00  0.00     0.160 A 
HETATM    8  F2  UNL     1      24.433   0.753  52.122  1.00  0.00    -0.203 F 
ENDROOT
BRANCH   1   9
HETATM    9  C4  UNL     1      21.608   0.719  52.323  1.00  0.00     0.200 C 
HETATM   10  O1  UNL     1      20.973  -0.119  51.588  1.00  0.00    -0.286 OA
BRANCH   9  11
HETATM   11  C3  UNL     1      21.217   2.010  51.869  1.00  0.00     0.044 A 
HETATM   12  C2  UNL     1      21.797   2.665  50.710  1.00  0.00     0.016 A 
HETATM   13  C1  UNL     1      22.720   2.344  49.832  1.00  0.00     0.028 C 
HETATM   14  C15 UNL     1      21.135   3.981  50.565  1.00  0.00     0.137 A 
HETATM   15  N2  UNL     1      20.195   4.075  51.622  1.00  0.00    -0.349 N 
HETATM   16  N3  UNL     1      21.383   4.868  49.638  1.00  0.00    -0.242 NA
HETATM   17  C14 UNL     1      20.325   2.858  52.334  1.00  0.00     0.106 A 
HETATM   18  H14 UNL     1      19.606   4.937  51.714  1.00  0.00     0.167 HD
BRANCH  16  19
HETATM   19  C16 UNL     1      20.645   6.082  49.656  1.00  0.00     0.131 C 
BRANCH  19  20
HETATM   20  C17 UNL     1      20.779   7.400  49.698  1.00  0.00     0.237 C 
HETATM   21 CL1  UNL     1      20.550   9.131  49.624  1.00  0.00    -0.229 Cl
ENDBRANCH  19  20
ENDBRANCH  16  19
ENDBRANCH   9  11
ENDBRANCH   1   9
BRANCH   6  22
HETATM   22  N1  UNL     1      26.067  -0.462  53.834  1.00  0.00    -0.281 N 
HETATM   23  H5  UNL     1      26.453  -1.431  53.615  1.00  0.00     0.178 HD
BRANCH  22  24
HETATM   24  S1  UNL     1      27.217   0.805  53.905  1.00  0.00     0.231 S 
HETATM   25  O2  UNL     1      26.649   2.034  54.561  1.00  0.00    -0.206 OA
HETATM   26  O3  UNL     1      27.620   1.123  52.475  1.00  0.00    -0.206 OA
BRANCH  24  27
HETATM   27  C10 UNL     1      28.673   0.239  54.726  1.00  0.00     0.163 C 
BRANCH  27  28
HETATM   28  C11 UNL     1      29.670  -0.227  53.713  1.00  0.00     0.012 C 
HETATM   29  C12 UNL     1      29.498  -1.703  53.389  1.00  0.00     0.006 C 
ENDBRANCH  27  28
ENDBRANCH  24  27
ENDBRANCH  22  24
ENDBRANCH   6  22
TORSDOF 8
ENDMDL
MODEL 9
REMARK VINA RESULT:      -7.3      4.611      6.973
REMARK  8 active torsions:
REMARK  status: ('A' for Active; 'I' for Inactive)
REMARK    1  A    between atoms: C3_3  and  C4_4 
REMARK    2  A    between atoms: C4_4  and  C5_6 
REMARK    3  A    between atoms: C9_11  and  N1_12 
REMARK    4  A    between atoms: N1_12  and  S1_13 
REMARK    5  A    between atoms: S1_13  and  C10_16 
REMARK    6  A    between atoms: C10_16  and  C11_17 
REMARK    7  A    between atoms: N3_24  and  C16_25 
REMARK    8  A    between atoms: C16_25  and  C17_26 
ROOT
HETATM    1  C5  UNL     1      23.904   1.547  52.102  1.00  0.00     0.094 A 
HETATM    2  C6  UNL     1      23.160   0.730  52.914  1.00  0.00     0.133 A 
HETATM    3  F1  UNL     1      21.861   0.957  53.139  1.00  0.00    -0.205 F 
HETATM    4  C7  UNL     1      23.576  -0.383  53.590  1.00  0.00     0.046 A 
HETATM    5  C8  UNL     1      24.900  -0.706  53.425  1.00  0.00     0.036 A 
HETATM    6  C9  UNL     1      25.738   0.033  52.642  1.00  0.00     0.082 A 
HETATM    7  C13 UNL     1      25.217   1.125  52.013  1.00  0.00     0.160 A 
HETATM    8  F2  UNL     1      26.153   1.791  51.251  1.00  0.00    -0.203 F 
ENDROOT
BRANCH   1   9
HETATM    9  C4  UNL     1      23.476   2.704  51.405  1.00  0.00     0.200 C 
HETATM   10  O1  UNL     1      23.191   3.657  52.216  1.00  0.00    -0.286 OA
BRANCH   9  11
HETATM   11  C3  UNL     1      23.239   3.220  50.100  1.00  0.00     0.044 A 
HETATM   12  C2  UNL     1      22.444   2.534  49.096  1.00  0.00     0.016 A 
HETATM   13  C1  UNL     1      21.784   1.399  49.057  1.00  0.00     0.028 C 
HETATM   14  C15 UNL     1      22.434   3.381  47.882  1.00  0.00     0.137 A 
HETATM   15  N2  UNL     1      23.208   4.528  48.188  1.00  0.00    -0.349 N 
HETATM   16  N3  UNL     1      21.825   3.107  46.760  1.00  0.00    -0.242 NA
HETATM   17  C14 UNL     1      23.637   4.333  49.523  1.00  0.00     0.106 A 
HETATM   18  H14 UNL     1      23.337   5.272  47.461  1.00  0.00     0.167 HD
BRANCH  16  19
HETATM   19  C16 UNL     1      21.925   4.043  45.695  1.00  0.00     0.131 C 
BRANCH  19  20
HETATM   20  C17 UNL     1      21.330   5.097  45.155  1.00  0.00     0.237 C 
HETATM   21 CL1  UNL     1      20.945   6.593  44.338  1.00  0.00    -0.229 Cl
ENDBRANCH  19  20
ENDBRANCH  16  19
ENDBRANCH   9  11
ENDBRANCH   1   9
BRANCH   6  22
HETATM   22  N1  UNL     1      27.070  -0.368  52.506  1.00  0.00    -0.281 N 
HETATM   23  H5  UNL     1      27.348  -0.413  51.478  1.00  0.00     0.178 HD
BRANCH  22  24
HETATM   24  S1  UNL     1      28.290  -0.784  53.633  1.00  0.00     0.231 S 
HETATM   25  O2  UNL     1      28.721  -2.217  53.480  1.00  0.00    -0.206 OA
HETATM   26  O3  UNL     1      27.709  -0.565  55.020  1.00  0.00    -0.206 OA
BRANCH  24  27
HETATM   27  C10 UNL     1      29.649   0.330  53.473  1.00  0.00     0.163 C 
BRANCH  27  28
HETATM   28  C11 UNL     1      29.403   1.544  54.310  1.00  0.00     0.012 C 
HETATM   29  C12 UNL     1      28.597   2.594  53.559  1.00  0.00     0.006 C 
ENDBRANCH  27  28
ENDBRANCH  24  27
ENDBRANCH  22  24
ENDBRANCH   6  22
TORSDOF 8
ENDMDL
