MODEL 1
REMARK VINA RESULT:      -7.3      0.000      0.000
REMARK  6 active torsions:
REMARK  status: ('A' for Active; 'I' for Inactive)
REMARK    1  A    between atoms: O1_2  and  C2_3 
REMARK    2  A    between atoms: C2_3  and  C3_4 
REMARK    3  A    between atoms: C3_4  and  O2_5 
REMARK    4  A    between atoms: O2_5  and  C4_6 
REMARK    5  A    between atoms: C11_15  and  N1_16 
REMARK    6  A    between atoms: N1_16  and  C12_17 
ROOT
HETATM    1  C12 UNL     1      28.668   0.018  54.956  1.00  0.00     0.119 C 
HETATM    2  C13 UNL     1      29.389  -0.473  54.002  1.00  0.00     0.205 C 
HETATM    3  F1  UNL     1      30.121  -0.967  52.941  1.00  0.00    -0.218 F 
ENDROOT
BRANCH   1   4
HETATM    4  N1  UNL     1      27.556   0.881  54.685  1.00  0.00    -0.348 N 
HETATM    5  H15 UNL     1      27.833   1.879  54.932  1.00  0.00     0.167 HD
BRANCH   4   6
HETATM    6  C11 UNL     1      26.281   0.462  54.168  1.00  0.00     0.133 C 
HETATM    7  C10 UNL     1      25.810   1.161  52.967  1.00  0.00     0.017 C 
HETATM    8  C6  UNL     1      24.544   1.670  52.408  1.00  0.00     0.188 C 
HETATM    9  C9  UNL     1      26.778   1.444  52.092  1.00  0.00     0.013 C 
HETATM   10  O3  UNL     1      23.503   1.591  53.369  1.00  0.00    -0.348 OA
HETATM   11  C7  UNL     1      24.646   3.088  51.910  1.00  0.00     0.205 C 
HETATM   12  C5  UNL     1      22.300   0.947  53.093  1.00  0.00     0.172 C 
HETATM   13  C4  UNL     1      21.398  -0.022  53.229  1.00  0.00     0.091 C 
HETATM   14  C16 UNL     1      21.374  -1.204  54.054  1.00  0.00     0.054 C 
HETATM   15  C15 UNL     1      22.251  -1.651  54.931  1.00  0.00     0.077 C 
HETATM   16  N3  UNL     1      23.400  -0.840  55.099  1.00  0.00    -0.398 NA
HETATM   17  C14 UNL     1      24.597  -1.149  54.793  1.00  0.00     0.446 C 
HETATM   18  N2  UNL     1      25.813  -0.458  54.905  1.00  0.00    -0.240 NA
HETATM   19  O4  UNL     1      25.768   3.332  51.131  1.00  0.00    -0.385 OA
HETATM   20  C8  UNL     1      26.466   2.159  50.821  1.00  0.00     0.196 C 
BRANCH  13  21
HETATM   21  O2  UNL     1      20.280   0.191  52.400  1.00  0.00    -0.347 OA
BRANCH  21  22
HETATM   22  C3  UNL     1      20.335   1.024  51.282  1.00  0.00     0.201 C 
BRANCH  22  23
HETATM   23  C2  UNL     1      19.114   1.908  51.324  1.00  0.00     0.193 C 
BRANCH  23  24
HETATM   24  O1  UNL     1      19.269   2.927  52.219  1.00  0.00    -0.394 OA
HETATM   25  C1  UNL     1      20.337   3.734  51.898  1.00  0.00     0.201 C 
ENDBRANCH  23  24
ENDBRANCH  22  23
ENDBRANCH  21  22
ENDBRANCH  13  21
ENDBRANCH   4   6
ENDBRANCH   1   4
TORSDOF 6
ENDMDL
MODEL 2
REMARK VINA RESULT:      -6.8      3.058      6.223
REMARK  6 active torsions:
REMARK  status: ('A' for Active; 'I' for Inactive)
REMARK    1  A    between atoms: O1_2  and  C2_3 
REMARK    2  A    between atoms: C2_3  and  C3_4 
REMARK    3  A    between atoms: C3_4  and  O2_5 
REMARK    4  A    between atoms: O2_5  and  C4_6 
REMARK    5  A    between atoms: C11_15  and  N1_16 
REMARK    6  A    between atoms: N1_16  and  C12_17 
ROOT
HETATM    1  C12 UNL     1      19.673   1.729  50.340  1.00  0.00     0.119 C 
HETATM    2  C13 UNL     1      20.530   1.167  49.553  1.00  0.00     0.205 C 
HETATM    3  F1  UNL     1      21.494   0.586  48.753  1.00  0.00    -0.218 F 
ENDROOT
BRANCH   1   4
HETATM    4  N1  UNL     1      20.082   2.381  51.549  1.00  0.00    -0.348 N 
HETATM    5  H15 UNL     1      19.500   3.264  51.672  1.00  0.00     0.167 HD
BRANCH   4   6
HETATM    6  C11 UNL     1      21.111   1.916  52.440  1.00  0.00     0.133 C 
HETATM    7  C10 UNL     1      22.414   2.580  52.324  1.00  0.00     0.017 C 
HETATM    8  C6  UNL     1      23.844   2.229  52.385  1.00  0.00     0.188 C 
HETATM    9  C9  UNL     1      22.332   3.893  52.092  1.00  0.00     0.013 C 
HETATM   10  O3  UNL     1      24.014   0.821  52.424  1.00  0.00    -0.348 OA
HETATM   11  C7  UNL     1      24.639   2.788  51.234  1.00  0.00     0.205 C 
HETATM   12  C5  UNL     1      24.763   0.201  53.421  1.00  0.00     0.172 C 
HETATM   13  C4  UNL     1      24.929  -0.563  54.498  1.00  0.00     0.091 C 
HETATM   14  C16 UNL     1      23.992  -1.301  55.307  1.00  0.00     0.054 C 
HETATM   15  C15 UNL     1      22.686  -1.437  55.192  1.00  0.00     0.077 C 
HETATM   16  N3  UNL     1      22.106  -0.757  54.092  1.00  0.00    -0.398 NA
HETATM   17  C14 UNL     1      21.294   0.223  54.150  1.00  0.00     0.446 C 
HETATM   18  N2  UNL     1      20.649   0.979  53.160  1.00  0.00    -0.240 NA
HETATM   19  O4  UNL     1      24.377   4.124  50.965  1.00  0.00    -0.385 OA
HETATM   20  C8  UNL     1      23.567   4.715  51.942  1.00  0.00     0.196 C 
BRANCH  13  21
HETATM   21  O2  UNL     1      26.284  -0.638  54.876  1.00  0.00    -0.347 OA
BRANCH  21  22
HETATM   22  C3  UNL     1      27.124   0.477  54.844  1.00  0.00     0.201 C 
BRANCH  22  23
HETATM   23  C2  UNL     1      28.520  -0.025  54.571  1.00  0.00     0.193 C 
BRANCH  23  24
HETATM   24  O1  UNL     1      29.360   0.998  54.241  1.00  0.00    -0.394 OA
HETATM   25  C1  UNL     1      28.690   2.042  53.644  1.00  0.00     0.201 C 
ENDBRANCH  23  24
ENDBRANCH  22  23
ENDBRANCH  21  22
ENDBRANCH  13  21
ENDBRANCH   4   6
ENDBRANCH   1   4
TORSDOF 6
ENDMDL
MODEL 3
REMARK VINA RESULT:      -6.7      3.803      6.776
REMARK  6 active torsions:
REMARK  status: ('A' for Active; 'I' for Inactive)
REMARK    1  A    between atoms: O1_2  and  C2_3 
REMARK    2  A    between atoms: C2_3  and  C3_4 
REMARK    3  A    between atoms: C3_4  and  O2_5 
REMARK    4  A    between atoms: O2_5  and  C4_6 
REMARK    5  A    between atoms: C11_15  and  N1_16 
REMARK    6  A    between atoms: N1_16  and  C12_17 
ROOT
HETATM    1  C12 UNL     1      22.211  -0.782  54.062  1.00  0.00     0.119 C 
HETATM    2  C13 UNL     1      21.345  -0.086  54.721  1.00  0.00     0.205 C 
HETATM    3  F1  UNL     1      20.466   0.702  55.438  1.00  0.00    -0.218 F 
ENDROOT
BRANCH   1   4
HETATM    4  N1  UNL     1      23.574  -0.356  53.937  1.00  0.00    -0.348 N 
HETATM    5  H15 UNL     1      24.091  -0.606  54.834  1.00  0.00     0.167 HD
BRANCH   4   6
HETATM    6  C11 UNL     1      24.141   0.303  52.791  1.00  0.00     0.133 C 
HETATM    7  C10 UNL     1      25.588   0.143  52.604  1.00  0.00     0.017 C 
HETATM    8  C6  UNL     1      26.742   0.947  52.163  1.00  0.00     0.188 C 
HETATM    9  C9  UNL     1      26.041  -1.074  52.915  1.00  0.00     0.013 C 
HETATM   10  O3  UNL     1      26.376   2.309  52.012  1.00  0.00    -0.348 OA
HETATM   11  C7  UNL     1      27.918   0.855  53.100  1.00  0.00     0.205 C 
HETATM   12  C5  UNL     1      26.610   3.003  50.827  1.00  0.00     0.172 C 
HETATM   13  C4  UNL     1      26.247   3.621  49.707  1.00  0.00     0.091 C 
HETATM   14  C16 UNL     1      24.952   3.878  49.126  1.00  0.00     0.054 C 
HETATM   15  C15 UNL     1      23.745   3.577  49.564  1.00  0.00     0.077 C 
HETATM   16  N3  UNL     1      23.709   2.899  50.808  1.00  0.00    -0.398 NA
HETATM   17  C14 UNL     1      23.317   1.703  51.008  1.00  0.00     0.446 C 
HETATM   18  N2  UNL     1      23.225   0.918  52.166  1.00  0.00    -0.240 NA
HETATM   19  O4  UNL     1      28.225  -0.439  53.494  1.00  0.00    -0.385 OA
HETATM   20  C8  UNL     1      27.491  -1.399  52.787  1.00  0.00     0.196 C 
BRANCH  13  21
HETATM   21  O2  UNL     1      27.363   4.099  48.993  1.00  0.00    -0.347 OA
BRANCH  21  22
HETATM   22  C3  UNL     1      27.575   5.461  48.777  1.00  0.00     0.201 C 
BRANCH  22  23
HETATM   23  C2  UNL     1      28.959   5.608  48.194  1.00  0.00     0.193 C 
BRANCH  23  24
HETATM   24  O1  UNL     1      29.260   6.917  47.952  1.00  0.00    -0.394 OA
HETATM   25  C1  UNL     1      28.318   7.521  47.149  1.00  0.00     0.201 C 
ENDBRANCH  23  24
ENDBRANCH  22  23
ENDBRANCH  21  22
ENDBRANCH  13  21
ENDBRANCH   4   6
ENDBRANCH   1   4
TORSDOF 6
ENDMDL
MODEL 4
REMARK VINA RESULT:      -6.3      2.049      4.040
REMARK  6 active torsions:
REMARK  status: ('A' for Active; 'I' for Inactive)
REMARK    1  A    between atoms: O1_2  and  C2_3 
REMARK    2  A    between atoms: C2_3  and  C3_4 
REMARK    3  A    between atoms: C3_4  and  O2_5 
REMARK    4  A    between atoms: O2_5  and  C4_6 
REMARK    5  A    between atoms: C11_15  and  N1_16 
REMARK    6  A    between atoms: N1_16  and  C12_17 
ROOT
HETATM    1  C12 UNL     1      27.305  -0.125  54.322  1.00  0.00     0.119 C 
HETATM    2  C13 UNL     1      28.487  -0.040  53.807  1.00  0.00     0.205 C 
HETATM    3  F1  UNL     1      29.723   0.048  53.197  1.00  0.00    -0.218 F 
ENDROOT
BRANCH   1   4
HETATM    4  N1  UNL     1      26.135  -0.214  53.499  1.00  0.00    -0.348 N 
HETATM    5  H15 UNL     1      26.219  -1.079  52.883  1.00  0.00     0.167 HD
BRANCH   4   6
HETATM    6  C11 UNL     1      25.037   0.716  53.506  1.00  0.00     0.133 C 
HETATM    7  C10 UNL     1      23.714   0.150  53.792  1.00  0.00     0.017 C 
HETATM    8  C6  UNL     1      22.318   0.321  53.351  1.00  0.00     0.188 C 
HETATM    9  C9  UNL     1      23.727  -0.811  54.719  1.00  0.00     0.013 C 
HETATM   10  O3  UNL     1      22.250   1.178  52.222  1.00  0.00    -0.348 OA
HETATM   11  C7  UNL     1      21.639  -0.982  53.019  1.00  0.00     0.205 C 
HETATM   12  C5  UNL     1      21.427   2.301  52.204  1.00  0.00     0.172 C 
HETATM   13  C4  UNL     1      21.180   3.608  52.197  1.00  0.00     0.091 C 
HETATM   14  C16 UNL     1      22.058   4.753  52.206  1.00  0.00     0.054 C 
HETATM   15  C15 UNL     1      23.374   4.819  52.208  1.00  0.00     0.077 C 
HETATM   16  N3  UNL     1      24.039   3.568  52.191  1.00  0.00    -0.398 NA
HETATM   17  C14 UNL     1      24.761   3.081  53.121  1.00  0.00     0.446 C 
HETATM   18  N2  UNL     1      25.470   1.877  53.238  1.00  0.00    -0.240 NA
HETATM   19  O4  UNL     1      21.833  -1.976  53.968  1.00  0.00    -0.385 OA
HETATM   20  C8  UNL     1      22.464  -1.495  55.121  1.00  0.00     0.196 C 
BRANCH  13  21
HETATM   21  O2  UNL     1      19.797   3.875  52.172  1.00  0.00    -0.347 OA
BRANCH  21  22
HETATM   22  C3  UNL     1      19.023   3.660  51.031  1.00  0.00     0.201 C 
BRANCH  22  23
HETATM   23  C2  UNL     1      17.787   2.912  51.467  1.00  0.00     0.193 C 
BRANCH  23  24
HETATM   24  O1  UNL     1      16.959   3.708  52.203  1.00  0.00    -0.394 OA
HETATM   25  C1  UNL     1      15.940   4.234  51.441  1.00  0.00     0.201 C 
ENDBRANCH  23  24
ENDBRANCH  22  23
ENDBRANCH  21  22
ENDBRANCH  13  21
ENDBRANCH   4   6
ENDBRANCH   1   4
TORSDOF 6
ENDMDL
MODEL 5
REMARK VINA RESULT:      -6.2      3.449      5.896
REMARK  6 active torsions:
REMARK  status: ('A' for Active; 'I' for Inactive)
REMARK    1  A    between atoms: O1_2  and  C2_3 
REMARK    2  A    between atoms: C2_3  and  C3_4 
REMARK    3  A    between atoms: C3_4  and  O2_5 
REMARK    4  A    between atoms: O2_5  and  C4_6 
REMARK    5  A    between atoms: C11_15  and  N1_16 
REMARK    6  A    between atoms: N1_16  and  C12_17 
ROOT
HETATM    1  C12 UNL     1      21.801  -1.644  54.425  1.00  0.00     0.119 C 
HETATM    2  C13 UNL     1      20.550  -1.790  54.135  1.00  0.00     0.205 C 
HETATM    3  F1  UNL     1      19.210  -1.883  53.813  1.00  0.00    -0.218 F 
ENDROOT
BRANCH   1   4
HETATM    4  N1  UNL     1      22.440  -0.363  54.354  1.00  0.00    -0.348 N 
HETATM    5  H15 UNL     1      22.439   0.071  55.326  1.00  0.00     0.167 HD
BRANCH   4   6
HETATM    6  C11 UNL     1      22.986   0.232  53.163  1.00  0.00     0.133 C 
HETATM    7  C10 UNL     1      24.406   0.596  53.216  1.00  0.00     0.017 C 
HETATM    8  C6  UNL     1      25.290   1.676  52.743  1.00  0.00     0.188 C 
HETATM    9  C9  UNL     1      25.163  -0.279  53.882  1.00  0.00     0.013 C 
HETATM   10  O3  UNL     1      24.531   2.746  52.204  1.00  0.00    -0.348 OA
HETATM   11  C7  UNL     1      26.198   2.212  53.819  1.00  0.00     0.205 C 
HETATM   12  C5  UNL     1      24.767   3.241  50.923  1.00  0.00     0.172 C 
HETATM   13  C4  UNL     1      24.467   3.454  49.645  1.00  0.00     0.091 C 
HETATM   14  C16 UNL     1      23.319   3.091  48.853  1.00  0.00     0.054 C 
HETATM   15  C15 UNL     1      22.219   2.447  49.188  1.00  0.00     0.077 C 
HETATM   16  N3  UNL     1      22.145   2.052  50.547  1.00  0.00    -0.398 NA
HETATM   17  C14 UNL     1      22.144   0.857  50.990  1.00  0.00     0.446 C 
HETATM   18  N2  UNL     1      22.074   0.328  52.287  1.00  0.00    -0.240 NA
HETATM   19  O4  UNL     1      26.828   1.227  54.565  1.00  0.00    -0.385 OA
HETATM   20  C8  UNL     1      26.630  -0.053  54.034  1.00  0.00     0.196 C 
BRANCH  13  21
HETATM   21  O2  UNL     1      25.485   4.173  48.987  1.00  0.00    -0.347 OA
BRANCH  21  22
HETATM   22  C3  UNL     1      26.282   5.105  49.654  1.00  0.00     0.201 C 
BRANCH  22  23
HETATM   23  C2  UNL     1      25.661   6.461  49.432  1.00  0.00     0.193 C 
BRANCH  23  24
HETATM   24  O1  UNL     1      25.515   7.140  50.607  1.00  0.00    -0.394 OA
HETATM   25  C1  UNL     1      24.218   7.098  51.066  1.00  0.00     0.201 C 
ENDBRANCH  23  24
ENDBRANCH  22  23
ENDBRANCH  21  22
ENDBRANCH  13  21
ENDBRANCH   4   6
ENDBRANCH   1   4
TORSDOF 6
ENDMDL
MODEL 6
REMARK VINA RESULT:      -6.1      3.282      5.204
REMARK  6 active torsions:
REMARK  status: ('A' for Active; 'I' for Inactive)
REMARK    1  A    between atoms: O1_2  and  C2_3 
REMARK    2  A    between atoms: C2_3  and  C3_4 
REMARK    3  A    between atoms: C3_4  and  O2_5 
REMARK    4  A    between atoms: O2_5  and  C4_6 
REMARK    5  A    between atoms: C11_15  and  N1_16 
REMARK    6  A    between atoms: N1_16  and  C12_17 
ROOT
HETATM    1  C12 UNL     1      26.006   5.524  49.564  1.00  0.00     0.119 C 
HETATM    2  C13 UNL     1      26.887   5.923  48.707  1.00  0.00     0.205 C 
HETATM    3  F1  UNL     1      27.810   6.302  47.752  1.00  0.00    -0.218 F 
ENDROOT
BRANCH   1   4
HETATM    4  N1  UNL     1      25.142   4.415  49.286  1.00  0.00    -0.348 N 
HETATM    5  H15 UNL     1      24.579   4.634  48.409  1.00  0.00     0.167 HD
BRANCH   4   6
HETATM    6  C11 UNL     1      25.053   3.210  50.068  1.00  0.00     0.133 C 
HETATM    7  C10 UNL     1      23.727   2.586  50.141  1.00  0.00     0.017 C 
HETATM    8  C6  UNL     1      22.886   1.887  51.130  1.00  0.00     0.188 C 
HETATM    9  C9  UNL     1      23.039   2.643  48.999  1.00  0.00     0.013 C 
HETATM   10  O3  UNL     1      23.462   1.967  52.424  1.00  0.00    -0.348 OA
HETATM   11  C7  UNL     1      21.477   2.417  51.187  1.00  0.00     0.205 C 
HETATM   12  C5  UNL     1      23.703   0.830  53.191  1.00  0.00     0.172 C 
HETATM   13  C4  UNL     1      24.476  -0.074  53.787  1.00  0.00     0.091 C 
HETATM   14  C16 UNL     1      25.909  -0.215  53.862  1.00  0.00     0.054 C 
HETATM   15  C15 UNL     1      26.869   0.537  53.361  1.00  0.00     0.077 C 
HETATM   16  N3  UNL     1      26.426   1.673  52.639  1.00  0.00    -0.398 NA
HETATM   17  C14 UNL     1      26.571   1.881  51.391  1.00  0.00     0.446 C 
HETATM   18  N2  UNL     1      26.192   2.944  50.557  1.00  0.00    -0.240 NA
HETATM   19  O4  UNL     1      20.891   2.591  49.942  1.00  0.00    -0.385 OA
HETATM   20  C8  UNL     1      21.670   2.059  48.908  1.00  0.00     0.196 C 
BRANCH  13  21
HETATM   21  O2  UNL     1      23.711  -1.048  54.459  1.00  0.00    -0.347 OA
BRANCH  21  22
HETATM   22  C3  UNL     1      22.423  -0.784  54.927  1.00  0.00     0.201 C 
BRANCH  22  23
HETATM   23  C2  UNL     1      21.494  -1.756  54.244  1.00  0.00     0.193 C 
BRANCH  23  24
HETATM   24  O1  UNL     1      20.465  -1.108  53.624  1.00  0.00    -0.394 OA
HETATM   25  C1  UNL     1      20.370   0.206  54.023  1.00  0.00     0.201 C 
ENDBRANCH  23  24
ENDBRANCH  22  23
ENDBRANCH  21  22
ENDBRANCH  13  21
ENDBRANCH   4   6
ENDBRANCH   1   4
TORSDOF 6
ENDMDL
MODEL 7
REMARK VINA RESULT:      -6.1      3.074      5.084
REMARK  6 active torsions:
REMARK  status: ('A' for Active; 'I' for Inactive)
REMARK    1  A    between atoms: O1_2  and  C2_3 
REMARK    2  A    between atoms: C2_3  and  C3_4 
REMARK    3  A    between atoms: C3_4  and  O2_5 
REMARK    4  A    between atoms: O2_5  and  C4_6 
REMARK    5  A    between atoms: C11_15  and  N1_16 
REMARK    6  A    between atoms: N1_16  and  C12_17 
ROOT
HETATM    1  C12 UNL     1      27.372  -0.257  53.310  1.00  0.00     0.119 C 
HETATM    2  C13 UNL     1      28.343  -1.102  53.196  1.00  0.00     0.205 C 
HETATM    3  F1  UNL     1      29.354  -2.026  53.019  1.00  0.00    -0.218 F 
ENDROOT
BRANCH   1   4
HETATM    4  N1  UNL     1      26.353  -0.149  52.308  1.00  0.00    -0.348 N 
HETATM    5  H15 UNL     1      26.127  -1.126  51.947  1.00  0.00     0.167 HD
BRANCH   4   6
HETATM    6  C11 UNL     1      25.744   1.076  51.865  1.00  0.00     0.133 C 
HETATM    7  C10 UNL     1      24.289   1.170  52.027  1.00  0.00     0.017 C 
HETATM    8  C6  UNL     1      23.126   1.706  51.298  1.00  0.00     0.188 C 
HETATM    9  C9  UNL     1      23.835   0.617  53.155  1.00  0.00     0.013 C 
HETATM   10  O3  UNL     1      23.500   2.126  49.996  1.00  0.00    -0.348 OA
HETATM   11  C7  UNL     1      21.991   0.721  51.188  1.00  0.00     0.205 C 
HETATM   12  C5  UNL     1      23.223   3.410  49.532  1.00  0.00     0.172 C 
HETATM   13  C4  UNL     1      23.544   4.641  49.142  1.00  0.00     0.091 C 
HETATM   14  C16 UNL     1      24.815   5.312  49.025  1.00  0.00     0.054 C 
HETATM   15  C15 UNL     1      26.036   4.876  49.263  1.00  0.00     0.077 C 
HETATM   16  N3  UNL     1      26.119   3.529  49.696  1.00  0.00    -0.398 NA
HETATM   17  C14 UNL     1      26.505   3.124  50.840  1.00  0.00     0.446 C 
HETATM   18  N2  UNL     1      26.639   1.843  51.396  1.00  0.00    -0.240 NA
HETATM   19  O4  UNL     1      21.687   0.078  52.379  1.00  0.00    -0.385 OA
HETATM   20  C8  UNL     1      22.377   0.621  53.469  1.00  0.00     0.196 C 
BRANCH  13  21
HETATM   21  O2  UNL     1      22.403   5.386  48.785  1.00  0.00    -0.347 OA
BRANCH  21  22
HETATM   22  C3  UNL     1      21.291   5.483  49.623  1.00  0.00     0.201 C 
BRANCH  22  23
HETATM   23  C2  UNL     1      21.589   6.563  50.633  1.00  0.00     0.193 C 
BRANCH  23  24
HETATM   24  O1  UNL     1      21.866   7.752  50.023  1.00  0.00    -0.394 OA
HETATM   25  C1  UNL     1      20.724   8.475  49.764  1.00  0.00     0.201 C 
ENDBRANCH  23  24
ENDBRANCH  22  23
ENDBRANCH  21  22
ENDBRANCH  13  21
ENDBRANCH   4   6
ENDBRANCH   1   4
TORSDOF 6
ENDMDL
MODEL 8
REMARK VINA RESULT:      -6.1      1.757      2.193
REMARK  6 active torsions:
REMARK  status: ('A' for Active; 'I' for Inactive)
REMARK    1  A    between atoms: O1_2  and  C2_3 
REMARK    2  A    between atoms: C2_3  and  C3_4 
REMARK    3  A    between atoms: C3_4  and  O2_5 
REMARK    4  A    between atoms: O2_5  and  C4_6 
REMARK    5  A    between atoms: C11_15  and  N1_16 
REMARK    6  A    between atoms: N1_16  and  C12_17 
ROOT
HETATM    1  C12 UNL     1      27.252  -0.175  53.588  1.00  0.00     0.119 C 
HETATM    2  C13 UNL     1      28.481   0.005  53.946  1.00  0.00     0.205 C 
HETATM    3  F1  UNL     1      29.780   0.259  54.342  1.00  0.00    -0.218 F 
ENDROOT
BRANCH   1   4
HETATM    4  N1  UNL     1      26.287   0.881  53.671  1.00  0.00    -0.348 N 
HETATM    5  H15 UNL     1      26.721   1.697  54.201  1.00  0.00     0.167 HD
BRANCH   4   6
HETATM    6  C11 UNL     1      24.954   0.838  53.131  1.00  0.00     0.133 C 
HETATM    7  C10 UNL     1      24.637   1.847  52.115  1.00  0.00     0.017 C 
HETATM    8  C6  UNL     1      23.502   2.701  51.719  1.00  0.00     0.188 C 
HETATM    9  C9  UNL     1      25.644   2.105  51.277  1.00  0.00     0.013 C 
HETATM   10  O3  UNL     1      22.465   2.636  52.685  1.00  0.00    -0.348 OA
HETATM   11  C7  UNL     1      23.890   4.142  51.513  1.00  0.00     0.205 C 
HETATM   12  C5  UNL     1      21.156   2.314  52.333  1.00  0.00     0.172 C 
HETATM   13  C4  UNL     1      20.077   1.536  52.307  1.00  0.00     0.091 C 
HETATM   14  C16 UNL     1      19.812   0.239  52.878  1.00  0.00     0.054 C 
HETATM   15  C15 UNL     1      20.578  -0.543  53.612  1.00  0.00     0.077 C 
HETATM   16  N3  UNL     1      21.867  -0.028  53.894  1.00  0.00    -0.398 NA
HETATM   17  C14 UNL     1      22.978  -0.500  53.486  1.00  0.00     0.446 C 
HETATM   18  N2  UNL     1      24.308  -0.101  53.686  1.00  0.00    -0.240 NA
HETATM   19  O4  UNL     1      25.040   4.312  50.755  1.00  0.00    -0.385 OA
HETATM   20  C8  UNL     1      25.487   3.113  50.188  1.00  0.00     0.196 C 
BRANCH  13  21
HETATM   21  O2  UNL     1      19.026   2.132  51.581  1.00  0.00    -0.347 OA
BRANCH  21  22
HETATM   22  C3  UNL     1      18.909   3.517  51.452  1.00  0.00     0.201 C 
BRANCH  22  23
HETATM   23  C2  UNL     1      17.448   3.820  51.229  1.00  0.00     0.193 C 
BRANCH  23  24
HETATM   24  O1  UNL     1      16.825   4.151  52.397  1.00  0.00    -0.394 OA
HETATM   25  C1  UNL     1      15.514   3.732  52.417  1.00  0.00     0.201 C 
ENDBRANCH  23  24
ENDBRANCH  22  23
ENDBRANCH  21  22
ENDBRANCH  13  21
ENDBRANCH   4   6
ENDBRANCH   1   4
TORSDOF 6
ENDMDL
MODEL 9
REMARK VINA RESULT:      -6.0      5.002      7.752
REMARK  6 active torsions:
REMARK  status: ('A' for Active; 'I' for Inactive)
REMARK    1  A    between atoms: O1_2  and  C2_3 
REMARK    2  A    between atoms: C2_3  and  C3_4 
REMARK    3  A    between atoms: C3_4  and  O2_5 
REMARK    4  A    between atoms: O2_5  and  C4_6 
REMARK    5  A    between atoms: C11_15  and  N1_16 
REMARK    6  A    between atoms: N1_16  and  C12_17 
ROOT
HETATM    1  C12 UNL     1      22.096   5.742  46.827  1.00  0.00     0.119 C 
HETATM    2  C13 UNL     1      22.036   4.668  46.111  1.00  0.00     0.205 C 
HETATM    3  F1  UNL     1      22.034   3.507  45.362  1.00  0.00    -0.218 F 
ENDROOT
BRANCH   1   4
HETATM    4  N1  UNL     1      23.289   6.103  47.535  1.00  0.00    -0.348 N 
HETATM    5  H15 UNL     1      23.690   6.986  47.096  1.00  0.00     0.167 HD
BRANCH   4   6
HETATM    6  C11 UNL     1      23.848   5.384  48.649  1.00  0.00     0.133 C 
HETATM    7  C10 UNL     1      25.265   5.638  48.935  1.00  0.00     0.017 C 
HETATM    8  C6  UNL     1      26.458   4.890  49.369  1.00  0.00     0.188 C 
HETATM    9  C9  UNL     1      25.631   6.911  48.763  1.00  0.00     0.013 C 
HETATM   10  O3  UNL     1      26.200   3.495  49.374  1.00  0.00    -0.348 OA
HETATM   11  C7  UNL     1      27.669   5.161  48.516  1.00  0.00     0.205 C 
HETATM   12  C5  UNL     1      26.429   2.712  50.503  1.00  0.00     0.172 C 
HETATM   13  C4  UNL     1      26.061   1.963  51.539  1.00  0.00     0.091 C 
HETATM   14  C16 UNL     1      24.763   1.551  52.015  1.00  0.00     0.054 C 
HETATM   15  C15 UNL     1      23.561   1.797  51.536  1.00  0.00     0.077 C 
HETATM   16  N3  UNL     1      23.532   2.585  50.359  1.00  0.00    -0.398 NA
HETATM   17  C14 UNL     1      23.053   3.760  50.245  1.00  0.00     0.446 C 
HETATM   18  N2  UNL     1      22.956   4.642  49.159  1.00  0.00    -0.240 NA
HETATM   19  O4  UNL     1      27.887   6.508  48.260  1.00  0.00    -0.385 OA
HETATM   20  C8  UNL     1      27.040   7.335  49.006  1.00  0.00     0.196 C 
BRANCH  13  21
HETATM   21  O2  UNL     1      27.174   1.508  52.272  1.00  0.00    -0.347 OA
BRANCH  21  22
HETATM   22  C3  UNL     1      27.237   1.612  53.663  1.00  0.00     0.201 C 
BRANCH  22  23
HETATM   23  C2  UNL     1      27.525   0.231  54.199  1.00  0.00     0.193 C 
BRANCH  23  24
HETATM   24  O1  UNL     1      28.820   0.120  54.614  1.00  0.00    -0.394 OA
HETATM   25  C1  UNL     1      29.554  -0.705  53.793  1.00  0.00     0.201 C 
ENDBRANCH  23  24
ENDBRANCH  22  23
ENDBRANCH  21  22
ENDBRANCH  13  21
ENDBRANCH   4   6
ENDBRANCH   1   4
TORSDOF 6
ENDMDL
