MODEL 1
REMARK VINA RESULT:      -8.3      0.000      0.000
REMARK  9 active torsions:
REMARK  status: ('A' for Active; 'I' for Inactive)
REMARK    1  A    between atoms: C2_2  and  O1_3 
REMARK    2  A    between atoms: O1_3  and  C3_4 
REMARK    3  A    between atoms: C3_4  and  C4_6 
REMARK    4  A    between atoms: C4_6  and  N1_7 
REMARK    5  A    between atoms: N1_7  and  C5_8 
REMARK    6  A    between atoms: C5_8  and  C6_9 
REMARK    7  A    between atoms: O3_12  and  C9_13 
REMARK    8  A    between atoms: C13_19  and  O4_20 
REMARK    9  A    between atoms: C14_21  and  O5_22 
ROOT
HETATM    1  C6  UNL     1      26.485   5.294  48.955  1.00  0.00    -0.047 C 
HETATM    2  C7  UNL     1      27.067   4.249  49.449  1.00  0.00     0.014 C 
HETATM    3  C8  UNL     1      26.562   3.207  50.262  1.00  0.00    -0.034 A 
HETATM    4  O3  UNL     1      26.118   2.200  51.048  1.00  0.00     0.000 OA
HETATM    5  C18 UNL     1      25.235   3.055  50.417  1.00  0.00     0.050 A 
HETATM    6  P1  UNL     1      24.484   4.527  50.520  1.00  0.00    -0.066 P 
HETATM    7  C19 UNL     1      25.065   5.667  49.139  1.00  0.00     0.076 C 
ENDROOT
BRANCH   4   8
HETATM    8  C9  UNL     1      26.847   1.915  52.228  1.00  0.00     0.100 A 
HETATM    9  N2  UNL     1      28.037   2.475  52.472  1.00  0.00    -0.239 NA
HETATM   10  C10 UNL     1      28.667   2.166  53.596  1.00  0.00     0.234 A 
HETATM   11  N3  UNL     1      28.157   1.301  54.522  1.00  0.00    -0.241 NA
HETATM   12  C11 UNL     1      26.953   0.715  54.307  1.00  0.00     0.073 A 
HETATM   13  C12 UNL     1      26.365  -0.164  55.182  1.00  0.00     0.072 A 
HETATM   14  C17 UNL     1      26.300   1.037  53.136  1.00  0.00     0.027 A 
HETATM   15  C13 UNL     1      25.119  -0.690  54.828  1.00  0.00     0.101 A 
HETATM   16  C14 UNL     1      24.452  -0.365  53.639  1.00  0.00     0.102 A 
HETATM   17  C16 UNL     1      25.072   0.518  52.790  1.00  0.00     0.055 A 
BRANCH  15  18
HETATM   18  O4  UNL     1      24.566  -1.585  55.763  1.00  0.00    -0.358 OA
HETATM   19  H14 UNL     1      23.570  -1.532  55.906  1.00  0.00     0.217 HD
ENDBRANCH  15  18
BRANCH  16  20
HETATM   20  O5  UNL     1      23.226  -1.002  53.489  1.00  0.00    -0.353 OA
HETATM   21  C15 UNL     1      22.051  -0.229  53.618  1.00  0.00     0.210 C 
ENDBRANCH  16  20
ENDBRANCH   4   8
BRANCH   1  22
HETATM   22  C5  UNL     1      27.388   6.123  48.159  1.00  0.00     0.304 C 
BRANCH  22  23
HETATM   23  N1  UNL     1      28.619   6.497  48.818  1.00  0.00     0.096 N 
HETATM   24  H8  UNL     1      28.813   5.845  49.622  1.00  0.00     0.316 HD
BRANCH  23  25
HETATM   25  C4  UNL     1      29.733   6.574  47.893  1.00  0.00     0.380 C 
BRANCH  25  26
HETATM   26  C3  UNL     1      30.735   5.543  48.196  1.00  0.00     0.287 C 
HETATM   27  O2  UNL     1      31.089   5.335  49.363  1.00  0.00    -0.263 OA
BRANCH  26  28
HETATM   28  O1  UNL     1      31.415   4.687  47.325  1.00  0.00    -0.321 OA
BRANCH  28  29
HETATM   29  C2  UNL     1      32.703   4.180  47.698  1.00  0.00     0.174 C 
HETATM   30  C1  UNL     1      32.783   2.728  47.280  1.00  0.00     0.034 C 
ENDBRANCH  28  29
ENDBRANCH  26  28
ENDBRANCH  25  26
ENDBRANCH  23  25
ENDBRANCH  22  23
ENDBRANCH   1  22
TORSDOF 9
ENDMDL
MODEL 2
REMARK VINA RESULT:      -8.2      1.130      1.850
REMARK  9 active torsions:
REMARK  status: ('A' for Active; 'I' for Inactive)
REMARK    1  A    between atoms: C2_2  and  O1_3 
REMARK    2  A    between atoms: O1_3  and  C3_4 
REMARK    3  A    between atoms: C3_4  and  C4_6 
REMARK    4  A    between atoms: C4_6  and  N1_7 
REMARK    5  A    between atoms: N1_7  and  C5_8 
REMARK    6  A    between atoms: C5_8  and  C6_9 
REMARK    7  A    between atoms: O3_12  and  C9_13 
REMARK    8  A    between atoms: C13_19  and  O4_20 
REMARK    9  A    between atoms: C14_21  and  O5_22 
ROOT
HETATM    1  C6  UNL     1      26.406   5.299  49.036  1.00  0.00    -0.047 C 
HETATM    2  C7  UNL     1      26.969   4.232  49.505  1.00  0.00     0.014 C 
HETATM    3  C8  UNL     1      26.457   3.204  50.333  1.00  0.00    -0.034 A 
HETATM    4  O3  UNL     1      26.006   2.209  51.130  1.00  0.00     0.000 OA
HETATM    5  C18 UNL     1      25.132   3.097  50.534  1.00  0.00     0.050 A 
HETATM    6  P1  UNL     1      24.436   4.593  50.668  1.00  0.00    -0.066 P 
HETATM    7  C19 UNL     1      25.007   5.720  49.271  1.00  0.00     0.076 C 
ENDROOT
BRANCH   4   8
HETATM    8  C9  UNL     1      26.766   1.894  52.283  1.00  0.00     0.100 A 
HETATM    9  N2  UNL     1      27.975   2.427  52.495  1.00  0.00    -0.239 NA
HETATM   10  C10 UNL     1      28.633   2.090  53.595  1.00  0.00     0.234 A 
HETATM   11  N3  UNL     1      28.135   1.224  54.525  1.00  0.00    -0.241 NA
HETATM   12  C11 UNL     1      26.912   0.665  54.342  1.00  0.00     0.073 A 
HETATM   13  C12 UNL     1      26.334  -0.213  55.224  1.00  0.00     0.072 A 
HETATM   14  C17 UNL     1      26.230   1.017  53.197  1.00  0.00     0.027 A 
HETATM   15  C13 UNL     1      25.066  -0.707  54.904  1.00  0.00     0.101 A 
HETATM   16  C14 UNL     1      24.370  -0.354  53.741  1.00  0.00     0.102 A 
HETATM   17  C16 UNL     1      24.981   0.527  52.884  1.00  0.00     0.055 A 
BRANCH  15  18
HETATM   18  O4  UNL     1      24.526  -1.603  55.845  1.00  0.00    -0.358 OA
HETATM   19  H14 UNL     1      25.174  -2.026  56.491  1.00  0.00     0.217 HD
ENDBRANCH  15  18
BRANCH  16  20
HETATM   20  O5  UNL     1      23.126  -0.963  53.622  1.00  0.00    -0.353 OA
HETATM   21  C15 UNL     1      22.218  -0.448  52.670  1.00  0.00     0.210 C 
ENDBRANCH  16  20
ENDBRANCH   4   8
BRANCH   1  22
HETATM   22  C5  UNL     1      27.308   6.100  48.212  1.00  0.00     0.304 C 
BRANCH  22  23
HETATM   23  N1  UNL     1      28.509   6.554  48.877  1.00  0.00     0.096 N 
HETATM   24  H8  UNL     1      28.579   6.120  49.835  1.00  0.00     0.316 HD
BRANCH  23  25
HETATM   25  C4  UNL     1      29.698   6.320  48.081  1.00  0.00     0.380 C 
BRANCH  25  26
HETATM   26  C3  UNL     1      30.904   6.360  48.919  1.00  0.00     0.287 C 
HETATM   27  O2  UNL     1      31.476   5.314  49.249  1.00  0.00    -0.263 OA
BRANCH  26  28
HETATM   28  O1  UNL     1      31.574   7.465  49.453  1.00  0.00    -0.321 OA
BRANCH  28  29
HETATM   29  C2  UNL     1      31.531   8.718  48.758  1.00  0.00     0.174 C 
HETATM   30  C1  UNL     1      30.621   9.654  49.521  1.00  0.00     0.034 C 
ENDBRANCH  28  29
ENDBRANCH  26  28
ENDBRANCH  25  26
ENDBRANCH  23  25
ENDBRANCH  22  23
ENDBRANCH   1  22
TORSDOF 9
ENDMDL
MODEL 3
REMARK VINA RESULT:      -7.7      1.122      1.313
REMARK  9 active torsions:
REMARK  status: ('A' for Active; 'I' for Inactive)
REMARK    1  A    between atoms: C2_2  and  O1_3 
REMARK    2  A    between atoms: O1_3  and  C3_4 
REMARK    3  A    between atoms: C3_4  and  C4_6 
REMARK    4  A    between atoms: C4_6  and  N1_7 
REMARK    5  A    between atoms: N1_7  and  C5_8 
REMARK    6  A    between atoms: C5_8  and  C6_9 
REMARK    7  A    between atoms: O3_12  and  C9_13 
REMARK    8  A    between atoms: C13_19  and  O4_20 
REMARK    9  A    between atoms: C14_21  and  O5_22 
ROOT
HETATM    1  C6  UNL     1      26.961   5.849  48.756  1.00  0.00    -0.047 C 
HETATM    2  C7  UNL     1      27.142   4.615  49.100  1.00  0.00     0.014 C 
HETATM    3  C8  UNL     1      26.299   3.715  49.795  1.00  0.00    -0.034 A 
HETATM    4  O3  UNL     1      25.526   2.831  50.464  1.00  0.00     0.000 OA
HETATM    5  C18 UNL     1      24.999   4.009  49.971  1.00  0.00     0.050 A 
HETATM    6  P1  UNL     1      24.799   5.623  50.277  1.00  0.00    -0.066 P 
HETATM    7  C19 UNL     1      25.755   6.660  49.029  1.00  0.00     0.076 C 
ENDROOT
BRANCH   4   8
HETATM    8  C9  UNL     1      26.097   2.167  51.577  1.00  0.00     0.100 A 
HETATM    9  N2  UNL     1      27.377   2.348  51.923  1.00  0.00    -0.239 NA
HETATM   10  C10 UNL     1      27.849   1.697  52.976  1.00  0.00     0.234 A 
HETATM   11  N3  UNL     1      27.089   0.848  53.729  1.00  0.00    -0.241 NA
HETATM   12  C11 UNL     1      25.787   0.642  53.407  1.00  0.00     0.073 A 
HETATM   13  C12 UNL     1      24.951  -0.191  54.108  1.00  0.00     0.072 A 
HETATM   14  C17 UNL     1      25.299   1.320  52.311  1.00  0.00     0.027 A 
HETATM   15  C13 UNL     1      23.631  -0.305  53.660  1.00  0.00     0.101 A 
HETATM   16  C14 UNL     1      23.131   0.381  52.546  1.00  0.00     0.102 A 
HETATM   17  C16 UNL     1      23.999   1.205  51.872  1.00  0.00     0.055 A 
BRANCH  15  18
HETATM   18  O4  UNL     1      22.822  -1.173  54.417  1.00  0.00    -0.358 OA
HETATM   19  H14 UNL     1      21.848  -0.926  54.499  1.00  0.00     0.217 HD
ENDBRANCH  15  18
BRANCH  16  20
HETATM   20  O5  UNL     1      21.793   0.121  52.278  1.00  0.00    -0.353 OA
HETATM   21  C15 UNL     1      20.841   1.115  52.599  1.00  0.00     0.210 C 
ENDBRANCH  16  20
ENDBRANCH   4   8
BRANCH   1  22
HETATM   22  C5  UNL     1      28.104   6.412  48.041  1.00  0.00     0.304 C 
BRANCH  22  23
HETATM   23  N1  UNL     1      29.143   6.966  48.880  1.00  0.00     0.096 N 
HETATM   24  H8  UNL     1      29.215   6.419  49.778  1.00  0.00     0.316 HD
BRANCH  23  25
HETATM   25  C4  UNL     1      30.415   7.057  48.190  1.00  0.00     0.380 C 
BRANCH  25  26
HETATM   26  C3  UNL     1      31.269   5.907  48.514  1.00  0.00     0.287 C 
HETATM   27  O2  UNL     1      32.195   6.021  49.327  1.00  0.00    -0.263 OA
BRANCH  26  28
HETATM   28  O1  UNL     1      31.215   4.598  48.024  1.00  0.00    -0.321 OA
BRANCH  28  29
HETATM   29  C2  UNL     1      32.416   3.970  47.559  1.00  0.00     0.174 C 
HETATM   30  C1  UNL     1      32.036   2.878  46.585  1.00  0.00     0.034 C 
ENDBRANCH  28  29
ENDBRANCH  26  28
ENDBRANCH  25  26
ENDBRANCH  23  25
ENDBRANCH  22  23
ENDBRANCH   1  22
TORSDOF 9
ENDMDL
MODEL 4
REMARK VINA RESULT:      -7.6      2.666      3.456
REMARK  9 active torsions:
REMARK  status: ('A' for Active; 'I' for Inactive)
REMARK    1  A    between atoms: C2_2  and  O1_3 
REMARK    2  A    between atoms: O1_3  and  C3_4 
REMARK    3  A    between atoms: C3_4  and  C4_6 
REMARK    4  A    between atoms: C4_6  and  N1_7 
REMARK    5  A    between atoms: N1_7  and  C5_8 
REMARK    6  A    between atoms: C5_8  and  C6_9 
REMARK    7  A    between atoms: O3_12  and  C9_13 
REMARK    8  A    between atoms: C13_19  and  O4_20 
REMARK    9  A    between atoms: C14_21  and  O5_22 
ROOT
HETATM    1  C6  UNL     1      25.640   5.506  49.253  1.00  0.00    -0.047 C 
HETATM    2  C7  UNL     1      26.422   4.552  49.645  1.00  0.00     0.014 C 
HETATM    3  C8  UNL     1      26.142   3.357  50.350  1.00  0.00    -0.034 A 
HETATM    4  O3  UNL     1      25.914   2.211  51.031  1.00  0.00     0.000 OA
HETATM    5  C18 UNL     1      24.873   2.934  50.482  1.00  0.00     0.050 A 
HETATM    6  P1  UNL     1      23.850   4.212  50.724  1.00  0.00    -0.066 P 
HETATM    7  C19 UNL     1      24.178   5.574  49.464  1.00  0.00     0.076 C 
ENDROOT
BRANCH   4   8
HETATM    8  C9  UNL     1      26.701   1.961  52.181  1.00  0.00     0.100 A 
HETATM    9  N2  UNL     1      27.883   2.558  52.368  1.00  0.00    -0.239 NA
HETATM   10  C10 UNL     1      28.569   2.280  53.467  1.00  0.00     0.234 A 
HETATM   11  N3  UNL     1      28.125   1.412  54.423  1.00  0.00    -0.241 NA
HETATM   12  C11 UNL     1      26.930   0.790  54.267  1.00  0.00     0.073 A 
HETATM   13  C12 UNL     1      26.406  -0.095  55.175  1.00  0.00     0.072 A 
HETATM   14  C17 UNL     1      26.219   1.079  53.122  1.00  0.00     0.027 A 
HETATM   15  C13 UNL     1      25.161  -0.660  54.881  1.00  0.00     0.101 A 
HETATM   16  C14 UNL     1      24.435  -0.369  53.719  1.00  0.00     0.102 A 
HETATM   17  C16 UNL     1      24.993   0.521  52.834  1.00  0.00     0.055 A 
BRANCH  15  18
HETATM   18  O4  UNL     1      24.675  -1.559  55.849  1.00  0.00    -0.358 OA
HETATM   19  H14 UNL     1      23.762  -1.363  56.230  1.00  0.00     0.217 HD
ENDBRANCH  15  18
BRANCH  16  20
HETATM   20  O5  UNL     1      23.223  -1.043  53.628  1.00  0.00    -0.353 OA
HETATM   21  C15 UNL     1      22.090  -0.322  53.188  1.00  0.00     0.210 C 
ENDBRANCH  16  20
ENDBRANCH   4   8
BRANCH   1  22
HETATM   22  C5  UNL     1      26.353   6.569  48.548  1.00  0.00     0.304 C 
BRANCH  22  23
HETATM   23  N1  UNL     1      27.656   6.895  49.082  1.00  0.00     0.096 N 
HETATM   24  H8  UNL     1      28.371   6.198  48.747  1.00  0.00     0.316 HD
BRANCH  23  25
HETATM   25  C4  UNL     1      28.041   8.261  48.788  1.00  0.00     0.380 C 
BRANCH  25  26
HETATM   26  C3  UNL     1      27.173   9.213  49.495  1.00  0.00     0.287 C 
HETATM   27  O2  UNL     1      27.358   9.462  50.693  1.00  0.00    -0.263 OA
BRANCH  26  28
HETATM   28  O1  UNL     1      26.086   9.947  49.011  1.00  0.00    -0.321 OA
BRANCH  28  29
HETATM   29  C2  UNL     1      26.199  10.627  47.755  1.00  0.00     0.174 C 
HETATM   30  C1  UNL     1      26.984  11.901  47.971  1.00  0.00     0.034 C 
ENDBRANCH  28  29
ENDBRANCH  26  28
ENDBRANCH  25  26
ENDBRANCH  23  25
ENDBRANCH  22  23
ENDBRANCH   1  22
TORSDOF 9
ENDMDL
MODEL 5
REMARK VINA RESULT:      -7.3      2.917      3.991
REMARK  9 active torsions:
REMARK  status: ('A' for Active; 'I' for Inactive)
REMARK    1  A    between atoms: C2_2  and  O1_3 
REMARK    2  A    between atoms: O1_3  and  C3_4 
REMARK    3  A    between atoms: C3_4  and  C4_6 
REMARK    4  A    between atoms: C4_6  and  N1_7 
REMARK    5  A    between atoms: N1_7  and  C5_8 
REMARK    6  A    between atoms: C5_8  and  C6_9 
REMARK    7  A    between atoms: O3_12  and  C9_13 
REMARK    8  A    between atoms: C13_19  and  O4_20 
REMARK    9  A    between atoms: C14_21  and  O5_22 
ROOT
HETATM    1  C6  UNL     1      24.323   6.432  49.851  1.00  0.00    -0.047 C 
HETATM    2  C7  UNL     1      24.507   5.379  50.581  1.00  0.00     0.014 C 
HETATM    3  C8  UNL     1      24.190   4.021  50.341  1.00  0.00    -0.034 A 
HETATM    4  O3  UNL     1      23.894   2.715  50.152  1.00  0.00     0.000 OA
HETATM    5  C18 UNL     1      23.854   3.615  49.105  1.00  0.00     0.050 A 
HETATM    6  P1  UNL     1      22.922   4.754  48.346  1.00  0.00    -0.066 P 
HETATM    7  C19 UNL     1      23.696   6.463  48.512  1.00  0.00     0.076 C 
ENDROOT
BRANCH   4   8
HETATM    8  C9  UNL     1      23.164   2.052  51.168  1.00  0.00     0.100 A 
HETATM    9  N2  UNL     1      21.842   2.205  51.298  1.00  0.00    -0.239 NA
HETATM   10  C10 UNL     1      21.219   1.556  52.271  1.00  0.00     0.234 A 
HETATM   11  N3  UNL     1      21.864   0.733  53.149  1.00  0.00    -0.241 NA
HETATM   12  C11 UNL     1      23.205   0.554  53.046  1.00  0.00     0.073 A 
HETATM   13  C12 UNL     1      23.933  -0.253  53.883  1.00  0.00     0.072 A 
HETATM   14  C17 UNL     1      23.850   1.232  52.034  1.00  0.00     0.027 A 
HETATM   15  C13 UNL     1      25.310  -0.342  53.657  1.00  0.00     0.101 A 
HETATM   16  C14 UNL     1      25.970   0.345  52.630  1.00  0.00     0.102 A 
HETATM   17  C16 UNL     1      25.207   1.143  51.813  1.00  0.00     0.055 A 
BRANCH  15  18
HETATM   18  O4  UNL     1      26.004  -1.184  54.546  1.00  0.00    -0.358 OA
HETATM   19  H14 UNL     1      25.606  -1.295  55.466  1.00  0.00     0.217 HD
ENDBRANCH  15  18
BRANCH  16  20
HETATM   20  O5  UNL     1      27.340   0.113  52.586  1.00  0.00    -0.353 OA
HETATM   21  C15 UNL     1      28.191   1.001  53.283  1.00  0.00     0.210 C 
ENDBRANCH  16  20
ENDBRANCH   4   8
BRANCH   1  22
HETATM   22  C5  UNL     1      24.805   7.655  50.489  1.00  0.00     0.304 C 
BRANCH  22  23
HETATM   23  N1  UNL     1      26.224   7.685  50.766  1.00  0.00     0.096 N 
HETATM   24  H8  UNL     1      26.653   6.744  50.565  1.00  0.00     0.316 HD
BRANCH  23  25
HETATM   25  C4  UNL     1      26.898   8.757  50.058  1.00  0.00     0.380 C 
BRANCH  25  26
HETATM   26  C3  UNL     1      27.872   8.218  49.100  1.00  0.00     0.287 C 
HETATM   27  O2  UNL     1      29.043   8.620  49.102  1.00  0.00    -0.263 OA
BRANCH  26  28
HETATM   28  O1  UNL     1      27.695   7.253  48.105  1.00  0.00    -0.321 OA
BRANCH  28  29
HETATM   29  C2  UNL     1      28.469   6.047  48.147  1.00  0.00     0.174 C 
HETATM   30  C1  UNL     1      27.583   4.931  48.656  1.00  0.00     0.034 C 
ENDBRANCH  28  29
ENDBRANCH  26  28
ENDBRANCH  25  26
ENDBRANCH  23  25
ENDBRANCH  22  23
ENDBRANCH   1  22
TORSDOF 9
ENDMDL
MODEL 6
REMARK VINA RESULT:      -7.2      3.512      4.506
REMARK  9 active torsions:
REMARK  status: ('A' for Active; 'I' for Inactive)
REMARK    1  A    between atoms: C2_2  and  O1_3 
REMARK    2  A    between atoms: O1_3  and  C3_4 
REMARK    3  A    between atoms: C3_4  and  C4_6 
REMARK    4  A    between atoms: C4_6  and  N1_7 
REMARK    5  A    between atoms: N1_7  and  C5_8 
REMARK    6  A    between atoms: C5_8  and  C6_9 
REMARK    7  A    between atoms: O3_12  and  C9_13 
REMARK    8  A    between atoms: C13_19  and  O4_20 
REMARK    9  A    between atoms: C14_21  and  O5_22 
ROOT
HETATM    1  C6  UNL     1      24.162   5.605  50.306  1.00  0.00    -0.047 C 
HETATM    2  C7  UNL     1      23.991   4.742  51.255  1.00  0.00     0.014 C 
HETATM    3  C8  UNL     1      23.671   3.365  51.205  1.00  0.00    -0.034 A 
HETATM    4  O3  UNL     1      23.356   2.049  51.198  1.00  0.00     0.000 OA
HETATM    5  C18 UNL     1      23.760   2.693  50.044  1.00  0.00     0.050 A 
HETATM    6  P1  UNL     1      23.250   3.634  48.781  1.00  0.00    -0.066 P 
HETATM    7  C19 UNL     1      24.052   5.337  48.856  1.00  0.00     0.076 C 
ENDROOT
BRANCH   4   8
HETATM    8  C9  UNL     1      22.263   1.630  51.995  1.00  0.00     0.100 A 
HETATM    9  N2  UNL     1      21.020   2.073  51.774  1.00  0.00    -0.239 NA
HETATM   10  C10 UNL     1      20.043   1.640  52.557  1.00  0.00     0.234 A 
HETATM   11  N3  UNL     1      20.243   0.760  53.582  1.00  0.00    -0.241 NA
HETATM   12  C11 UNL     1      21.491   0.291  53.834  1.00  0.00     0.073 A 
HETATM   13  C12 UNL     1      21.783  -0.595  54.841  1.00  0.00     0.072 A 
HETATM   14  C17 UNL     1      22.506   0.743  53.019  1.00  0.00     0.027 A 
HETATM   15  C13 UNL     1      23.116  -0.994  54.982  1.00  0.00     0.101 A 
HETATM   16  C14 UNL     1      24.151  -0.536  54.156  1.00  0.00     0.102 A 
HETATM   17  C16 UNL     1      23.818   0.349  53.160  1.00  0.00     0.055 A 
BRANCH  15  18
HETATM   18  O4  UNL     1      23.355  -1.902  56.030  1.00  0.00    -0.358 OA
HETATM   19  H14 UNL     1      24.049  -1.634  56.710  1.00  0.00     0.217 HD
ENDBRANCH  15  18
BRANCH  16  20
HETATM   20  O5  UNL     1      25.399  -1.060  54.473  1.00  0.00    -0.353 OA
HETATM   21  C15 UNL     1      26.378  -0.185  54.995  1.00  0.00     0.210 C 
ENDBRANCH  16  20
ENDBRANCH   4   8
BRANCH   1  22
HETATM   22  C5  UNL     1      24.487   6.940  50.806  1.00  0.00     0.304 C 
BRANCH  22  23
HETATM   23  N1  UNL     1      25.899   7.234  50.900  1.00  0.00     0.096 N 
HETATM   24  H8  UNL     1      26.462   6.349  50.794  1.00  0.00     0.316 HD
BRANCH  23  25
HETATM   25  C4  UNL     1      26.309   8.261  49.963  1.00  0.00     0.380 C 
BRANCH  25  26
HETATM   26  C3  UNL     1      27.356   7.759  49.062  1.00  0.00     0.287 C 
HETATM   27  O2  UNL     1      27.155   6.759  48.362  1.00  0.00    -0.263 OA
BRANCH  26  28
HETATM   28  O1  UNL     1      28.644   8.254  48.840  1.00  0.00    -0.321 OA
BRANCH  28  29
HETATM   29  C2  UNL     1      29.062   9.453  49.505  1.00  0.00     0.174 C 
HETATM   30  C1  UNL     1      30.263  10.009  48.773  1.00  0.00     0.034 C 
ENDBRANCH  28  29
ENDBRANCH  26  28
ENDBRANCH  25  26
ENDBRANCH  23  25
ENDBRANCH  22  23
ENDBRANCH   1  22
TORSDOF 9
ENDMDL
MODEL 7
REMARK VINA RESULT:      -7.2      2.350      2.911
REMARK  9 active torsions:
REMARK  status: ('A' for Active; 'I' for Inactive)
REMARK    1  A    between atoms: C2_2  and  O1_3 
REMARK    2  A    between atoms: O1_3  and  C3_4 
REMARK    3  A    between atoms: C3_4  and  C4_6 
REMARK    4  A    between atoms: C4_6  and  N1_7 
REMARK    5  A    between atoms: N1_7  and  C5_8 
REMARK    6  A    between atoms: C5_8  and  C6_9 
REMARK    7  A    between atoms: O3_12  and  C9_13 
REMARK    8  A    between atoms: C13_19  and  O4_20 
REMARK    9  A    between atoms: C14_21  and  O5_22 
ROOT
HETATM    1  C6  UNL     1      23.590   5.600  50.715  1.00  0.00    -0.047 C 
HETATM    2  C7  UNL     1      24.711   4.953  50.752  1.00  0.00     0.014 C 
HETATM    3  C8  UNL     1      24.980   3.581  50.969  1.00  0.00    -0.034 A 
HETATM    4  O3  UNL     1      25.277   2.278  51.181  1.00  0.00     0.000 OA
HETATM    5  C18 UNL     1      23.983   2.680  50.910  1.00  0.00     0.050 A 
HETATM    6  P1  UNL     1      22.598   3.294  51.577  1.00  0.00    -0.066 P 
HETATM    7  C19 UNL     1      22.244   5.017  50.905  1.00  0.00     0.076 C 
ENDROOT
BRANCH   4   8
HETATM    8  C9  UNL     1      26.234   1.976  52.180  1.00  0.00     0.100 A 
HETATM    9  N2  UNL     1      27.440   2.555  52.197  1.00  0.00    -0.239 NA
HETATM   10  C10 UNL     1      28.289   2.228  53.160  1.00  0.00     0.234 A 
HETATM   11  N3  UNL     1      27.991   1.326  54.141  1.00  0.00    -0.241 NA
HETATM   12  C11 UNL     1      26.777   0.720  54.155  1.00  0.00     0.073 A 
HETATM   13  C12 UNL     1      26.393  -0.197  55.101  1.00  0.00     0.072 A 
HETATM   14  C17 UNL     1      25.896   1.061  53.151  1.00  0.00     0.027 A 
HETATM   15  C13 UNL     1      25.109  -0.739  54.990  1.00  0.00     0.101 A 
HETATM   16  C14 UNL     1      24.211  -0.396  53.971  1.00  0.00     0.102 A 
HETATM   17  C16 UNL     1      24.632   0.525  53.043  1.00  0.00     0.055 A 
BRANCH  15  18
HETATM   18  O4  UNL     1      24.772  -1.672  55.987  1.00  0.00    -0.358 OA
HETATM   19  H14 UNL     1      23.916  -1.504  56.493  1.00  0.00     0.217 HD
ENDBRANCH  15  18
BRANCH  16  20
HETATM   20  O5  UNL     1      22.990  -1.055  54.050  1.00  0.00    -0.353 OA
HETATM   21  C15 UNL     1      22.014  -0.774  53.067  1.00  0.00     0.210 C 
ENDBRANCH  16  20
ENDBRANCH   4   8
BRANCH   1  22
HETATM   22  C5  UNL     1      23.768   7.027  50.460  1.00  0.00     0.304 C 
BRANCH  22  23
HETATM   23  N1  UNL     1      25.070   7.555  50.802  1.00  0.00     0.096 N 
HETATM   24  H8  UNL     1      25.760   6.769  50.924  1.00  0.00     0.316 HD
BRANCH  23  25
HETATM   25  C4  UNL     1      25.528   8.543  49.844  1.00  0.00     0.380 C 
BRANCH  25  26
HETATM   26  C3  UNL     1      26.785   8.116  49.214  1.00  0.00     0.287 C 
HETATM   27  O2  UNL     1      27.869   8.562  49.610  1.00  0.00    -0.263 OA
BRANCH  26  28
HETATM   28  O1  UNL     1      26.987   7.222  48.159  1.00  0.00    -0.321 OA
BRANCH  28  29
HETATM   29  C2  UNL     1      28.146   6.379  48.162  1.00  0.00     0.174 C 
HETATM   30  C1  UNL     1      27.728   4.996  48.609  1.00  0.00     0.034 C 
ENDBRANCH  28  29
ENDBRANCH  26  28
ENDBRANCH  25  26
ENDBRANCH  23  25
ENDBRANCH  22  23
ENDBRANCH   1  22
TORSDOF 9
ENDMDL
MODEL 8
REMARK VINA RESULT:      -7.1      2.769      3.967
REMARK  9 active torsions:
REMARK  status: ('A' for Active; 'I' for Inactive)
REMARK    1  A    between atoms: C2_2  and  O1_3 
REMARK    2  A    between atoms: O1_3  and  C3_4 
REMARK    3  A    between atoms: C3_4  and  C4_6 
REMARK    4  A    between atoms: C4_6  and  N1_7 
REMARK    5  A    between atoms: N1_7  and  C5_8 
REMARK    6  A    between atoms: C5_8  and  C6_9 
REMARK    7  A    between atoms: O3_12  and  C9_13 
REMARK    8  A    between atoms: C13_19  and  O4_20 
REMARK    9  A    between atoms: C14_21  and  O5_22 
ROOT
HETATM    1  C6  UNL     1      25.671   4.662  49.629  1.00  0.00    -0.047 C 
HETATM    2  C7  UNL     1      25.428   3.414  49.871  1.00  0.00     0.014 C 
HETATM    3  C8  UNL     1      24.360   2.798  50.565  1.00  0.00    -0.034 A 
HETATM    4  O3  UNL     1      23.360   2.174  51.230  1.00  0.00     0.000 OA
HETATM    5  C18 UNL     1      23.253   3.502  50.862  1.00  0.00     0.050 A 
HETATM    6  P1  UNL     1      23.641   5.052  51.294  1.00  0.00    -0.066 P 
HETATM    7  C19 UNL     1      24.836   5.809  50.050  1.00  0.00     0.076 C 
ENDROOT
BRANCH   4   8
HETATM    8  C9  UNL     1      23.719   1.256  52.247  1.00  0.00     0.100 A 
HETATM    9  N2  UNL     1      24.979   1.148  52.683  1.00  0.00    -0.239 NA
HETATM   10  C10 UNL     1      25.247   0.268  53.638  1.00  0.00     0.234 A 
HETATM   11  N3  UNL     1      24.296  -0.534  54.200  1.00  0.00    -0.241 NA
HETATM   12  C11 UNL     1      23.008  -0.450  53.782  1.00  0.00     0.073 A 
HETATM   13  C12 UNL     1      21.989  -1.214  54.291  1.00  0.00     0.072 A 
HETATM   14  C17 UNL     1      22.732   0.465  52.788  1.00  0.00     0.027 A 
HETATM   15  C13 UNL     1      20.709  -1.018  53.763  1.00  0.00     0.101 A 
HETATM   16  C14 UNL     1      20.424  -0.090  52.753  1.00  0.00     0.102 A 
HETATM   17  C16 UNL     1      21.471   0.657  52.270  1.00  0.00     0.055 A 
BRANCH  15  18
HETATM   18  O4  UNL     1      19.706  -1.830  54.323  1.00  0.00    -0.358 OA
HETATM   19  H14 UNL     1      19.655  -1.856  55.330  1.00  0.00     0.217 HD
ENDBRANCH  15  18
BRANCH  16  20
HETATM   20  O5  UNL     1      19.087  -0.059  52.376  1.00  0.00    -0.353 OA
HETATM   21  C15 UNL     1      18.770   0.368  51.067  1.00  0.00     0.210 C 
ENDBRANCH  16  20
ENDBRANCH   4   8
BRANCH   1  22
HETATM   22  C5  UNL     1      26.902   4.863  48.868  1.00  0.00     0.304 C 
BRANCH  22  23
HETATM   23  N1  UNL     1      27.587   6.110  49.124  1.00  0.00     0.096 N 
HETATM   24  H8  UNL     1      28.229   6.007  49.953  1.00  0.00     0.316 HD
BRANCH  23  25
HETATM   25  C4  UNL     1      28.280   6.605  47.951  1.00  0.00     0.380 C 
BRANCH  25  26
HETATM   26  C3  UNL     1      29.067   7.803  48.275  1.00  0.00     0.287 C 
HETATM   27  O2  UNL     1      29.963   8.191  47.515  1.00  0.00    -0.263 OA
BRANCH  26  28
HETATM   28  O1  UNL     1      28.972   8.651  49.383  1.00  0.00    -0.321 OA
BRANCH  28  29
HETATM   29  C2  UNL     1      28.148   9.821  49.306  1.00  0.00     0.174 C 
HETATM   30  C1  UNL     1      26.789   9.485  49.878  1.00  0.00     0.034 C 
ENDBRANCH  28  29
ENDBRANCH  26  28
ENDBRANCH  25  26
ENDBRANCH  23  25
ENDBRANCH  22  23
ENDBRANCH   1  22
TORSDOF 9
ENDMDL
MODEL 9
REMARK VINA RESULT:      -7.1      2.472      3.297
REMARK  9 active torsions:
REMARK  status: ('A' for Active; 'I' for Inactive)
REMARK    1  A    between atoms: C2_2  and  O1_3 
REMARK    2  A    between atoms: O1_3  and  C3_4 
REMARK    3  A    between atoms: C3_4  and  C4_6 
REMARK    4  A    between atoms: C4_6  and  N1_7 
REMARK    5  A    between atoms: N1_7  and  C5_8 
REMARK    6  A    between atoms: C5_8  and  C6_9 
REMARK    7  A    between atoms: O3_12  and  C9_13 
REMARK    8  A    between atoms: C13_19  and  O4_20 
REMARK    9  A    between atoms: C14_21  and  O5_22 
ROOT
HETATM    1  C6  UNL     1      27.733   6.031  48.468  1.00  0.00    -0.047 C 
HETATM    2  C7  UNL     1      27.660   4.782  48.799  1.00  0.00     0.014 C 
HETATM    3  C8  UNL     1      26.593   4.031  49.347  1.00  0.00    -0.034 A 
HETATM    4  O3  UNL     1      25.600   3.283  49.879  1.00  0.00     0.000 OA
HETATM    5  C18 UNL     1      25.347   4.535  49.352  1.00  0.00     0.050 A 
HETATM    6  P1  UNL     1      25.371   6.159  49.672  1.00  0.00    -0.066 P 
HETATM    7  C19 UNL     1      26.648   7.029  48.596  1.00  0.00     0.076 C 
ENDROOT
BRANCH   4   8
HETATM    8  C9  UNL     1      25.895   2.529  51.041  1.00  0.00     0.100 A 
HETATM    9  N2  UNL     1      27.120   2.514  51.577  1.00  0.00    -0.239 NA
HETATM   10  C10 UNL     1      27.328   1.787  52.666  1.00  0.00     0.234 A 
HETATM   11  N3  UNL     1      26.349   1.051  53.269  1.00  0.00    -0.241 NA
HETATM   12  C11 UNL     1      25.095   1.044  52.751  1.00  0.00     0.073 A 
HETATM   13  C12 UNL     1      24.051   0.335  53.291  1.00  0.00     0.072 A 
HETATM   14  C17 UNL     1      24.881   1.800  51.619  1.00  0.00     0.027 A 
HETATM   15  C13 UNL     1      22.811   0.423  52.650  1.00  0.00     0.101 A 
HETATM   16  C14 UNL     1      22.590   1.189  51.499  1.00  0.00     0.102 A 
HETATM   17  C16 UNL     1      23.659   1.885  50.989  1.00  0.00     0.055 A 
BRANCH  15  18
HETATM   18  O4  UNL     1      21.781  -0.325  53.249  1.00  0.00    -0.358 OA
HETATM   19  H14 UNL     1      21.147   0.180  53.850  1.00  0.00     0.217 HD
ENDBRANCH  15  18
BRANCH  16  20
HETATM   20  O5  UNL     1      21.284   1.134  51.027  1.00  0.00    -0.353 OA
HETATM   21  C15 UNL     1      20.548   2.338  50.950  1.00  0.00     0.210 C 
ENDBRANCH  16  20
ENDBRANCH   4   8
BRANCH   1  22
HETATM   22  C5  UNL     1      29.041   6.400  47.931  1.00  0.00     0.304 C 
BRANCH  22  23
HETATM   23  N1  UNL     1      30.116   6.431  48.898  1.00  0.00     0.096 N 
HETATM   24  H8  UNL     1      30.367   5.451  49.192  1.00  0.00     0.316 HD
BRANCH  23  25
HETATM   25  C4  UNL     1      31.265   7.171  48.415  1.00  0.00     0.380 C 
BRANCH  25  26
HETATM   26  C3  UNL     1      31.026   8.618  48.494  1.00  0.00     0.287 C 
HETATM   27  O2  UNL     1      30.754   9.152  49.577  1.00  0.00    -0.263 OA
BRANCH  26  28
HETATM   28  O1  UNL     1      31.053   9.577  47.477  1.00  0.00    -0.321 OA
BRANCH  28  29
HETATM   29  C2  UNL     1      31.362  10.938  47.801  1.00  0.00     0.174 C 
HETATM   30  C1  UNL     1      32.683  11.293  47.155  1.00  0.00     0.034 C 
ENDBRANCH  28  29
ENDBRANCH  26  28
ENDBRANCH  25  26
ENDBRANCH  23  25
ENDBRANCH  22  23
ENDBRANCH   1  22
TORSDOF 9
ENDMDL
