MODEL 1
REMARK VINA RESULT:      -7.4      0.000      0.000
REMARK  8 active torsions:
REMARK  status: ('A' for Active; 'I' for Inactive)
REMARK    1  A    between atoms: C2_2  and  C3_3 
REMARK    2  A    between atoms: C2_2  and  N1_8 
REMARK    3  A    between atoms: C4_4  and  C5_5 
REMARK    4  A    between atoms: N1_8  and  C7_9 
REMARK    5  A    between atoms: C11_15  and  O1_16 
REMARK    6  A    between atoms: O1_16  and  C12_17 
REMARK    7  A    between atoms: C12_17  and  C13_18 
REMARK    8  A    between atoms: C13_18  and  O2_19 
ROOT
HETATM    1  C7  UNL     1      23.954  -0.080  53.566  1.00  0.00     0.144 A 
HETATM    2  N2  UNL     1      24.618  -0.651  54.572  1.00  0.00    -0.223 NA
HETATM    3  C8  UNL     1      23.937  -1.409  55.479  1.00  0.00     0.236 A 
HETATM    4  N3  UNL     1      22.615  -1.536  55.294  1.00  0.00    -0.241 NA
HETATM    5  C9  UNL     1      21.905  -0.989  54.307  1.00  0.00     0.077 A 
HETATM    6  C10 UNL     1      20.551  -1.199  54.233  1.00  0.00     0.072 A 
HETATM    7  C11 UNL     1      19.916  -0.586  53.174  1.00  0.00     0.107 A 
HETATM    8  C15 UNL     1      20.593   0.183  52.251  1.00  0.00     0.136 A 
HETATM    9  C16 UNL     1      21.959   0.369  52.362  1.00  0.00     0.121 A 
HETATM   10  C17 UNL     1      22.602  -0.231  53.408  1.00  0.00     0.075 A 
HETATM   11  O3  UNL     1      22.654   1.140  51.443  1.00  0.00    -0.345 OA
HETATM   12  C18 UNL     1      22.179   1.213  50.111  1.00  0.00     0.202 C 
HETATM   13  C19 UNL     1      20.702   1.114  49.978  1.00  0.00     0.202 C 
HETATM   14  O4  UNL     1      20.003   0.822  51.164  1.00  0.00    -0.344 OA
ENDROOT
BRANCH   1  15
HETATM   15  N1  UNL     1      24.772   0.681  52.694  1.00  0.00    -0.341 N 
HETATM   16  H9  UNL     1      25.219   0.849  51.772  1.00  0.00     0.167 HD
BRANCH  15  17
HETATM   17  C2  UNL     1      25.391   1.880  53.155  1.00  0.00     0.024 C 
HETATM   18  C1  UNL     1      24.662   2.951  53.434  1.00  0.00     0.043 C 
BRANCH  17  19
HETATM   19  C3  UNL     1      26.860   1.955  53.330  1.00  0.00     0.027 C 
HETATM   20  C4  UNL     1      27.540   0.820  53.341  1.00  0.00     0.012 C 
BRANCH  20  21
HETATM   21  C5  UNL     1      29.012   0.772  53.509  1.00  0.00     0.189 C 
HETATM   22  C6  UNL     1      29.517  -0.632  53.773  1.00  0.00     0.049 C 
HETATM   23  F1  UNL     1      29.438   1.563  54.556  1.00  0.00    -0.246 F 
ENDBRANCH  20  21
ENDBRANCH  17  19
ENDBRANCH  15  17
ENDBRANCH   1  15
BRANCH   7  24
HETATM   24  O1  UNL     1      18.539  -0.733  53.002  1.00  0.00    -0.346 OA
BRANCH  24  25
HETATM   25  C12 UNL     1      17.837  -1.855  53.507  1.00  0.00     0.201 C 
BRANCH  25  26
HETATM   26  C13 UNL     1      16.528  -1.951  52.775  1.00  0.00     0.193 C 
BRANCH  26  27
HETATM   27  O2  UNL     1      16.026  -3.229  52.715  1.00  0.00    -0.394 OA
HETATM   28  C14 UNL     1      16.711  -4.128  53.519  1.00  0.00     0.201 C 
ENDBRANCH  26  27
ENDBRANCH  25  26
ENDBRANCH  24  25
ENDBRANCH   7  24
TORSDOF 8
ENDMDL
MODEL 2
REMARK VINA RESULT:      -7.4      3.126      3.845
REMARK  8 active torsions:
REMARK  status: ('A' for Active; 'I' for Inactive)
REMARK    1  A    between atoms: C2_2  and  C3_3 
REMARK    2  A    between atoms: C2_2  and  N1_8 
REMARK    3  A    between atoms: C4_4  and  C5_5 
REMARK    4  A    between atoms: N1_8  and  C7_9 
REMARK    5  A    between atoms: C11_15  and  O1_16 
REMARK    6  A    between atoms: O1_16  and  C12_17 
REMARK    7  A    between atoms: C12_17  and  C13_18 
REMARK    8  A    between atoms: C13_18  and  O2_19 
ROOT
HETATM    1  C7  UNL     1      24.145   1.614  52.954  1.00  0.00     0.144 A 
HETATM    2  N2  UNL     1      24.323   0.340  53.304  1.00  0.00    -0.223 NA
HETATM    3  C8  UNL     1      23.237  -0.474  53.443  1.00  0.00     0.236 A 
HETATM    4  N3  UNL     1      22.034   0.073  53.213  1.00  0.00    -0.241 NA
HETATM    5  C9  UNL     1      21.802   1.338  52.861  1.00  0.00     0.077 A 
HETATM    6  C10 UNL     1      20.517   1.771  52.655  1.00  0.00     0.072 A 
HETATM    7  C11 UNL     1      20.392   3.097  52.295  1.00  0.00     0.107 A 
HETATM    8  C15 UNL     1      21.483   3.930  52.151  1.00  0.00     0.136 A 
HETATM    9  C16 UNL     1      22.762   3.451  52.369  1.00  0.00     0.121 A 
HETATM   10  C17 UNL     1      22.901   2.140  52.727  1.00  0.00     0.075 A 
HETATM   11  O3  UNL     1      23.867   4.276  52.228  1.00  0.00    -0.345 OA
HETATM   12  C18 UNL     1      23.811   5.345  51.302  1.00  0.00     0.202 C 
HETATM   13  C19 UNL     1      22.461   5.939  51.128  1.00  0.00     0.202 C 
HETATM   14  O4  UNL     1      21.413   5.272  51.790  1.00  0.00    -0.344 OA
ENDROOT
BRANCH   1  15
HETATM   15  N1  UNL     1      25.349   2.355  52.842  1.00  0.00    -0.341 N 
HETATM   16  H9  UNL     1      25.953   3.161  53.089  1.00  0.00     0.167 HD
BRANCH  15  17
HETATM   17  C2  UNL     1      26.392   1.902  51.981  1.00  0.00     0.024 C 
HETATM   18  C1  UNL     1      26.451   2.309  50.721  1.00  0.00     0.043 C 
BRANCH  17  19
HETATM   19  C3  UNL     1      27.429   0.966  52.475  1.00  0.00     0.027 C 
HETATM   20  C4  UNL     1      28.000   1.234  53.638  1.00  0.00     0.012 C 
BRANCH  20  21
HETATM   21  C5  UNL     1      29.048   0.371  54.231  1.00  0.00     0.189 C 
HETATM   22  C6  UNL     1      29.399  -0.804  53.341  1.00  0.00     0.049 C 
HETATM   23  F1  UNL     1      28.665  -0.142  55.453  1.00  0.00    -0.246 F 
ENDBRANCH  20  21
ENDBRANCH  17  19
ENDBRANCH  15  17
ENDBRANCH   1  15
BRANCH   7  24
HETATM   24  O1  UNL     1      19.130   3.643  52.061  1.00  0.00    -0.346 OA
BRANCH  24  25
HETATM   25  C12 UNL     1      18.119   2.926  51.375  1.00  0.00     0.201 C 
BRANCH  25  26
HETATM   26  C13 UNL     1      16.913   3.816  51.264  1.00  0.00     0.193 C 
BRANCH  26  27
HETATM   27  O2  UNL     1      16.525   4.366  52.462  1.00  0.00    -0.394 OA
HETATM   28  C14 UNL     1      15.285   3.921  52.897  1.00  0.00     0.201 C 
ENDBRANCH  26  27
ENDBRANCH  25  26
ENDBRANCH  24  25
ENDBRANCH   7  24
TORSDOF 8
ENDMDL
MODEL 3
REMARK VINA RESULT:      -7.3      3.791      7.825
REMARK  8 active torsions:
REMARK  status: ('A' for Active; 'I' for Inactive)
REMARK    1  A    between atoms: C2_2  and  C3_3 
REMARK    2  A    between atoms: C2_2  and  N1_8 
REMARK    3  A    between atoms: C4_4  and  C5_5 
REMARK    4  A    between atoms: N1_8  and  C7_9 
REMARK    5  A    between atoms: C11_15  and  O1_16 
REMARK    6  A    between atoms: O1_16  and  C12_17 
REMARK    7  A    between atoms: C12_17  and  C13_18 
REMARK    8  A    between atoms: C13_18  and  O2_19 
ROOT
HETATM    1  C7  UNL     1      21.719  -0.226  52.879  1.00  0.00     0.144 A 
HETATM    2  N2  UNL     1      20.780  -0.915  53.528  1.00  0.00    -0.223 NA
HETATM    3  C8  UNL     1      21.117  -1.616  54.648  1.00  0.00     0.236 A 
HETATM    4  N3  UNL     1      22.401  -1.563  55.034  1.00  0.00    -0.241 NA
HETATM    5  C9  UNL     1      23.376  -0.890  54.424  1.00  0.00     0.077 A 
HETATM    6  C10 UNL     1      24.653  -0.919  54.926  1.00  0.00     0.072 A 
HETATM    7  C11 UNL     1      25.583  -0.190  54.215  1.00  0.00     0.107 A 
HETATM    8  C15 UNL     1      25.254   0.522  53.081  1.00  0.00     0.136 A 
HETATM    9  C16 UNL     1      23.954   0.525  52.609  1.00  0.00     0.121 A 
HETATM   10  C17 UNL     1      23.021  -0.194  53.301  1.00  0.00     0.075 A 
HETATM   11  O3  UNL     1      23.608   1.235  51.470  1.00  0.00    -0.345 OA
HETATM   12  C18 UNL     1      24.330   2.409  51.148  1.00  0.00     0.202 C 
HETATM   13  C19 UNL     1      25.758   2.386  51.559  1.00  0.00     0.202 C 
HETATM   14  O4  UNL     1      26.151   1.275  52.328  1.00  0.00    -0.344 OA
ENDROOT
BRANCH   1  15
HETATM   15  N1  UNL     1      21.243   0.458  51.732  1.00  0.00    -0.341 N 
HETATM   16  H9  UNL     1      21.241   0.639  50.710  1.00  0.00     0.167 HD
BRANCH  15  17
HETATM   17  C2  UNL     1      20.236   1.459  51.861  1.00  0.00     0.024 C 
HETATM   18  C1  UNL     1      20.453   2.545  52.590  1.00  0.00     0.043 C 
BRANCH  17  19
HETATM   19  C3  UNL     1      18.926   1.307  51.185  1.00  0.00     0.027 C 
HETATM   20  C4  UNL     1      18.278   0.165  51.342  1.00  0.00     0.012 C 
BRANCH  20  21
HETATM   21  C5  UNL     1      16.962  -0.101  50.715  1.00  0.00     0.189 C 
HETATM   22  C6  UNL     1      16.119  -1.061  51.528  1.00  0.00     0.049 C 
HETATM   23  F1  UNL     1      17.092  -0.640  49.452  1.00  0.00    -0.246 F 
ENDBRANCH  20  21
ENDBRANCH  17  19
ENDBRANCH  15  17
ENDBRANCH   1  15
BRANCH   7  24
HETATM   24  O1  UNL     1      26.912  -0.150  54.637  1.00  0.00    -0.346 OA
BRANCH  24  25
HETATM   25  C12 UNL     1      27.960  -0.710  53.865  1.00  0.00     0.201 C 
BRANCH  25  26
HETATM   26  C13 UNL     1      29.158   0.189  53.988  1.00  0.00     0.193 C 
BRANCH  26  27
HETATM   27  O2  UNL     1      28.888   1.380  54.620  1.00  0.00    -0.394 OA
HETATM   28  C14 UNL     1      28.919   2.475  53.768  1.00  0.00     0.201 C 
ENDBRANCH  26  27
ENDBRANCH  25  26
ENDBRANCH  24  25
ENDBRANCH   7  24
TORSDOF 8
ENDMDL
MODEL 4
REMARK VINA RESULT:      -7.3      3.595      7.006
REMARK  8 active torsions:
REMARK  status: ('A' for Active; 'I' for Inactive)
REMARK    1  A    between atoms: C2_2  and  C3_3 
REMARK    2  A    between atoms: C2_2  and  N1_8 
REMARK    3  A    between atoms: C4_4  and  C5_5 
REMARK    4  A    between atoms: N1_8  and  C7_9 
REMARK    5  A    between atoms: C11_15  and  O1_16 
REMARK    6  A    between atoms: O1_16  and  C12_17 
REMARK    7  A    between atoms: C12_17  and  C13_18 
REMARK    8  A    between atoms: C13_18  and  O2_19 
ROOT
HETATM    1  C7  UNL     1      21.940   1.052  52.691  1.00  0.00     0.144 A 
HETATM    2  N2  UNL     1      20.867   0.694  53.398  1.00  0.00    -0.223 NA
HETATM    3  C8  UNL     1      21.014  -0.158  54.453  1.00  0.00     0.236 A 
HETATM    4  N3  UNL     1      22.257  -0.589  54.717  1.00  0.00    -0.241 NA
HETATM    5  C9  UNL     1      23.360  -0.262  54.044  1.00  0.00     0.077 A 
HETATM    6  C10 UNL     1      24.575  -0.776  54.421  1.00  0.00     0.072 A 
HETATM    7  C11 UNL     1      25.649  -0.373  53.655  1.00  0.00     0.107 A 
HETATM    8  C15 UNL     1      25.513   0.488  52.586  1.00  0.00     0.136 A 
HETATM    9  C16 UNL     1      24.269   0.983  52.240  1.00  0.00     0.121 A 
HETATM   10  C17 UNL     1      23.195   0.592  52.989  1.00  0.00     0.075 A 
HETATM   11  O3  UNL     1      24.116   1.849  51.169  1.00  0.00    -0.345 OA
HETATM   12  C18 UNL     1      25.184   2.712  50.827  1.00  0.00     0.202 C 
HETATM   13  C19 UNL     1      26.535   2.157  51.099  1.00  0.00     0.202 C 
HETATM   14  O4  UNL     1      26.561   0.927  51.782  1.00  0.00    -0.344 OA
ENDROOT
BRANCH   1  15
HETATM   15  N1  UNL     1      21.656   1.939  51.623  1.00  0.00    -0.341 N 
HETATM   16  H9  UNL     1      21.614   2.171  50.612  1.00  0.00     0.167 HD
BRANCH  15  17
HETATM   17  C2  UNL     1      21.158   3.249  51.891  1.00  0.00     0.024 C 
HETATM   18  C1  UNL     1      19.855   3.491  51.869  1.00  0.00     0.043 C 
BRANCH  17  19
HETATM   19  C3  UNL     1      22.084   4.364  52.197  1.00  0.00     0.027 C 
HETATM   20  C4  UNL     1      22.444   5.159  51.203  1.00  0.00     0.012 C 
BRANCH  20  21
HETATM   21  C5  UNL     1      23.365   6.305  51.390  1.00  0.00     0.189 C 
HETATM   22  C6  UNL     1      22.957   7.512  50.570  1.00  0.00     0.049 C 
HETATM   23  F1  UNL     1      24.660   5.990  51.036  1.00  0.00    -0.246 F 
ENDBRANCH  20  21
ENDBRANCH  17  19
ENDBRANCH  15  17
ENDBRANCH   1  15
BRANCH   7  24
HETATM   24  O1  UNL     1      26.932  -0.834  53.949  1.00  0.00    -0.346 OA
BRANCH  24  25
HETATM   25  C12 UNL     1      27.839  -0.078  54.733  1.00  0.00     0.201 C 
BRANCH  25  26
HETATM   26  C13 UNL     1      29.189  -0.149  54.076  1.00  0.00     0.193 C 
BRANCH  26  27
HETATM   27  O2  UNL     1      29.572   1.030  53.481  1.00  0.00    -0.394 OA
HETATM   28  C14 UNL     1      28.877   2.135  53.951  1.00  0.00     0.201 C 
ENDBRANCH  26  27
ENDBRANCH  25  26
ENDBRANCH  24  25
ENDBRANCH   7  24
TORSDOF 8
ENDMDL
MODEL 5
REMARK VINA RESULT:      -7.2      3.836      5.132
REMARK  8 active torsions:
REMARK  status: ('A' for Active; 'I' for Inactive)
REMARK    1  A    between atoms: C2_2  and  C3_3 
REMARK    2  A    between atoms: C2_2  and  N1_8 
REMARK    3  A    between atoms: C4_4  and  C5_5 
REMARK    4  A    between atoms: N1_8  and  C7_9 
REMARK    5  A    between atoms: C11_15  and  O1_16 
REMARK    6  A    between atoms: O1_16  and  C12_17 
REMARK    7  A    between atoms: C12_17  and  C13_18 
REMARK    8  A    between atoms: C13_18  and  O2_19 
ROOT
HETATM    1  C7  UNL     1      25.879   2.901  50.602  1.00  0.00     0.144 A 
HETATM    2  N2  UNL     1      27.070   2.925  51.201  1.00  0.00    -0.223 NA
HETATM    3  C8  UNL     1      27.248   2.235  52.364  1.00  0.00     0.236 A 
HETATM    4  N3  UNL     1      26.190   1.562  52.839  1.00  0.00    -0.241 NA
HETATM    5  C9  UNL     1      24.981   1.504  52.280  1.00  0.00     0.077 A 
HETATM    6  C10 UNL     1      23.981   0.775  52.873  1.00  0.00     0.072 A 
HETATM    7  C11 UNL     1      22.772   0.785  52.211  1.00  0.00     0.107 A 
HETATM    8  C15 UNL     1      22.579   1.479  51.034  1.00  0.00     0.136 A 
HETATM    9  C16 UNL     1      23.615   2.202  50.470  1.00  0.00     0.121 A 
HETATM   10  C17 UNL     1      24.819   2.202  51.116  1.00  0.00     0.075 A 
HETATM   11  O3  UNL     1      23.437   2.904  49.289  1.00  0.00    -0.345 OA
HETATM   12  C18 UNL     1      22.498   2.427  48.343  1.00  0.00     0.202 C 
HETATM   13  C19 UNL     1      21.325   1.733  48.935  1.00  0.00     0.202 C 
HETATM   14  O4  UNL     1      21.382   1.522  50.325  1.00  0.00    -0.344 OA
ENDROOT
BRANCH   1  15
HETATM   15  N1  UNL     1      25.821   3.655  49.403  1.00  0.00    -0.341 N 
HETATM   16  H9  UNL     1      25.712   3.731  48.374  1.00  0.00     0.167 HD
BRANCH  15  17
HETATM   17  C2  UNL     1      25.974   5.073  49.440  1.00  0.00     0.024 C 
HETATM   18  C1  UNL     1      25.167   5.819  50.181  1.00  0.00     0.043 C 
BRANCH  17  19
HETATM   19  C3  UNL     1      27.034   5.741  48.650  1.00  0.00     0.027 C 
HETATM   20  C4  UNL     1      28.208   5.137  48.555  1.00  0.00     0.012 C 
BRANCH  20  21
HETATM   21  C5  UNL     1      29.342   5.711  47.793  1.00  0.00     0.189 C 
HETATM   22  C6  UNL     1      30.520   6.051  48.682  1.00  0.00     0.049 C 
HETATM   23  F1  UNL     1      28.986   6.864  47.127  1.00  0.00    -0.246 F 
ENDBRANCH  20  21
ENDBRANCH  17  19
ENDBRANCH  15  17
ENDBRANCH   1  15
BRANCH   7  24
HETATM   24  O1  UNL     1      21.686   0.077  52.724  1.00  0.00    -0.346 OA
BRANCH  24  25
HETATM   25  C12 UNL     1      21.412   0.029  54.114  1.00  0.00     0.201 C 
BRANCH  25  26
HETATM   26  C13 UNL     1      20.983  -1.371  54.454  1.00  0.00     0.193 C 
BRANCH  26  27
HETATM   27  O2  UNL     1      22.000  -2.150  54.953  1.00  0.00    -0.394 OA
HETATM   28  C14 UNL     1      23.032  -1.414  55.518  1.00  0.00     0.201 C 
ENDBRANCH  26  27
ENDBRANCH  25  26
ENDBRANCH  24  25
ENDBRANCH   7  24
TORSDOF 8
ENDMDL
MODEL 6
REMARK VINA RESULT:      -7.1      4.038      8.260
REMARK  8 active torsions:
REMARK  status: ('A' for Active; 'I' for Inactive)
REMARK    1  A    between atoms: C2_2  and  C3_3 
REMARK    2  A    between atoms: C2_2  and  N1_8 
REMARK    3  A    between atoms: C4_4  and  C5_5 
REMARK    4  A    between atoms: N1_8  and  C7_9 
REMARK    5  A    between atoms: C11_15  and  O1_16 
REMARK    6  A    between atoms: O1_16  and  C12_17 
REMARK    7  A    between atoms: C12_17  and  C13_18 
REMARK    8  A    between atoms: C13_18  and  O2_19 
ROOT
HETATM    1  C7  UNL     1      21.986   2.156  51.921  1.00  0.00     0.144 A 
HETATM    2  N2  UNL     1      22.022   3.005  50.893  1.00  0.00    -0.223 NA
HETATM    3  C8  UNL     1      23.194   3.198  50.225  1.00  0.00     0.236 A 
HETATM    4  N3  UNL     1      24.260   2.505  50.654  1.00  0.00    -0.241 NA
HETATM    5  C9  UNL     1      24.278   1.646  51.673  1.00  0.00     0.077 A 
HETATM    6  C10 UNL     1      25.441   1.000  52.010  1.00  0.00     0.072 A 
HETATM    7  C11 UNL     1      25.347   0.136  53.080  1.00  0.00     0.107 A 
HETATM    8  C15 UNL     1      24.166  -0.068  53.764  1.00  0.00     0.136 A 
HETATM    9  C16 UNL     1      23.016   0.604  53.391  1.00  0.00     0.121 A 
HETATM   10  C17 UNL     1      23.094   1.465  52.333  1.00  0.00     0.075 A 
HETATM   11  O3  UNL     1      21.823   0.410  54.069  1.00  0.00    -0.345 OA
HETATM   12  C18 UNL     1      21.575  -0.845  54.675  1.00  0.00     0.202 C 
HETATM   13  C19 UNL     1      22.791  -1.540  55.172  1.00  0.00     0.202 C 
HETATM   14  O4  UNL     1      24.016  -0.928  54.848  1.00  0.00    -0.344 OA
ENDROOT
BRANCH   1  15
HETATM   15  N1  UNL     1      20.712   2.043  52.532  1.00  0.00    -0.341 N 
HETATM   16  H9  UNL     1      20.068   2.171  53.335  1.00  0.00     0.167 HD
BRANCH  15  17
HETATM   17  C2  UNL     1      19.618   1.480  51.810  1.00  0.00     0.024 C 
HETATM   18  C1  UNL     1      19.711   0.267  51.283  1.00  0.00     0.043 C 
BRANCH  17  19
HETATM   19  C3  UNL     1      18.358   2.238  51.632  1.00  0.00     0.027 C 
HETATM   20  C4  UNL     1      18.447   3.522  51.323  1.00  0.00     0.012 C 
BRANCH  20  21
HETATM   21  C5  UNL     1      17.256   4.379  51.121  1.00  0.00     0.189 C 
HETATM   22  C6  UNL     1      16.116   4.011  52.048  1.00  0.00     0.049 C 
HETATM   23  F1  UNL     1      16.775   4.299  49.830  1.00  0.00    -0.246 F 
ENDBRANCH  20  21
ENDBRANCH  17  19
ENDBRANCH  15  17
ENDBRANCH   1  15
BRANCH   7  24
HETATM   24  O1  UNL     1      26.469  -0.574  53.508  1.00  0.00    -0.346 OA
BRANCH  24  25
HETATM   25  C12 UNL     1      27.785  -0.094  53.295  1.00  0.00     0.201 C 
BRANCH  25  26
HETATM   26  C13 UNL     1      28.394   0.199  54.637  1.00  0.00     0.193 C 
BRANCH  26  27
HETATM   27  O2  UNL     1      28.821   1.499  54.774  1.00  0.00    -0.394 OA
HETATM   28  C14 UNL     1      28.596   2.274  53.645  1.00  0.00     0.201 C 
ENDBRANCH  26  27
ENDBRANCH  25  26
ENDBRANCH  24  25
ENDBRANCH   7  24
TORSDOF 8
ENDMDL
MODEL 7
REMARK VINA RESULT:      -7.0      3.693      5.538
REMARK  8 active torsions:
REMARK  status: ('A' for Active; 'I' for Inactive)
REMARK    1  A    between atoms: C2_2  and  C3_3 
REMARK    2  A    between atoms: C2_2  and  N1_8 
REMARK    3  A    between atoms: C4_4  and  C5_5 
REMARK    4  A    between atoms: N1_8  and  C7_9 
REMARK    5  A    between atoms: C11_15  and  O1_16 
REMARK    6  A    between atoms: O1_16  and  C12_17 
REMARK    7  A    between atoms: C12_17  and  C13_18 
REMARK    8  A    between atoms: C13_18  and  O2_19 
ROOT
HETATM    1  C7  UNL     1      25.838   2.878  50.576  1.00  0.00     0.144 A 
HETATM    2  N2  UNL     1      27.026   2.893  51.180  1.00  0.00    -0.223 NA
HETATM    3  C8  UNL     1      27.193   2.210  52.348  1.00  0.00     0.236 A 
HETATM    4  N3  UNL     1      26.125   1.551  52.824  1.00  0.00    -0.241 NA
HETATM    5  C9  UNL     1      24.918   1.503  52.261  1.00  0.00     0.077 A 
HETATM    6  C10 UNL     1      23.908   0.788  52.854  1.00  0.00     0.072 A 
HETATM    7  C11 UNL     1      22.702   0.807  52.187  1.00  0.00     0.107 A 
HETATM    8  C15 UNL     1      22.521   1.495  51.004  1.00  0.00     0.136 A 
HETATM    9  C16 UNL     1      23.567   2.203  50.440  1.00  0.00     0.121 A 
HETATM   10  C17 UNL     1      24.769   2.194  51.090  1.00  0.00     0.075 A 
HETATM   11  O3  UNL     1      23.401   2.898  49.253  1.00  0.00    -0.345 OA
HETATM   12  C18 UNL     1      22.461   2.425  48.306  1.00  0.00     0.202 C 
HETATM   13  C19 UNL     1      21.279   1.747  48.899  1.00  0.00     0.202 C 
HETATM   14  O4  UNL     1      21.327   1.546  50.291  1.00  0.00    -0.344 OA
ENDROOT
BRANCH   1  15
HETATM   15  N1  UNL     1      25.793   3.624  49.372  1.00  0.00    -0.341 N 
HETATM   16  H9  UNL     1      25.603   3.711  48.355  1.00  0.00     0.167 HD
BRANCH  15  17
HETATM   17  C2  UNL     1      26.177   4.998  49.365  1.00  0.00     0.024 C 
HETATM   18  C1  UNL     1      27.195   5.410  48.623  1.00  0.00     0.043 C 
BRANCH  17  19
HETATM   19  C3  UNL     1      25.449   5.992  50.187  1.00  0.00     0.027 C 
HETATM   20  C4  UNL     1      24.244   6.363  49.787  1.00  0.00     0.012 C 
BRANCH  20  21
HETATM   21  C5  UNL     1      23.424   7.349  50.528  1.00  0.00     0.189 C 
HETATM   22  C6  UNL     1      21.994   6.884  50.717  1.00  0.00     0.049 C 
HETATM   23  F1  UNL     1      23.375   8.568  49.885  1.00  0.00    -0.246 F 
ENDBRANCH  20  21
ENDBRANCH  17  19
ENDBRANCH  15  17
ENDBRANCH   1  15
BRANCH   7  24
HETATM   24  O1  UNL     1      21.606   0.114  52.701  1.00  0.00    -0.346 OA
BRANCH  24  25
HETATM   25  C12 UNL     1      21.370   0.013  54.095  1.00  0.00     0.201 C 
BRANCH  25  26
HETATM   26  C13 UNL     1      20.949  -1.398  54.393  1.00  0.00     0.193 C 
BRANCH  26  27
HETATM   27  O2  UNL     1      21.952  -2.167  54.934  1.00  0.00    -0.394 OA
HETATM   28  C14 UNL     1      22.967  -1.419  55.513  1.00  0.00     0.201 C 
ENDBRANCH  26  27
ENDBRANCH  25  26
ENDBRANCH  24  25
ENDBRANCH   7  24
TORSDOF 8
ENDMDL
MODEL 8
REMARK VINA RESULT:      -6.8      4.387      8.019
REMARK  8 active torsions:
REMARK  status: ('A' for Active; 'I' for Inactive)
REMARK    1  A    between atoms: C2_2  and  C3_3 
REMARK    2  A    between atoms: C2_2  and  N1_8 
REMARK    3  A    between atoms: C4_4  and  C5_5 
REMARK    4  A    between atoms: N1_8  and  C7_9 
REMARK    5  A    between atoms: C11_15  and  O1_16 
REMARK    6  A    between atoms: O1_16  and  C12_17 
REMARK    7  A    between atoms: C12_17  and  C13_18 
REMARK    8  A    between atoms: C13_18  and  O2_19 
ROOT
HETATM    1  C7  UNL     1      24.333   3.334  49.957  1.00  0.00     0.144 A 
HETATM    2  N2  UNL     1      25.141   4.113  49.237  1.00  0.00    -0.223 NA
HETATM    3  C8  UNL     1      26.489   4.038  49.430  1.00  0.00     0.236 A 
HETATM    4  N3  UNL     1      26.923   3.165  50.352  1.00  0.00    -0.241 NA
HETATM    5  C9  UNL     1      26.160   2.366  51.095  1.00  0.00     0.077 A 
HETATM    6  C10 UNL     1      26.734   1.515  52.006  1.00  0.00     0.072 A 
HETATM    7  C11 UNL     1      25.851   0.734  52.723  1.00  0.00     0.107 A 
HETATM    8  C15 UNL     1      24.486   0.801  52.536  1.00  0.00     0.136 A 
HETATM    9  C16 UNL     1      23.949   1.673  51.607  1.00  0.00     0.121 A 
HETATM   10  C17 UNL     1      24.811   2.454  50.890  1.00  0.00     0.075 A 
HETATM   11  O3  UNL     1      22.579   1.751  51.409  1.00  0.00    -0.345 OA
HETATM   12  C18 UNL     1      21.787   0.599  51.630  1.00  0.00     0.202 C 
HETATM   13  C19 UNL     1      22.296  -0.302  52.696  1.00  0.00     0.202 C 
HETATM   14  O4  UNL     1      23.553   0.036  53.230  1.00  0.00    -0.344 OA
ENDROOT
BRANCH   1  15
HETATM   15  N1  UNL     1      22.956   3.505  49.664  1.00  0.00    -0.341 N 
HETATM   16  H9  UNL     1      22.007   3.130  49.475  1.00  0.00     0.167 HD
BRANCH  15  17
HETATM   17  C2  UNL     1      22.412   4.815  49.516  1.00  0.00     0.024 C 
HETATM   18  C1  UNL     1      22.046   5.517  50.579  1.00  0.00     0.043 C 
BRANCH  17  19
HETATM   19  C3  UNL     1      22.242   5.418  48.173  1.00  0.00     0.027 C 
HETATM   20  C4  UNL     1      21.780   4.646  47.203  1.00  0.00     0.012 C 
BRANCH  20  21
HETATM   21  C5  UNL     1      21.570   5.138  45.821  1.00  0.00     0.189 C 
HETATM   22  C6  UNL     1      21.303   4.013  44.842  1.00  0.00     0.049 C 
HETATM   23  F1  UNL     1      22.661   5.839  45.352  1.00  0.00    -0.246 F 
ENDBRANCH  20  21
ENDBRANCH  17  19
ENDBRANCH  15  17
ENDBRANCH   1  15
BRANCH   7  24
HETATM   24  O1  UNL     1      26.327  -0.166  53.675  1.00  0.00    -0.346 OA
BRANCH  24  25
HETATM   25  C12 UNL     1      26.804   0.262  54.939  1.00  0.00     0.201 C 
BRANCH  25  26
HETATM   26  C13 UNL     1      28.303   0.146  54.933  1.00  0.00     0.193 C 
BRANCH  26  27
HETATM   27  O2  UNL     1      28.767  -0.927  54.211  1.00  0.00    -0.394 OA
HETATM   28  C14 UNL     1      29.907  -0.643  53.472  1.00  0.00     0.201 C 
ENDBRANCH  26  27
ENDBRANCH  25  26
ENDBRANCH  24  25
ENDBRANCH   7  24
TORSDOF 8
ENDMDL
MODEL 9
REMARK VINA RESULT:      -6.8      4.806      8.777
REMARK  8 active torsions:
REMARK  status: ('A' for Active; 'I' for Inactive)
REMARK    1  A    between atoms: C2_2  and  C3_3 
REMARK    2  A    between atoms: C2_2  and  N1_8 
REMARK    3  A    between atoms: C4_4  and  C5_5 
REMARK    4  A    between atoms: N1_8  and  C7_9 
REMARK    5  A    between atoms: C11_15  and  O1_16 
REMARK    6  A    between atoms: O1_16  and  C12_17 
REMARK    7  A    between atoms: C12_17  and  C13_18 
REMARK    8  A    between atoms: C13_18  and  O2_19 
ROOT
HETATM    1  C7  UNL     1      24.298   2.236  51.472  1.00  0.00     0.144 A 
HETATM    2  N2  UNL     1      25.061   1.263  51.972  1.00  0.00    -0.223 NA
HETATM    3  C8  UNL     1      26.395   1.247  51.689  1.00  0.00     0.236 A 
HETATM    4  N3  UNL     1      26.863   2.233  50.910  1.00  0.00    -0.241 NA
HETATM    5  C9  UNL     1      26.145   3.227  50.386  1.00  0.00     0.077 A 
HETATM    6  C10 UNL     1      26.751   4.176  49.602  1.00  0.00     0.072 A 
HETATM    7  C11 UNL     1      25.915   5.157  49.112  1.00  0.00     0.107 A 
HETATM    8  C15 UNL     1      24.564   5.184  49.391  1.00  0.00     0.136 A 
HETATM    9  C16 UNL     1      23.994   4.207  50.186  1.00  0.00     0.121 A 
HETATM   10  C17 UNL     1      24.810   3.228  50.678  1.00  0.00     0.075 A 
HETATM   11  O3  UNL     1      22.639   4.221  50.475  1.00  0.00    -0.345 OA
HETATM   12  C18 UNL     1      21.962   5.463  50.530  1.00  0.00     0.202 C 
HETATM   13  C19 UNL     1      22.498   6.498  49.608  1.00  0.00     0.202 C 
HETATM   14  O4  UNL     1      23.677   6.150  48.924  1.00  0.00    -0.344 OA
ENDROOT
BRANCH   1  15
HETATM   15  N1  UNL     1      22.931   2.142  51.837  1.00  0.00    -0.341 N 
HETATM   16  H9  UNL     1      22.078   2.518  52.293  1.00  0.00     0.167 HD
BRANCH  15  17
HETATM   17  C2  UNL     1      22.167   0.996  51.466  1.00  0.00     0.024 C 
HETATM   18  C1  UNL     1      21.728   0.851  50.224  1.00  0.00     0.043 C 
BRANCH  17  19
HETATM   19  C3  UNL     1      21.845  -0.053  52.461  1.00  0.00     0.027 C 
HETATM   20  C4  UNL     1      21.993   0.242  53.742  1.00  0.00     0.012 C 
BRANCH  20  21
HETATM   21  C5  UNL     1      21.702  -0.727  54.825  1.00  0.00     0.189 C 
HETATM   22  C6  UNL     1      22.958  -1.368  55.377  1.00  0.00     0.049 C 
HETATM   23  F1  UNL     1      20.877  -1.746  54.397  1.00  0.00    -0.246 F 
ENDBRANCH  20  21
ENDBRANCH  17  19
ENDBRANCH  15  17
ENDBRANCH   1  15
BRANCH   7  24
HETATM   24  O1  UNL     1      26.426   6.172  48.304  1.00  0.00    -0.346 OA
BRANCH  24  25
HETATM   25  C12 UNL     1      26.952   7.370  48.848  1.00  0.00     0.201 C 
BRANCH  25  26
HETATM   26  C13 UNL     1      28.414   7.433  48.503  1.00  0.00     0.193 C 
BRANCH  26  27
HETATM   27  O2  UNL     1      29.057   8.524  49.038  1.00  0.00    -0.394 OA
HETATM   28  C14 UNL     1      30.440   8.434  48.972  1.00  0.00     0.201 C 
ENDBRANCH  26  27
ENDBRANCH  25  26
ENDBRANCH  24  25
ENDBRANCH   7  24
TORSDOF 8
ENDMDL
