MODEL 1
REMARK VINA RESULT:      -8.0      0.000      0.000
REMARK  6 active torsions:
REMARK  status: ('A' for Active; 'I' for Inactive)
REMARK    1  A    between atoms: C2_2  and  C3_4 
REMARK    2  A    between atoms: C4_5  and  C5_6 
REMARK    3  A    between atoms: C6_7  and  N1_8 
REMARK    4  A    between atoms: N1_8  and  C7_9 
REMARK    5  A    between atoms: C12_16  and  N4_17 
REMARK       I    between atoms: N4_17  and  C13_18 
REMARK    6  A    between atoms: C13_18  and  C14_20 
ROOT
HETATM    1  C7  UNL     1      25.576   0.787  52.849  1.00  0.00     0.141 A 
HETATM    2  N2  UNL     1      26.806   1.087  53.273  1.00  0.00    -0.224 NA
HETATM    3  C8  UNL     1      27.307   0.667  54.447  1.00  0.00     0.236 A 
HETATM    4  N3  UNL     1      26.497  -0.098  55.215  1.00  0.00    -0.241 NA
HETATM    5  C9  UNL     1      25.251  -0.428  54.831  1.00  0.00     0.072 A 
HETATM    6  C10 UNL     1      24.423  -1.219  55.632  1.00  0.00     0.035 A 
HETATM    7  C11 UNL     1      23.147  -1.554  55.234  1.00  0.00     0.032 A 
HETATM    8  C12 UNL     1      22.696  -1.082  54.003  1.00  0.00     0.036 A 
HETATM    9  C17 UNL     1      23.469  -0.297  53.168  1.00  0.00     0.047 A 
HETATM   10  C18 UNL     1      24.734   0.009  53.613  1.00  0.00     0.041 A 
ENDROOT
BRANCH   1  11
HETATM   11  N1  UNL     1      25.199   1.309  51.583  1.00  0.00    -0.350 N 
HETATM   12  H7  UNL     1      24.514   0.965  50.879  1.00  0.00     0.166 HD
BRANCH  11  13
HETATM   13  C6  UNL     1      25.798   2.505  51.097  1.00  0.00     0.090 C 
HETATM   14  C5  UNL     1      25.412   3.171  50.020  1.00  0.00     0.017 C 
BRANCH  14  15
HETATM   15  C4  UNL     1      26.114   4.386  49.630  1.00  0.00     0.003 C 
HETATM   16  C3  UNL     1      27.206   4.342  48.899  1.00  0.00     0.018 C 
BRANCH  16  17
HETATM   17  C2  UNL     1      27.916   5.555  48.503  1.00  0.00     0.001 C 
HETATM   18  C1  UNL     1      29.205   5.539  48.191  1.00  0.00     0.032 C 
HETATM   19 BR1  UNL     1      26.950   7.211  48.435  1.00  0.00    -0.052 Br
ENDBRANCH  16  17
ENDBRANCH  14  15
ENDBRANCH  11  13
ENDBRANCH   1  11
BRANCH   8  20
HETATM   20  N4  UNL     1      21.381  -1.383  53.512  1.00  0.00    -0.324 N 
HETATM   21  C13 UNL     1      20.325  -0.444  53.749  1.00  0.00     0.245 C 
HETATM   22  O1  UNL     1      20.748   0.559  54.390  1.00  0.00    -0.268 OA
HETATM   23  H11 UNL     1      21.162  -2.277  52.980  1.00  0.00     0.169 HD
BRANCH  21  24
HETATM   24  C14 UNL     1      18.962  -0.645  53.298  1.00  0.00     0.070 C 
HETATM   25  C15 UNL     1      18.546  -0.232  52.112  1.00  0.00    -0.026 C 
HETATM   26  C16 UNL     1      19.476   0.462  51.184  1.00  0.00     0.036 C 
ENDBRANCH  21  24
ENDBRANCH   8  20
TORSDOF 6
ENDMDL
MODEL 2
REMARK VINA RESULT:      -7.9      1.980      5.067
REMARK  6 active torsions:
REMARK  status: ('A' for Active; 'I' for Inactive)
REMARK    1  A    between atoms: C2_2  and  C3_4 
REMARK    2  A    between atoms: C4_5  and  C5_6 
REMARK    3  A    between atoms: C6_7  and  N1_8 
REMARK    4  A    between atoms: N1_8  and  C7_9 
REMARK    5  A    between atoms: C12_16  and  N4_17 
REMARK       I    between atoms: N4_17  and  C13_18 
REMARK    6  A    between atoms: C13_18  and  C14_20 
ROOT
HETATM    1  C7  UNL     1      22.277   0.819  51.967  1.00  0.00     0.141 A 
HETATM    2  N2  UNL     1      20.952   0.986  51.985  1.00  0.00    -0.224 NA
HETATM    3  C8  UNL     1      20.166   0.563  52.991  1.00  0.00     0.236 A 
HETATM    4  N3  UNL     1      20.782  -0.061  54.022  1.00  0.00    -0.241 NA
HETATM    5  C9  UNL     1      22.113  -0.253  54.049  1.00  0.00     0.072 A 
HETATM    6  C10 UNL     1      22.738  -0.898  55.119  1.00  0.00     0.035 A 
HETATM    7  C11 UNL     1      24.103  -1.092  55.142  1.00  0.00     0.032 A 
HETATM    8  C12 UNL     1      24.852  -0.626  54.065  1.00  0.00     0.036 A 
HETATM    9  C17 UNL     1      24.290   0.020  52.979  1.00  0.00     0.047 A 
HETATM   10  C18 UNL     1      22.925   0.188  53.006  1.00  0.00     0.041 A 
ENDROOT
BRANCH   1  11
HETATM   11  N1  UNL     1      22.961   1.325  50.831  1.00  0.00    -0.350 N 
HETATM   12  H7  UNL     1      23.189   0.881  49.917  1.00  0.00     0.166 HD
BRANCH  11  13
HETATM   13  C6  UNL     1      23.464   2.656  50.833  1.00  0.00     0.090 C 
HETATM   14  C5  UNL     1      24.378   3.131  50.003  1.00  0.00     0.017 C 
BRANCH  14  15
HETATM   15  C4  UNL     1      24.807   4.519  50.113  1.00  0.00     0.003 C 
HETATM   16  C3  UNL     1      25.694   5.029  49.288  1.00  0.00     0.018 C 
BRANCH  16  17
HETATM   17  C2  UNL     1      26.130   6.419  49.392  1.00  0.00     0.001 C 
HETATM   18  C1  UNL     1      25.623   7.243  50.299  1.00  0.00     0.032 C 
HETATM   19 BR1  UNL     1      27.471   7.060  48.179  1.00  0.00    -0.052 Br
ENDBRANCH  16  17
ENDBRANCH  14  15
ENDBRANCH  11  13
ENDBRANCH   1  11
BRANCH   8  20
HETATM   20  N4  UNL     1      26.277  -0.786  54.008  1.00  0.00    -0.324 N 
HETATM   21  C13 UNL     1      27.106   0.168  54.684  1.00  0.00     0.245 C 
HETATM   22  O1  UNL     1      26.405   1.049  55.258  1.00  0.00    -0.268 OA
HETATM   23  H11 UNL     1      26.741  -1.584  53.481  1.00  0.00     0.169 HD
BRANCH  21  24
HETATM   24  C14 UNL     1      28.554   0.104  54.693  1.00  0.00     0.070 C 
HETATM   25  C15 UNL     1      29.304   1.072  54.191  1.00  0.00    -0.026 C 
HETATM   26  C16 UNL     1      28.678   2.279  53.592  1.00  0.00     0.036 C 
ENDBRANCH  21  24
ENDBRANCH   8  20
TORSDOF 6
ENDMDL
MODEL 3
REMARK VINA RESULT:      -7.5      1.702      2.086
REMARK  6 active torsions:
REMARK  status: ('A' for Active; 'I' for Inactive)
REMARK    1  A    between atoms: C2_2  and  C3_4 
REMARK    2  A    between atoms: C4_5  and  C5_6 
REMARK    3  A    between atoms: C6_7  and  N1_8 
REMARK    4  A    between atoms: N1_8  and  C7_9 
REMARK    5  A    between atoms: C12_16  and  N4_17 
REMARK       I    between atoms: N4_17  and  C13_18 
REMARK    6  A    between atoms: C13_18  and  C14_20 
ROOT
HETATM    1  C7  UNL     1      27.062   1.511  52.322  1.00  0.00     0.141 A 
HETATM    2  N2  UNL     1      28.271   1.904  52.734  1.00  0.00    -0.224 NA
HETATM    3  C8  UNL     1      28.765   1.624  53.952  1.00  0.00     0.236 A 
HETATM    4  N3  UNL     1      27.971   0.905  54.780  1.00  0.00    -0.241 NA
HETATM    5  C9  UNL     1      26.747   0.486  54.411  1.00  0.00     0.072 A 
HETATM    6  C10 UNL     1      25.937  -0.256  55.273  1.00  0.00     0.035 A 
HETATM    7  C11 UNL     1      24.683  -0.683  54.889  1.00  0.00     0.032 A 
HETATM    8  C12 UNL     1      24.238  -0.355  53.611  1.00  0.00     0.036 A 
HETATM    9  C17 UNL     1      24.995   0.376  52.714  1.00  0.00     0.047 A 
HETATM   10  C18 UNL     1      26.238   0.778  53.146  1.00  0.00     0.041 A 
ENDROOT
BRANCH   1  11
HETATM   11  N1  UNL     1      26.690   1.889  51.005  1.00  0.00    -0.350 N 
HETATM   12  H7  UNL     1      26.470   1.314  50.166  1.00  0.00     0.166 HD
BRANCH  11  13
HETATM   13  C6  UNL     1      26.567   3.265  50.665  1.00  0.00     0.090 C 
HETATM   14  C5  UNL     1      26.714   3.770  49.450  1.00  0.00     0.017 C 
BRANCH  14  15
HETATM   15  C4  UNL     1      26.561   5.203  49.236  1.00  0.00     0.003 C 
HETATM   16  C3  UNL     1      25.428   5.714  48.810  1.00  0.00     0.018 C 
BRANCH  16  17
HETATM   17  C2  UNL     1      25.265   7.149  48.592  1.00  0.00     0.001 C 
HETATM   18  C1  UNL     1      24.631   7.626  47.529  1.00  0.00     0.032 C 
HETATM   19 BR1  UNL     1      25.991   8.367  49.884  1.00  0.00    -0.052 Br
ENDBRANCH  16  17
ENDBRANCH  14  15
ENDBRANCH  11  13
ENDBRANCH   1  11
BRANCH   8  20
HETATM   20  N4  UNL     1      22.947  -0.759  53.131  1.00  0.00    -0.324 N 
HETATM   21  C13 UNL     1      21.895   0.213  53.082  1.00  0.00     0.245 C 
HETATM   22  O1  UNL     1      22.299   1.337  53.493  1.00  0.00    -0.268 OA
HETATM   23  H11 UNL     1      22.742  -1.752  52.812  1.00  0.00     0.169 HD
BRANCH  21  24
HETATM   24  C14 UNL     1      20.555  -0.084  52.615  1.00  0.00     0.070 C 
HETATM   25  C15 UNL     1      20.182   0.133  51.364  1.00  0.00    -0.026 C 
HETATM   26  C16 UNL     1      21.140   0.695  50.377  1.00  0.00     0.036 C 
ENDBRANCH  21  24
ENDBRANCH   8  20
TORSDOF 6
ENDMDL
MODEL 4
REMARK VINA RESULT:      -7.5      2.531      5.195
REMARK  6 active torsions:
REMARK  status: ('A' for Active; 'I' for Inactive)
REMARK    1  A    between atoms: C2_2  and  C3_4 
REMARK    2  A    between atoms: C4_5  and  C5_6 
REMARK    3  A    between atoms: C6_7  and  N1_8 
REMARK    4  A    between atoms: N1_8  and  C7_9 
REMARK    5  A    between atoms: C12_16  and  N4_17 
REMARK       I    between atoms: N4_17  and  C13_18 
REMARK    6  A    between atoms: C13_18  and  C14_20 
ROOT
HETATM    1  C7  UNL     1      23.462   3.033  52.395  1.00  0.00     0.141 A 
HETATM    2  N2  UNL     1      22.264   3.490  52.020  1.00  0.00    -0.224 NA
HETATM    3  C8  UNL     1      21.149   2.740  52.034  1.00  0.00     0.236 A 
HETATM    4  N3  UNL     1      21.282   1.460  52.455  1.00  0.00    -0.241 NA
HETATM    5  C9  UNL     1      22.466   0.955  52.843  1.00  0.00     0.072 A 
HETATM    6  C10 UNL     1      22.591  -0.368  53.276  1.00  0.00     0.035 A 
HETATM    7  C11 UNL     1      23.808  -0.881  53.672  1.00  0.00     0.032 A 
HETATM    8  C12 UNL     1      24.920  -0.043  53.631  1.00  0.00     0.036 A 
HETATM    9  C17 UNL     1      24.858   1.273  53.212  1.00  0.00     0.047 A 
HETATM   10  C18 UNL     1      23.621   1.735  52.827  1.00  0.00     0.041 A 
ENDROOT
BRANCH   1  11
HETATM   11  N1  UNL     1      24.540   3.954  52.321  1.00  0.00    -0.350 N 
HETATM   12  H7  UNL     1      25.299   4.172  52.999  1.00  0.00     0.166 HD
BRANCH  11  13
HETATM   13  C6  UNL     1      24.706   4.770  51.167  1.00  0.00     0.090 C 
HETATM   14  C5  UNL     1      25.476   4.482  50.130  1.00  0.00     0.017 C 
BRANCH  14  15
HETATM   15  C4  UNL     1      25.556   5.407  49.007  1.00  0.00     0.003 C 
HETATM   16  C3  UNL     1      26.506   6.312  48.932  1.00  0.00     0.018 C 
BRANCH  16  17
HETATM   17  C2  UNL     1      26.594   7.243  47.811  1.00  0.00     0.001 C 
HETATM   18  C1  UNL     1      25.510   7.756  47.244  1.00  0.00     0.032 C 
HETATM   19 BR1  UNL     1      28.327   7.731  47.149  1.00  0.00    -0.052 Br
ENDBRANCH  16  17
ENDBRANCH  14  15
ENDBRANCH  11  13
ENDBRANCH   1  11
BRANCH   8  20
HETATM   20  N4  UNL     1      26.224  -0.496  54.025  1.00  0.00    -0.324 N 
HETATM   21  C13 UNL     1      27.186  -0.799  53.007  1.00  0.00     0.245 C 
HETATM   22  O1  UNL     1      26.702  -0.605  51.857  1.00  0.00    -0.268 OA
HETATM   23  H11 UNL     1      26.503  -0.616  55.044  1.00  0.00     0.169 HD
BRANCH  21  24
HETATM   24  C14 UNL     1      28.530  -1.262  53.290  1.00  0.00     0.070 C 
HETATM   25  C15 UNL     1      29.507  -0.429  53.612  1.00  0.00    -0.026 C 
HETATM   26  C16 UNL     1      29.258   1.033  53.696  1.00  0.00     0.036 C 
ENDBRANCH  21  24
ENDBRANCH   8  20
TORSDOF 6
ENDMDL
MODEL 5
REMARK VINA RESULT:      -7.4      4.067      8.456
REMARK  6 active torsions:
REMARK  status: ('A' for Active; 'I' for Inactive)
REMARK    1  A    between atoms: C2_2  and  C3_4 
REMARK    2  A    between atoms: C4_5  and  C5_6 
REMARK    3  A    between atoms: C6_7  and  N1_8 
REMARK    4  A    between atoms: N1_8  and  C7_9 
REMARK    5  A    between atoms: C12_16  and  N4_17 
REMARK       I    between atoms: N4_17  and  C13_18 
REMARK    6  A    between atoms: C13_18  and  C14_20 
ROOT
HETATM    1  C7  UNL     1      21.757  -0.190  53.924  1.00  0.00     0.141 A 
HETATM    2  N2  UNL     1      21.818  -1.023  54.967  1.00  0.00    -0.224 NA
HETATM    3  C8  UNL     1      22.971  -1.496  55.471  1.00  0.00     0.236 A 
HETATM    4  N3  UNL     1      24.111  -1.089  54.865  1.00  0.00    -0.241 NA
HETATM    5  C9  UNL     1      24.102  -0.252  53.813  1.00  0.00     0.072 A 
HETATM    6  C10 UNL     1      25.285   0.162  53.196  1.00  0.00     0.035 A 
HETATM    7  C11 UNL     1      25.270   1.020  52.116  1.00  0.00     0.032 A 
HETATM    8  C12 UNL     1      24.036   1.470  51.651  1.00  0.00     0.036 A 
HETATM    9  C17 UNL     1      22.833   1.095  52.220  1.00  0.00     0.047 A 
HETATM   10  C18 UNL     1      22.905   0.238  53.293  1.00  0.00     0.041 A 
ENDROOT
BRANCH   1  11
HETATM   11  N1  UNL     1      20.460   0.217  53.516  1.00  0.00    -0.350 N 
HETATM   12  H7  UNL     1      20.095   1.150  53.234  1.00  0.00     0.166 HD
BRANCH  11  13
HETATM   13  C6  UNL     1      19.402  -0.732  53.446  1.00  0.00     0.090 C 
HETATM   14  C5  UNL     1      18.255  -0.553  52.811  1.00  0.00     0.017 C 
BRANCH  14  15
HETATM   15  C4  UNL     1      17.251  -1.610  52.816  1.00  0.00     0.003 C 
HETATM   16  C3  UNL     1      17.501  -2.788  53.341  1.00  0.00     0.018 C 
BRANCH  16  17
HETATM   17  C2  UNL     1      16.501  -3.853  53.351  1.00  0.00     0.001 C 
HETATM   18  C1  UNL     1      16.630  -4.924  54.122  1.00  0.00     0.032 C 
HETATM   19 BR1  UNL     1      14.964  -3.688  52.214  1.00  0.00    -0.052 Br
ENDBRANCH  16  17
ENDBRANCH  14  15
ENDBRANCH  11  13
ENDBRANCH   1  11
BRANCH   8  20
HETATM   20  N4  UNL     1      23.929   2.364  50.533  1.00  0.00    -0.324 N 
HETATM   21  C13 UNL     1      24.040   3.774  50.765  1.00  0.00     0.245 C 
HETATM   22  O1  UNL     1      24.226   4.017  51.990  1.00  0.00    -0.268 OA
HETATM   23  H11 UNL     1      23.770   2.020  49.540  1.00  0.00     0.169 HD
BRANCH  21  24
HETATM   24  C14 UNL     1      23.948   4.766  49.712  1.00  0.00     0.070 C 
HETATM   25  C15 UNL     1      25.007   5.161  49.024  1.00  0.00    -0.026 C 
HETATM   26  C16 UNL     1      26.350   4.592  49.310  1.00  0.00     0.036 C 
ENDBRANCH  21  24
ENDBRANCH   8  20
TORSDOF 6
ENDMDL
MODEL 6
REMARK VINA RESULT:      -7.4      5.767     10.962
REMARK  6 active torsions:
REMARK  status: ('A' for Active; 'I' for Inactive)
REMARK    1  A    between atoms: C2_2  and  C3_4 
REMARK    2  A    between atoms: C4_5  and  C5_6 
REMARK    3  A    between atoms: C6_7  and  N1_8 
REMARK    4  A    between atoms: N1_8  and  C7_9 
REMARK    5  A    between atoms: C12_16  and  N4_17 
REMARK       I    between atoms: N4_17  and  C13_18 
REMARK    6  A    between atoms: C13_18  and  C14_20 
ROOT
HETATM    1  C7  UNL     1      27.799   7.312  48.698  1.00  0.00     0.141 A 
HETATM    2  N2  UNL     1      27.146   8.233  49.413  1.00  0.00    -0.224 NA
HETATM    3  C8  UNL     1      27.736   9.327  49.925  1.00  0.00     0.236 A 
HETATM    4  N3  UNL     1      29.060   9.473  49.685  1.00  0.00    -0.241 NA
HETATM    5  C9  UNL     1      29.760   8.574  48.971  1.00  0.00     0.072 A 
HETATM    6  C10 UNL     1      31.127   8.735  48.730  1.00  0.00     0.035 A 
HETATM    7  C11 UNL     1      31.840   7.810  47.997  1.00  0.00     0.032 A 
HETATM    8  C12 UNL     1      31.161   6.701  47.498  1.00  0.00     0.036 A 
HETATM    9  C17 UNL     1      29.810   6.488  47.703  1.00  0.00     0.047 A 
HETATM   10  C18 UNL     1      29.146   7.440  48.441  1.00  0.00     0.041 A 
ENDROOT
BRANCH   1  11
HETATM   11  N1  UNL     1      27.030   6.215  48.228  1.00  0.00    -0.350 N 
HETATM   12  H7  UNL     1      26.797   5.909  47.261  1.00  0.00     0.166 HD
BRANCH  11  13
HETATM   13  C6  UNL     1      26.428   5.316  49.153  1.00  0.00     0.090 C 
HETATM   14  C5  UNL     1      26.745   4.040  49.296  1.00  0.00     0.017 C 
BRANCH  14  15
HETATM   15  C4  UNL     1      26.049   3.226  50.284  1.00  0.00     0.003 C 
HETATM   16  C3  UNL     1      26.707   2.496  51.156  1.00  0.00     0.018 C 
BRANCH  16  17
HETATM   17  C2  UNL     1      26.018   1.678  52.150  1.00  0.00     0.001 C 
HETATM   18  C1  UNL     1      25.047   2.171  52.908  1.00  0.00     0.032 C 
HETATM   19 BR1  UNL     1      26.537  -0.157  52.356  1.00  0.00    -0.052 Br
ENDBRANCH  16  17
ENDBRANCH  14  15
ENDBRANCH  11  13
ENDBRANCH   1  11
BRANCH   8  20
HETATM   20  N4  UNL     1      31.826   5.690  46.725  1.00  0.00    -0.324 N 
HETATM   21  C13 UNL     1      32.157   4.447  47.356  1.00  0.00     0.245 C 
HETATM   22  O1  UNL     1      31.786   4.440  48.563  1.00  0.00    -0.268 OA
HETATM   23  H11 UNL     1      32.084   5.830  45.703  1.00  0.00     0.169 HD
BRANCH  21  24
HETATM   24  C14 UNL     1      32.827   3.358  46.673  1.00  0.00     0.070 C 
HETATM   25  C15 UNL     1      34.113   3.100  46.854  1.00  0.00    -0.026 C 
HETATM   26  C16 UNL     1      34.927   3.930  47.779  1.00  0.00     0.036 C 
ENDBRANCH  21  24
ENDBRANCH   8  20
TORSDOF 6
ENDMDL
MODEL 7
REMARK VINA RESULT:      -7.2      3.161      5.901
REMARK  6 active torsions:
REMARK  status: ('A' for Active; 'I' for Inactive)
REMARK    1  A    between atoms: C2_2  and  C3_4 
REMARK    2  A    between atoms: C4_5  and  C5_6 
REMARK    3  A    between atoms: C6_7  and  N1_8 
REMARK    4  A    between atoms: N1_8  and  C7_9 
REMARK    5  A    between atoms: C12_16  and  N4_17 
REMARK       I    between atoms: N4_17  and  C13_18 
REMARK    6  A    between atoms: C13_18  and  C14_20 
ROOT
HETATM    1  C7  UNL     1      22.411   1.002  52.082  1.00  0.00     0.141 A 
HETATM    2  N2  UNL     1      21.082   1.145  52.063  1.00  0.00    -0.224 NA
HETATM    3  C8  UNL     1      20.266   0.597  52.979  1.00  0.00     0.236 A 
HETATM    4  N3  UNL     1      20.852  -0.132  53.957  1.00  0.00    -0.241 NA
HETATM    5  C9  UNL     1      22.184  -0.305  54.020  1.00  0.00     0.072 A 
HETATM    6  C10 UNL     1      22.777  -1.060  55.034  1.00  0.00     0.035 A 
HETATM    7  C11 UNL     1      24.144  -1.234  55.093  1.00  0.00     0.032 A 
HETATM    8  C12 UNL     1      24.927  -0.635  54.109  1.00  0.00     0.036 A 
HETATM    9  C17 UNL     1      24.397   0.123  53.081  1.00  0.00     0.047 A 
HETATM   10  C18 UNL     1      23.028   0.265  53.069  1.00  0.00     0.041 A 
ENDROOT
BRANCH   1  11
HETATM   11  N1  UNL     1      23.130   1.646  51.041  1.00  0.00    -0.350 N 
HETATM   12  H7  UNL     1      24.146   1.847  50.937  1.00  0.00     0.166 HD
BRANCH  11  13
HETATM   13  C6  UNL     1      22.444   2.138  49.897  1.00  0.00     0.090 C 
HETATM   14  C5  UNL     1      23.017   2.686  48.837  1.00  0.00     0.017 C 
BRANCH  14  15
HETATM   15  C4  UNL     1      22.195   3.152  47.728  1.00  0.00     0.003 C 
HETATM   16  C3  UNL     1      21.836   4.412  47.623  1.00  0.00     0.018 C 
BRANCH  16  17
HETATM   17  C2  UNL     1      21.012   4.887  46.514  1.00  0.00     0.001 C 
HETATM   18  C1  UNL     1      19.687   4.848  46.564  1.00  0.00     0.032 C 
HETATM   19 BR1  UNL     1      21.879   5.585  44.952  1.00  0.00    -0.052 Br
ENDBRANCH  16  17
ENDBRANCH  14  15
ENDBRANCH  11  13
ENDBRANCH   1  11
BRANCH   8  20
HETATM   20  N4  UNL     1      26.356  -0.765  54.095  1.00  0.00    -0.324 N 
HETATM   21  C13 UNL     1      27.145   0.215  54.781  1.00  0.00     0.245 C 
HETATM   22  O1  UNL     1      26.410   1.089  55.321  1.00  0.00    -0.268 OA
HETATM   23  H11 UNL     1      26.852  -1.561  53.594  1.00  0.00     0.169 HD
BRANCH  21  24
HETATM   24  C14 UNL     1      28.593   0.182  54.832  1.00  0.00     0.070 C 
HETATM   25  C15 UNL     1      29.338   1.131  54.287  1.00  0.00    -0.026 C 
HETATM   26  C16 UNL     1      28.705   2.283  53.593  1.00  0.00     0.036 C 
ENDBRANCH  21  24
ENDBRANCH   8  20
TORSDOF 6
ENDMDL
MODEL 8
REMARK VINA RESULT:      -7.2      3.113      5.645
REMARK  6 active torsions:
REMARK  status: ('A' for Active; 'I' for Inactive)
REMARK    1  A    between atoms: C2_2  and  C3_4 
REMARK    2  A    between atoms: C4_5  and  C5_6 
REMARK    3  A    between atoms: C6_7  and  N1_8 
REMARK    4  A    between atoms: N1_8  and  C7_9 
REMARK    5  A    between atoms: C12_16  and  N4_17 
REMARK       I    between atoms: N4_17  and  C13_18 
REMARK    6  A    between atoms: C13_18  and  C14_20 
ROOT
HETATM    1  C7  UNL     1      22.501   0.633  52.342  1.00  0.00     0.141 A 
HETATM    2  N2  UNL     1      21.180   0.466  52.235  1.00  0.00    -0.224 NA
HETATM    3  C8  UNL     1      20.451  -0.244  53.113  1.00  0.00     0.236 A 
HETATM    4  N3  UNL     1      21.121  -0.806  54.146  1.00  0.00    -0.241 NA
HETATM    5  C9  UNL     1      22.449  -0.667  54.297  1.00  0.00     0.072 A 
HETATM    6  C10 UNL     1      23.130  -1.251  55.367  1.00  0.00     0.035 A 
HETATM    7  C11 UNL     1      24.493  -1.105  55.517  1.00  0.00     0.032 A 
HETATM    8  C12 UNL     1      25.183  -0.354  54.568  1.00  0.00     0.036 A 
HETATM    9  C17 UNL     1      24.564   0.248  53.488  1.00  0.00     0.047 A 
HETATM   10  C18 UNL     1      23.203   0.071  53.385  1.00  0.00     0.041 A 
ENDROOT
BRANCH   1  11
HETATM   11  N1  UNL     1      23.123   1.413  51.332  1.00  0.00    -0.350 N 
HETATM   12  H7  UNL     1      23.770   1.143  50.563  1.00  0.00     0.166 HD
BRANCH  11  13
HETATM   13  C6  UNL     1      22.890   2.815  51.266  1.00  0.00     0.090 C 
HETATM   14  C5  UNL     1      23.149   3.680  52.233  1.00  0.00     0.017 C 
BRANCH  14  15
HETATM   15  C4  UNL     1      22.862   5.095  52.037  1.00  0.00     0.003 C 
HETATM   16  C3  UNL     1      23.069   5.681  50.879  1.00  0.00     0.018 C 
BRANCH  16  17
HETATM   17  C2  UNL     1      22.785   7.099  50.673  1.00  0.00     0.001 C 
HETATM   18  C1  UNL     1      23.744   8.014  50.703  1.00  0.00     0.032 C 
HETATM   19 BR1  UNL     1      20.973   7.641  50.351  1.00  0.00    -0.052 Br
ENDBRANCH  16  17
ENDBRANCH  14  15
ENDBRANCH  11  13
ENDBRANCH   1  11
BRANCH   8  20
HETATM   20  N4  UNL     1      26.601  -0.151  54.648  1.00  0.00    -0.324 N 
HETATM   21  C13 UNL     1      27.457  -0.925  53.798  1.00  0.00     0.245 C 
HETATM   22  O1  UNL     1      26.783  -1.708  53.071  1.00  0.00    -0.268 OA
HETATM   23  H11 UNL     1      27.041   0.550  55.314  1.00  0.00     0.169 HD
BRANCH  21  24
HETATM   24  C14 UNL     1      28.902  -0.803  53.794  1.00  0.00     0.070 C 
HETATM   25  C15 UNL     1      29.507   0.374  53.802  1.00  0.00    -0.026 C 
HETATM   26  C16 UNL     1      28.716   1.631  53.816  1.00  0.00     0.036 C 
ENDBRANCH  21  24
ENDBRANCH   8  20
TORSDOF 6
ENDMDL
MODEL 9
REMARK VINA RESULT:      -7.1      3.152      6.705
REMARK  6 active torsions:
REMARK  status: ('A' for Active; 'I' for Inactive)
REMARK    1  A    between atoms: C2_2  and  C3_4 
REMARK    2  A    between atoms: C4_5  and  C5_6 
REMARK    3  A    between atoms: C6_7  and  N1_8 
REMARK    4  A    between atoms: N1_8  and  C7_9 
REMARK    5  A    between atoms: C12_16  and  N4_17 
REMARK       I    between atoms: N4_17  and  C13_18 
REMARK    6  A    between atoms: C13_18  and  C14_20 
ROOT
HETATM    1  C7  UNL     1      22.079   0.457  52.953  1.00  0.00     0.141 A 
HETATM    2  N2  UNL     1      20.837   0.135  53.327  1.00  0.00    -0.224 NA
HETATM    3  C8  UNL     1      19.806   0.996  53.288  1.00  0.00     0.236 A 
HETATM    4  N3  UNL     1      20.073   2.245  52.841  1.00  0.00    -0.241 NA
HETATM    5  C9  UNL     1      21.306   2.617  52.453  1.00  0.00     0.072 A 
HETATM    6  C10 UNL     1      21.571   3.909  51.994  1.00  0.00     0.035 A 
HETATM    7  C11 UNL     1      22.837   4.285  51.597  1.00  0.00     0.032 A 
HETATM    8  C12 UNL     1      23.856   3.338  51.665  1.00  0.00     0.036 A 
HETATM    9  C17 UNL     1      23.655   2.044  52.111  1.00  0.00     0.047 A 
HETATM   10  C18 UNL     1      22.374   1.721  52.495  1.00  0.00     0.041 A 
ENDROOT
BRANCH   1  11
HETATM   11  N1  UNL     1      23.055  -0.569  53.055  1.00  0.00    -0.350 N 
HETATM   12  H7  UNL     1      22.961  -1.605  53.030  1.00  0.00     0.166 HD
BRANCH  11  13
HETATM   13  C6  UNL     1      24.428  -0.235  53.222  1.00  0.00     0.090 C 
HETATM   14  C5  UNL     1      25.191  -0.615  54.235  1.00  0.00     0.017 C 
BRANCH  14  15
HETATM   15  C4  UNL     1      26.587  -0.202  54.286  1.00  0.00     0.003 C 
HETATM   16  C3  UNL     1      27.031   0.802  53.564  1.00  0.00     0.018 C 
BRANCH  16  17
HETATM   17  C2  UNL     1      28.429   1.223  53.609  1.00  0.00     0.001 C 
HETATM   18  C1  UNL     1      28.771   2.503  53.651  1.00  0.00     0.032 C 
HETATM   19 BR1  UNL     1      29.798  -0.121  53.606  1.00  0.00    -0.052 Br
ENDBRANCH  16  17
ENDBRANCH  14  15
ENDBRANCH  11  13
ENDBRANCH   1  11
BRANCH   8  20
HETATM   20  N4  UNL     1      25.202   3.645  51.273  1.00  0.00    -0.324 N 
HETATM   21  C13 UNL     1      25.556   3.545  49.888  1.00  0.00     0.245 C 
HETATM   22  O1  UNL     1      24.565   3.183  49.193  1.00  0.00    -0.268 OA
HETATM   23  H11 UNL     1      25.947   3.942  51.971  1.00  0.00     0.169 HD
BRANCH  21  24
HETATM   24  C14 UNL     1      26.883   3.831  49.380  1.00  0.00     0.070 C 
HETATM   25  C15 UNL     1      27.197   5.006  48.856  1.00  0.00    -0.026 C 
HETATM   26  C16 UNL     1      26.185   6.090  48.769  1.00  0.00     0.036 C 
ENDBRANCH  21  24
ENDBRANCH   8  20
TORSDOF 6
ENDMDL
