MODEL 1
REMARK VINA RESULT:      -7.4      0.000      0.000
REMARK  9 active torsions:
REMARK  status: ('A' for Active; 'I' for Inactive)
REMARK    1  A    between atoms: O1_2  and  C2_3 
REMARK    2  A    between atoms: C2_3  and  C3_4 
REMARK    3  A    between atoms: C3_4  and  O3_26 
REMARK    4  A    between atoms: C4_5  and  C5_6 
REMARK    5  A    between atoms: C8_10  and  C9_11 
REMARK    6  A    between atoms: C9_11  and  N1_12 
REMARK    7  A    between atoms: C9_11  and  C10_13 
REMARK    8  A    between atoms: C11_14  and  N2_15 
REMARK    9  A    between atoms: N2_15  and  C12_16 
ROOT
HETATM    1  C5  UNL     1      26.740   1.575  52.549  1.00  0.00     0.032 C 
HETATM    2  C6  UNL     1      26.050   2.325  51.689  1.00  0.00     0.060 C 
HETATM    3  C7  UNL     1      24.595   2.259  51.898  1.00  0.00     0.236 C 
HETATM    4  O2  UNL     1      23.877   3.087  51.009  1.00  0.00    -0.330 OA
HETATM    5  C8  UNL     1      23.991   3.421  49.691  1.00  0.00     0.178 C 
HETATM    6  N3  UNL     1      25.129   3.641  49.139  1.00  0.00    -0.220 NA
HETATM    7  C18 UNL     1      26.458   3.610  49.648  1.00  0.00     0.235 C 
HETATM    8  N4  UNL     1      26.827   3.038  50.744  1.00  0.00    -0.244 NA
ENDROOT
BRANCH   5   9
HETATM    9  C9  UNL     1      22.733   3.526  48.908  1.00  0.00     0.318 C 
BRANCH   9  10
HETATM   10  N1  UNL     1      22.809   4.580  47.898  1.00  0.00     0.094 N 
HETATM   11  H11 UNL     1      22.921   5.508  48.322  1.00  0.00     0.314 HD
HETATM   12  H12 UNL     1      23.504   4.345  47.153  1.00  0.00     0.314 HD
ENDBRANCH   9  10
BRANCH   9  13
HETATM   13  C10 UNL     1      22.574   2.241  48.163  1.00  0.00     0.033 C 
HETATM   14  C11 UNL     1      21.687   1.360  48.656  1.00  0.00     0.087 C 
BRANCH  14  15
HETATM   15  N2  UNL     1      21.037   1.803  49.819  1.00  0.00    -0.366 N 
HETATM   16  H15 UNL     1      21.158   2.841  49.853  1.00  0.00     0.165 HD
BRANCH  15  17
HETATM   17  C12 UNL     1      20.339   1.046  50.793  1.00  0.00     0.033 A 
HETATM   18  C13 UNL     1      19.027   0.722  50.522  1.00  0.00     0.029 A 
HETATM   19  C14 UNL     1      18.397  -0.024  51.520  1.00  0.00     0.004 A 
HETATM   20  C15 UNL     1      19.047  -0.406  52.693  1.00  0.00     0.019 A 
HETATM   21  C16 UNL     1      20.364  -0.039  52.885  1.00  0.00     0.013 A 
HETATM   22 BR1  UNL     1      21.256  -0.561  54.487  1.00  0.00    -0.051 Br
HETATM   23  C17 UNL     1      21.029   0.701  51.921  1.00  0.00     0.048 A 
ENDBRANCH  15  17
ENDBRANCH  14  15
ENDBRANCH   9  13
ENDBRANCH   5   9
BRANCH   1  24
HETATM   24  C4  UNL     1      26.078   0.787  53.575  1.00  0.00     0.036 C 
HETATM   25  C3  UNL     1      26.724   0.196  54.538  1.00  0.00     0.069 C 
BRANCH  25  26
HETATM   26  C2  UNL     1      28.174   0.149  54.851  1.00  0.00     0.231 C 
BRANCH  26  27
HETATM   27  O1  UNL     1      28.771  -0.958  54.234  1.00  0.00    -0.390 OA
HETATM   28  C1  UNL     1      29.859  -0.563  53.442  1.00  0.00     0.201 C 
ENDBRANCH  26  27
ENDBRANCH  25  26
BRANCH  25  29
HETATM   29  O3  UNL     1      26.110  -0.558  55.522  1.00  0.00    -0.358 OA
HETATM   30  C19 UNL     1      24.854  -1.150  55.371  1.00  0.00     0.209 C 
ENDBRANCH  25  29
ENDBRANCH   1  24
TORSDOF 9
ENDMDL
MODEL 2
REMARK VINA RESULT:      -7.1      1.649      2.058
REMARK  9 active torsions:
REMARK  status: ('A' for Active; 'I' for Inactive)
REMARK    1  A    between atoms: O1_2  and  C2_3 
REMARK    2  A    between atoms: C2_3  and  C3_4 
REMARK    3  A    between atoms: C3_4  and  O3_26 
REMARK    4  A    between atoms: C4_5  and  C5_6 
REMARK    5  A    between atoms: C8_10  and  C9_11 
REMARK    6  A    between atoms: C9_11  and  N1_12 
REMARK    7  A    between atoms: C9_11  and  C10_13 
REMARK    8  A    between atoms: C11_14  and  N2_15 
REMARK    9  A    between atoms: N2_15  and  C12_16 
ROOT
HETATM    1  C5  UNL     1      26.045   0.961  52.066  1.00  0.00     0.032 C 
HETATM    2  C6  UNL     1      25.636   2.202  51.796  1.00  0.00     0.060 C 
HETATM    3  C7  UNL     1      24.576   2.673  52.701  1.00  0.00     0.236 C 
HETATM    4  O2  UNL     1      24.178   4.000  52.432  1.00  0.00    -0.330 OA
HETATM    5  C8  UNL     1      23.984   4.743  51.305  1.00  0.00     0.178 C 
HETATM    6  N3  UNL     1      24.769   4.664  50.292  1.00  0.00    -0.220 NA
HETATM    7  C18 UNL     1      25.934   3.885  50.046  1.00  0.00     0.235 C 
HETATM    8  N4  UNL     1      26.283   2.833  50.705  1.00  0.00    -0.244 NA
ENDROOT
BRANCH   5   9
HETATM    9  C9  UNL     1      22.816   5.663  51.292  1.00  0.00     0.318 C 
BRANCH   9  10
HETATM   10  N1  UNL     1      23.217   7.053  51.499  1.00  0.00     0.094 N 
HETATM   11  H11 UNL     1      24.139   7.248  51.092  1.00  0.00     0.314 HD
HETATM   12  H12 UNL     1      22.458   7.714  51.218  1.00  0.00     0.314 HD
ENDBRANCH   9  10
BRANCH   9  13
HETATM   13  C10 UNL     1      22.222   5.595  49.923  1.00  0.00     0.033 C 
HETATM   14  C11 UNL     1      21.210   4.730  49.743  1.00  0.00     0.087 C 
BRANCH  14  15
HETATM   15  N2  UNL     1      20.867   4.012  50.900  1.00  0.00    -0.366 N 
HETATM   16  H15 UNL     1      20.380   4.685  51.535  1.00  0.00     0.165 HD
BRANCH  15  17
HETATM   17  C12 UNL     1      21.103   2.649  51.206  1.00  0.00     0.033 A 
HETATM   18  C13 UNL     1      21.541   1.836  50.183  1.00  0.00     0.029 A 
HETATM   19  C14 UNL     1      21.755   0.507  50.550  1.00  0.00     0.004 A 
HETATM   20  C15 UNL     1      21.542   0.044  51.849  1.00  0.00     0.019 A 
HETATM   21  C16 UNL     1      21.103   0.927  52.815  1.00  0.00     0.013 A 
HETATM   22 BR1  UNL     1      20.811   0.298  54.591  1.00  0.00    -0.051 Br
HETATM   23  C17 UNL     1      20.877   2.256  52.496  1.00  0.00     0.048 A 
ENDBRANCH  15  17
ENDBRANCH  14  15
ENDBRANCH   9  13
ENDBRANCH   5   9
BRANCH   1  24
HETATM   24  C4  UNL     1      25.473   0.191  53.156  1.00  0.00     0.036 C 
HETATM   25  C3  UNL     1      26.153  -0.153  54.211  1.00  0.00     0.069 C 
BRANCH  25  26
HETATM   26  C2  UNL     1      27.565   0.108  54.586  1.00  0.00     0.231 C 
BRANCH  26  27
HETATM   27  O1  UNL     1      28.386  -0.946  54.164  1.00  0.00    -0.390 OA
HETATM   28  C1  UNL     1      29.638  -0.471  53.750  1.00  0.00     0.201 C 
ENDBRANCH  26  27
ENDBRANCH  25  26
BRANCH  25  29
HETATM   29  O3  UNL     1      25.624  -0.887  55.258  1.00  0.00    -0.358 OA
HETATM   30  C19 UNL     1      24.274  -1.232  55.355  1.00  0.00     0.209 C 
ENDBRANCH  25  29
ENDBRANCH   1  24
TORSDOF 9
ENDMDL
MODEL 3
REMARK VINA RESULT:      -7.0      4.657      6.848
REMARK  9 active torsions:
REMARK  status: ('A' for Active; 'I' for Inactive)
REMARK    1  A    between atoms: O1_2  and  C2_3 
REMARK    2  A    between atoms: C2_3  and  C3_4 
REMARK    3  A    between atoms: C3_4  and  O3_26 
REMARK    4  A    between atoms: C4_5  and  C5_6 
REMARK    5  A    between atoms: C8_10  and  C9_11 
REMARK    6  A    between atoms: C9_11  and  N1_12 
REMARK    7  A    between atoms: C9_11  and  C10_13 
REMARK    8  A    between atoms: C11_14  and  N2_15 
REMARK    9  A    between atoms: N2_15  and  C12_16 
ROOT
HETATM    1  C5  UNL     1      28.915   6.163  48.031  1.00  0.00     0.032 C 
HETATM    2  C6  UNL     1      27.747   5.822  48.577  1.00  0.00     0.060 C 
HETATM    3  C7  UNL     1      26.897   6.978  48.900  1.00  0.00     0.236 C 
HETATM    4  O2  UNL     1      25.648   6.605  49.439  1.00  0.00    -0.330 OA
HETATM    5  C8  UNL     1      25.215   5.645  50.306  1.00  0.00     0.178 C 
HETATM    6  N3  UNL     1      25.680   4.448  50.285  1.00  0.00    -0.220 NA
HETATM    7  C18 UNL     1      26.661   3.819  49.468  1.00  0.00     0.235 C 
HETATM    8  N4  UNL     1      27.536   4.431  48.745  1.00  0.00    -0.244 NA
ENDROOT
BRANCH   5   9
HETATM    9  C9  UNL     1      24.171   6.039  51.287  1.00  0.00     0.318 C 
BRANCH   9  10
HETATM   10  N1  UNL     1      24.034   7.491  51.380  1.00  0.00     0.094 N 
HETATM   11  H11 UNL     1      24.031   7.933  50.454  1.00  0.00     0.314 HD
HETATM   12  H12 UNL     1      23.239   7.760  52.003  1.00  0.00     0.314 HD
ENDBRANCH   9  10
BRANCH   9  13
HETATM   13  C10 UNL     1      22.868   5.525  50.768  1.00  0.00     0.033 C 
HETATM   14  C11 UNL     1      22.364   4.434  51.367  1.00  0.00     0.087 C 
BRANCH  14  15
HETATM   15  N2  UNL     1      23.163   3.941  52.410  1.00  0.00    -0.366 N 
HETATM   16  H15 UNL     1      23.453   4.768  52.980  1.00  0.00     0.165 HD
BRANCH  15  17
HETATM   17  C12 UNL     1      23.539   2.603  52.691  1.00  0.00     0.033 A 
HETATM   18  C13 UNL     1      22.594   1.623  52.480  1.00  0.00     0.029 A 
HETATM   19  C14 UNL     1      23.026   0.329  52.774  1.00  0.00     0.004 A 
HETATM   20  C15 UNL     1      24.312   0.057  53.243  1.00  0.00     0.019 A 
HETATM   21  C16 UNL     1      25.197   1.099  53.426  1.00  0.00     0.013 A 
HETATM   22 BR1  UNL     1      26.955   0.731  54.067  1.00  0.00    -0.051 Br
HETATM   23  C17 UNL     1      24.811   2.401  53.147  1.00  0.00     0.048 A 
ENDBRANCH  15  17
ENDBRANCH  14  15
ENDBRANCH   9  13
ENDBRANCH   5   9
BRANCH   1  24
HETATM   24  C4  UNL     1      29.270   7.552  47.797  1.00  0.00     0.036 C 
HETATM   25  C3  UNL     1      30.300   8.120  48.355  1.00  0.00     0.069 C 
BRANCH  25  26
HETATM   26  C2  UNL     1      31.316   7.586  49.295  1.00  0.00     0.231 C 
BRANCH  26  27
HETATM   27  O1  UNL     1      32.545   7.418  48.643  1.00  0.00    -0.390 OA
HETATM   28  C1  UNL     1      32.721   6.087  48.242  1.00  0.00     0.201 C 
ENDBRANCH  26  27
ENDBRANCH  25  26
BRANCH  25  29
HETATM   29  O3  UNL     1      30.652   9.442  48.143  1.00  0.00    -0.358 OA
HETATM   30  C19 UNL     1      30.578  10.429  49.129  1.00  0.00     0.209 C 
ENDBRANCH  25  29
ENDBRANCH   1  24
TORSDOF 9
ENDMDL
MODEL 4
REMARK VINA RESULT:      -6.8      3.693      6.133
REMARK  9 active torsions:
REMARK  status: ('A' for Active; 'I' for Inactive)
REMARK    1  A    between atoms: O1_2  and  C2_3 
REMARK    2  A    between atoms: C2_3  and  C3_4 
REMARK    3  A    between atoms: C3_4  and  O3_26 
REMARK    4  A    between atoms: C4_5  and  C5_6 
REMARK    5  A    between atoms: C8_10  and  C9_11 
REMARK    6  A    between atoms: C9_11  and  N1_12 
REMARK    7  A    between atoms: C9_11  and  C10_13 
REMARK    8  A    between atoms: C11_14  and  N2_15 
REMARK    9  A    between atoms: N2_15  and  C12_16 
ROOT
HETATM    1  C5  UNL     1      27.567   4.941  48.638  1.00  0.00     0.032 C 
HETATM    2  C6  UNL     1      26.633   4.398  49.421  1.00  0.00     0.060 C 
HETATM    3  C7  UNL     1      25.569   5.343  49.796  1.00  0.00     0.236 C 
HETATM    4  O2  UNL     1      24.566   4.749  50.590  1.00  0.00    -0.330 OA
HETATM    5  C8  UNL     1      24.547   3.834  51.602  1.00  0.00     0.178 C 
HETATM    6  N3  UNL     1      25.302   2.796  51.599  1.00  0.00    -0.220 NA
HETATM    7  C18 UNL     1      26.272   2.326  50.670  1.00  0.00     0.235 C 
HETATM    8  N4  UNL     1      26.828   3.033  49.745  1.00  0.00    -0.244 NA
ENDROOT
BRANCH   5   9
HETATM    9  C9  UNL     1      23.605   4.085  52.724  1.00  0.00     0.318 C 
BRANCH   9  10
HETATM   10  N1  UNL     1      23.883   5.355  53.393  1.00  0.00     0.094 N 
HETATM   11  H11 UNL     1      24.076   5.225  54.393  1.00  0.00     0.314 HD
HETATM   12  H12 UNL     1      24.598   5.911  52.871  1.00  0.00     0.314 HD
ENDBRANCH   9  10
BRANCH   9  13
HETATM   13  C10 UNL     1      22.241   4.214  52.128  1.00  0.00     0.033 C 
HETATM   14  C11 UNL     1      21.559   3.075  51.923  1.00  0.00     0.087 C 
BRANCH  14  15
HETATM   15  N2  UNL     1      22.256   1.920  52.311  1.00  0.00    -0.366 N 
HETATM   16  H15 UNL     1      23.250   2.057  52.014  1.00  0.00     0.165 HD
BRANCH  15  17
HETATM   17  C12 UNL     1      21.771   0.766  52.975  1.00  0.00     0.033 A 
HETATM   18  C13 UNL     1      22.662   0.063  53.757  1.00  0.00     0.029 A 
HETATM   19  C14 UNL     1      22.121  -1.061  54.383  1.00  0.00     0.004 A 
HETATM   20  C15 UNL     1      20.787  -1.438  54.226  1.00  0.00     0.019 A 
HETATM   21  C16 UNL     1      19.962  -0.676  53.423  1.00  0.00     0.013 A 
HETATM   22 BR1  UNL     1      18.138  -1.188  53.206  1.00  0.00    -0.051 Br
HETATM   23  C17 UNL     1      20.455   0.449  52.782  1.00  0.00     0.048 A 
ENDBRANCH  15  17
ENDBRANCH  14  15
ENDBRANCH   9  13
ENDBRANCH   5   9
BRANCH   1  24
HETATM   24  C4  UNL     1      27.499   6.331  48.223  1.00  0.00     0.036 C 
HETATM   25  C3  UNL     1      28.551   7.018  47.883  1.00  0.00     0.069 C 
BRANCH  25  26
HETATM   26  C2  UNL     1      29.985   6.637  47.821  1.00  0.00     0.231 C 
BRANCH  26  27
HETATM   27  O1  UNL     1      30.662   7.099  48.957  1.00  0.00    -0.390 OA
HETATM   28  C1  UNL     1      31.655   8.024  48.606  1.00  0.00     0.201 C 
ENDBRANCH  26  27
ENDBRANCH  25  26
BRANCH  25  29
HETATM   29  O3  UNL     1      28.505   8.343  47.486  1.00  0.00    -0.358 OA
HETATM   30  C19 UNL     1      27.639   8.824  46.501  1.00  0.00     0.209 C 
ENDBRANCH  25  29
ENDBRANCH   1  24
TORSDOF 9
ENDMDL
MODEL 5
REMARK VINA RESULT:      -6.7      3.208      6.131
REMARK  9 active torsions:
REMARK  status: ('A' for Active; 'I' for Inactive)
REMARK    1  A    between atoms: O1_2  and  C2_3 
REMARK    2  A    between atoms: C2_3  and  C3_4 
REMARK    3  A    between atoms: C3_4  and  O3_26 
REMARK    4  A    between atoms: C4_5  and  C5_6 
REMARK    5  A    between atoms: C8_10  and  C9_11 
REMARK    6  A    between atoms: C9_11  and  N1_12 
REMARK    7  A    between atoms: C9_11  and  C10_13 
REMARK    8  A    between atoms: C11_14  and  N2_15 
REMARK    9  A    between atoms: N2_15  and  C12_16 
ROOT
HETATM    1  C5  UNL     1      26.018   5.009  49.239  1.00  0.00     0.032 C 
HETATM    2  C6  UNL     1      25.644   4.112  50.152  1.00  0.00     0.060 C 
HETATM    3  C7  UNL     1      26.725   3.195  50.542  1.00  0.00     0.236 C 
HETATM    4  O2  UNL     1      26.330   2.275  51.537  1.00  0.00    -0.330 OA
HETATM    5  C8  UNL     1      25.199   1.559  51.800  1.00  0.00     0.178 C 
HETATM    6  N3  UNL     1      24.026   2.057  51.648  1.00  0.00    -0.220 NA
HETATM    7  C18 UNL     1      23.581   3.338  51.216  1.00  0.00     0.235 C 
HETATM    8  N4  UNL     1      24.295   4.201  50.576  1.00  0.00    -0.244 NA
ENDROOT
BRANCH   5   9
HETATM    9  C9  UNL     1      25.378   0.163  52.276  1.00  0.00     0.318 C 
BRANCH   9  10
HETATM   10  N1  UNL     1      26.748  -0.307  52.079  1.00  0.00     0.094 N 
HETATM   11  H11 UNL     1      26.958  -1.125  52.662  1.00  0.00     0.314 HD
HETATM   12  H12 UNL     1      26.971  -0.416  51.064  1.00  0.00     0.314 HD
ENDBRANCH   9  10
BRANCH   9  13
HETATM   13  C10 UNL     1      25.144   0.172  53.752  1.00  0.00     0.033 C 
HETATM   14  C11 UNL     1      23.980  -0.340  54.185  1.00  0.00     0.087 C 
BRANCH  14  15
HETATM   15  N2  UNL     1      23.152  -0.812  53.155  1.00  0.00    -0.366 N 
HETATM   16  H15 UNL     1      23.771  -1.317  52.481  1.00  0.00     0.165 HD
BRANCH  15  17
HETATM   17  C12 UNL     1      21.750  -0.668  53.000  1.00  0.00     0.033 A 
HETATM   18  C13 UNL     1      20.944  -1.275  53.938  1.00  0.00     0.029 A 
HETATM   19  C14 UNL     1      19.576  -1.095  53.730  1.00  0.00     0.004 A 
HETATM   20  C15 UNL     1      19.071  -0.358  52.657  1.00  0.00     0.019 A 
HETATM   21  C16 UNL     1      19.951   0.218  51.763  1.00  0.00     0.013 A 
HETATM   22 BR1  UNL     1      19.265   1.225  50.297  1.00  0.00    -0.051 Br
HETATM   23  C17 UNL     1      21.318   0.065  51.931  1.00  0.00     0.048 A 
ENDBRANCH  15  17
ENDBRANCH  14  15
ENDBRANCH   9  13
ENDBRANCH   5   9
BRANCH   1  24
HETATM   24  C4  UNL     1      27.371   5.040  48.711  1.00  0.00     0.036 C 
HETATM   25  C3  UNL     1      27.914   6.118  48.224  1.00  0.00     0.069 C 
BRANCH  25  26
HETATM   26  C2  UNL     1      27.381   7.495  48.075  1.00  0.00     0.231 C 
BRANCH  26  27
HETATM   27  O1  UNL     1      27.843   8.313  49.114  1.00  0.00    -0.390 OA
HETATM   28  C1  UNL     1      26.828   8.552  50.052  1.00  0.00     0.201 C 
ENDBRANCH  26  27
ENDBRANCH  25  26
BRANCH  25  29
HETATM   29  O3  UNL     1      29.201   6.165  47.717  1.00  0.00    -0.358 OA
HETATM   30  C19 UNL     1      30.344   5.940  48.488  1.00  0.00     0.209 C 
ENDBRANCH  25  29
ENDBRANCH   1  24
TORSDOF 9
ENDMDL
MODEL 6
REMARK VINA RESULT:      -6.6      4.561      7.380
REMARK  9 active torsions:
REMARK  status: ('A' for Active; 'I' for Inactive)
REMARK    1  A    between atoms: O1_2  and  C2_3 
REMARK    2  A    between atoms: C2_3  and  C3_4 
REMARK    3  A    between atoms: C3_4  and  O3_26 
REMARK    4  A    between atoms: C4_5  and  C5_6 
REMARK    5  A    between atoms: C8_10  and  C9_11 
REMARK    6  A    between atoms: C9_11  and  N1_12 
REMARK    7  A    between atoms: C9_11  and  C10_13 
REMARK    8  A    between atoms: C11_14  and  N2_15 
REMARK    9  A    between atoms: N2_15  and  C12_16 
ROOT
HETATM    1  C5  UNL     1      27.933   6.536  48.252  1.00  0.00     0.032 C 
HETATM    2  C6  UNL     1      26.989   5.797  48.837  1.00  0.00     0.060 C 
HETATM    3  C7  UNL     1      25.875   6.596  49.370  1.00  0.00     0.236 C 
HETATM    4  O2  UNL     1      24.862   5.803  49.952  1.00  0.00    -0.330 OA
HETATM    5  C8  UNL     1      24.836   4.675  50.717  1.00  0.00     0.178 C 
HETATM    6  N3  UNL     1      25.631   3.689  50.508  1.00  0.00    -0.220 NA
HETATM    7  C18 UNL     1      26.657   3.479  49.544  1.00  0.00     0.235 C 
HETATM    8  N4  UNL     1      27.223   4.400  48.841  1.00  0.00    -0.244 NA
ENDROOT
BRANCH   5   9
HETATM    9  C9  UNL     1      23.839   4.627  51.819  1.00  0.00     0.318 C 
BRANCH   9  10
HETATM   10  N1  UNL     1      23.099   5.882  51.935  1.00  0.00     0.094 N 
HETATM   11  H11 UNL     1      23.701   6.696  51.771  1.00  0.00     0.314 HD
HETATM   12  H12 UNL     1      22.219   5.859  51.371  1.00  0.00     0.314 HD
ENDBRANCH   9  10
BRANCH   9  13
HETATM   13  C10 UNL     1      22.838   3.580  51.454  1.00  0.00     0.033 C 
HETATM   14  C11 UNL     1      22.922   2.407  52.105  1.00  0.00     0.087 C 
BRANCH  14  15
HETATM   15  N2  UNL     1      23.964   2.355  53.044  1.00  0.00    -0.366 N 
HETATM   16  H15 UNL     1      23.877   3.214  53.635  1.00  0.00     0.165 HD
BRANCH  15  17
HETATM   17  C12 UNL     1      24.965   1.366  53.213  1.00  0.00     0.033 A 
HETATM   18  C13 UNL     1      24.592   0.051  53.034  1.00  0.00     0.029 A 
HETATM   19  C14 UNL     1      25.623  -0.872  53.213  1.00  0.00     0.004 A 
HETATM   20  C15 UNL     1      26.923  -0.490  53.546  1.00  0.00     0.019 A 
HETATM   21  C16 UNL     1      27.211   0.850  53.706  1.00  0.00     0.013 A 
HETATM   22 BR1  UNL     1      28.986   1.377  54.160  1.00  0.00    -0.051 Br
HETATM   23  C17 UNL     1      26.219   1.803  53.538  1.00  0.00     0.048 A 
ENDBRANCH  15  17
ENDBRANCH  14  15
ENDBRANCH   9  13
ENDBRANCH   5   9
BRANCH   1  24
HETATM   24  C4  UNL     1      27.829   7.982  48.173  1.00  0.00     0.036 C 
HETATM   25  C3  UNL     1      28.809   8.779  48.489  1.00  0.00     0.069 C 
BRANCH  25  26
HETATM   26  C2  UNL     1      30.182   8.489  48.974  1.00  0.00     0.231 C 
BRANCH  26  27
HETATM   27  O1  UNL     1      31.032   9.570  48.707  1.00  0.00    -0.390 OA
HETATM   28  C1  UNL     1      32.021   9.212  47.781  1.00  0.00     0.201 C 
ENDBRANCH  26  27
ENDBRANCH  25  26
BRANCH  25  29
HETATM   29  O3  UNL     1      28.727  10.158  48.420  1.00  0.00    -0.358 OA
HETATM   30  C19 UNL     1      27.531  10.869  48.553  1.00  0.00     0.209 C 
ENDBRANCH  25  29
ENDBRANCH   1  24
TORSDOF 9
ENDMDL
MODEL 7
REMARK VINA RESULT:      -6.6      1.596      2.274
REMARK  9 active torsions:
REMARK  status: ('A' for Active; 'I' for Inactive)
REMARK    1  A    between atoms: O1_2  and  C2_3 
REMARK    2  A    between atoms: C2_3  and  C3_4 
REMARK    3  A    between atoms: C3_4  and  O3_26 
REMARK    4  A    between atoms: C4_5  and  C5_6 
REMARK    5  A    between atoms: C8_10  and  C9_11 
REMARK    6  A    between atoms: C9_11  and  N1_12 
REMARK    7  A    between atoms: C9_11  and  C10_13 
REMARK    8  A    between atoms: C11_14  and  N2_15 
REMARK    9  A    between atoms: N2_15  and  C12_16 
ROOT
HETATM    1  C5  UNL     1      25.731   2.216  53.447  1.00  0.00     0.032 C 
HETATM    2  C6  UNL     1      24.684   2.640  52.737  1.00  0.00     0.060 C 
HETATM    3  C7  UNL     1      24.329   1.737  51.631  1.00  0.00     0.236 C 
HETATM    4  O2  UNL     1      23.196   2.173  50.912  1.00  0.00    -0.330 OA
HETATM    5  C8  UNL     1      22.718   3.382  50.498  1.00  0.00     0.178 C 
HETATM    6  N3  UNL     1      22.779   4.429  51.238  1.00  0.00    -0.220 NA
HETATM    7  C18 UNL     1      23.295   4.644  52.547  1.00  0.00     0.235 C 
HETATM    8  N4  UNL     1      24.111   3.861  53.167  1.00  0.00    -0.244 NA
ENDROOT
BRANCH   5   9
HETATM    9  C9  UNL     1      22.113   3.442  49.142  1.00  0.00     0.318 C 
BRANCH   9  10
HETATM   10  N1  UNL     1      22.742   4.469  48.313  1.00  0.00     0.094 N 
HETATM   11  H11 UNL     1      23.702   4.215  48.054  1.00  0.00     0.314 HD
HETATM   12  H12 UNL     1      22.125   4.745  47.515  1.00  0.00     0.314 HD
ENDBRANCH   9  10
BRANCH   9  13
HETATM   13  C10 UNL     1      22.397   2.134  48.479  1.00  0.00     0.033 C 
HETATM   14  C11 UNL     1      21.445   1.190  48.567  1.00  0.00     0.087 C 
BRANCH  14  15
HETATM   15  N2  UNL     1      20.309   1.598  49.285  1.00  0.00    -0.366 N 
HETATM   16  H15 UNL     1      20.056   2.548  48.931  1.00  0.00     0.165 HD
BRANCH  15  17
HETATM   17  C12 UNL     1      19.600   0.906  50.299  1.00  0.00     0.033 A 
HETATM   18  C13 UNL     1      18.254   0.689  50.095  1.00  0.00     0.029 A 
HETATM   19  C14 UNL     1      17.615   0.003  51.128  1.00  0.00     0.004 A 
HETATM   20  C15 UNL     1      18.288  -0.425  52.273  1.00  0.00     0.019 A 
HETATM   21  C16 UNL     1      19.638  -0.165  52.398  1.00  0.00     0.013 A 
HETATM   22 BR1  UNL     1      20.562  -0.748  53.960  1.00  0.00    -0.051 Br
HETATM   23  C17 UNL     1      20.314   0.513  51.396  1.00  0.00     0.048 A 
ENDBRANCH  15  17
ENDBRANCH  14  15
ENDBRANCH   9  13
ENDBRANCH   5   9
BRANCH   1  24
HETATM   24  C4  UNL     1      26.421   0.980  53.123  1.00  0.00     0.036 C 
HETATM   25  C3  UNL     1      26.481  -0.030  53.942  1.00  0.00     0.069 C 
BRANCH  25  26
HETATM   26  C2  UNL     1      25.925  -0.212  55.306  1.00  0.00     0.231 C 
BRANCH  26  27
HETATM   27  O1  UNL     1      25.283  -1.453  55.410  1.00  0.00    -0.390 OA
HETATM   28  C1  UNL     1      23.910  -1.290  55.638  1.00  0.00     0.201 C 
ENDBRANCH  26  27
ENDBRANCH  25  26
BRANCH  25  29
HETATM   29  O3  UNL     1      27.134  -1.215  53.650  1.00  0.00    -0.358 OA
HETATM   30  C19 UNL     1      26.933  -1.938  52.472  1.00  0.00     0.209 C 
ENDBRANCH  25  29
ENDBRANCH   1  24
TORSDOF 9
ENDMDL
MODEL 8
REMARK VINA RESULT:      -6.5      3.347      7.515
REMARK  9 active torsions:
REMARK  status: ('A' for Active; 'I' for Inactive)
REMARK    1  A    between atoms: O1_2  and  C2_3 
REMARK    2  A    between atoms: C2_3  and  C3_4 
REMARK    3  A    between atoms: C3_4  and  O3_26 
REMARK    4  A    between atoms: C4_5  and  C5_6 
REMARK    5  A    between atoms: C8_10  and  C9_11 
REMARK    6  A    between atoms: C9_11  and  N1_12 
REMARK    7  A    between atoms: C9_11  and  C10_13 
REMARK    8  A    between atoms: C11_14  and  N2_15 
REMARK    9  A    between atoms: N2_15  and  C12_16 
ROOT
HETATM    1  C5  UNL     1      18.710   0.558  50.524  1.00  0.00     0.032 C 
HETATM    2  C6  UNL     1      19.833   1.199  50.193  1.00  0.00     0.060 C 
HETATM    3  C7  UNL     1      20.912   1.026  51.178  1.00  0.00     0.236 C 
HETATM    4  O2  UNL     1      22.107   1.674  50.798  1.00  0.00    -0.330 OA
HETATM    5  C8  UNL     1      22.417   2.857  50.194  1.00  0.00     0.178 C 
HETATM    6  N3  UNL     1      21.732   3.323  49.214  1.00  0.00    -0.220 NA
HETATM    7  C18 UNL     1      20.585   2.829  48.531  1.00  0.00     0.235 C 
HETATM    8  N4  UNL     1      19.787   1.918  48.973  1.00  0.00    -0.244 NA
ENDROOT
BRANCH   5   9
HETATM    9  C9  UNL     1      23.595   3.596  50.719  1.00  0.00     0.318 C 
BRANCH   9  10
HETATM   10  N1  UNL     1      23.814   4.849  49.999  1.00  0.00     0.094 N 
HETATM   11  H11 UNL     1      22.975   5.146  49.488  1.00  0.00     0.314 HD
HETATM   12  H12 UNL     1      24.238   5.576  50.619  1.00  0.00     0.314 HD
ENDBRANCH   9  10
BRANCH   9  13
HETATM   13  C10 UNL     1      23.281   3.971  52.130  1.00  0.00     0.033 C 
HETATM   14  C11 UNL     1      24.164   3.593  53.069  1.00  0.00     0.087 C 
BRANCH  14  15
HETATM   15  N2  UNL     1      25.266   2.888  52.558  1.00  0.00    -0.366 N 
HETATM   16  H15 UNL     1      25.744   3.529  51.884  1.00  0.00     0.165 HD
BRANCH  15  17
HETATM   17  C12 UNL     1      25.698   1.571  52.856  1.00  0.00     0.033 A 
HETATM   18  C13 UNL     1      24.730   0.597  52.967  1.00  0.00     0.029 A 
HETATM   19  C14 UNL     1      25.221  -0.676  53.260  1.00  0.00     0.004 A 
HETATM   20  C15 UNL     1      26.582  -0.935  53.426  1.00  0.00     0.019 A 
HETATM   21  C16 UNL     1      27.486   0.100  53.297  1.00  0.00     0.013 A 
HETATM   22 BR1  UNL     1      29.346  -0.250  53.524  1.00  0.00    -0.051 Br
HETATM   23  C17 UNL     1      27.043   1.381  53.007  1.00  0.00     0.048 A 
ENDBRANCH  15  17
ENDBRANCH  14  15
ENDBRANCH   9  13
ENDBRANCH   5   9
BRANCH   1  24
HETATM   24  C4  UNL     1      18.610  -0.220  51.746  1.00  0.00     0.036 C 
HETATM   25  C3  UNL     1      17.485  -0.404  52.375  1.00  0.00     0.069 C 
BRANCH  25  26
HETATM   26  C2  UNL     1      16.111   0.071  52.073  1.00  0.00     0.231 C 
BRANCH  26  27
HETATM   27  O1  UNL     1      15.331   0.081  53.236  1.00  0.00    -0.390 OA
HETATM   28  C1  UNL     1      14.229   0.935  53.092  1.00  0.00     0.201 C 
ENDBRANCH  26  27
ENDBRANCH  25  26
BRANCH  25  29
HETATM   29  O3  UNL     1      17.371  -1.142  53.540  1.00  0.00    -0.358 OA
HETATM   30  C19 UNL     1      17.874  -2.437  53.687  1.00  0.00     0.209 C 
ENDBRANCH  25  29
ENDBRANCH   1  24
TORSDOF 9
ENDMDL
MODEL 9
REMARK VINA RESULT:      -6.4      3.315      6.165
REMARK  9 active torsions:
REMARK  status: ('A' for Active; 'I' for Inactive)
REMARK    1  A    between atoms: O1_2  and  C2_3 
REMARK    2  A    between atoms: C2_3  and  C3_4 
REMARK    3  A    between atoms: C3_4  and  O3_26 
REMARK    4  A    between atoms: C4_5  and  C5_6 
REMARK    5  A    between atoms: C8_10  and  C9_11 
REMARK    6  A    between atoms: C9_11  and  N1_12 
REMARK    7  A    between atoms: C9_11  and  C10_13 
REMARK    8  A    between atoms: C11_14  and  N2_15 
REMARK    9  A    between atoms: N2_15  and  C12_16 
ROOT
HETATM    1  C5  UNL     1      24.310   0.227  53.440  1.00  0.00     0.032 C 
HETATM    2  C6  UNL     1      23.716   0.765  52.373  1.00  0.00     0.060 C 
HETATM    3  C7  UNL     1      24.511   1.830  51.743  1.00  0.00     0.236 C 
HETATM    4  O2  UNL     1      23.893   2.365  50.592  1.00  0.00    -0.330 OA
HETATM    5  C8  UNL     1      22.613   2.673  50.236  1.00  0.00     0.178 C 
HETATM    6  N3  UNL     1      21.618   1.924  50.547  1.00  0.00    -0.220 NA
HETATM    7  C18 UNL     1      21.535   0.700  51.267  1.00  0.00     0.235 C 
HETATM    8  N4  UNL     1      22.449   0.225  52.044  1.00  0.00    -0.244 NA
ENDROOT
BRANCH   5   9
HETATM    9  C9  UNL     1      22.409   3.925  49.460  1.00  0.00     0.318 C 
BRANCH   9  10
HETATM   10  N1  UNL     1      21.023   4.069  49.016  1.00  0.00     0.094 N 
HETATM   11  H11 UNL     1      20.635   3.178  48.686  1.00  0.00     0.314 HD
HETATM   12  H12 UNL     1      20.445   4.570  49.728  1.00  0.00     0.314 HD
ENDBRANCH   9  10
BRANCH   9  13
HETATM   13  C10 UNL     1      22.672   5.063  50.391  1.00  0.00     0.033 C 
HETATM   14  C11 UNL     1      23.882   5.641  50.316  1.00  0.00     0.087 C 
BRANCH  14  15
HETATM   15  N2  UNL     1      24.724   5.067  49.350  1.00  0.00    -0.366 N 
HETATM   16  H15 UNL     1      24.222   4.230  48.975  1.00  0.00     0.165 HD
BRANCH  15  17
HETATM   17  C12 UNL     1      26.009   5.488  48.923  1.00  0.00     0.033 A 
HETATM   18  C13 UNL     1      27.019   4.550  48.934  1.00  0.00     0.029 A 
HETATM   19  C14 UNL     1      28.256   5.027  48.502  1.00  0.00     0.004 A 
HETATM   20  C15 UNL     1      28.450   6.347  48.094  1.00  0.00     0.019 A 
HETATM   21  C16 UNL     1      27.383   7.222  48.114  1.00  0.00     0.013 A 
HETATM   22 BR1  UNL     1      27.644   9.027  47.556  1.00  0.00    -0.051 Br
HETATM   23  C17 UNL     1      26.135   6.792  48.535  1.00  0.00     0.048 A 
ENDBRANCH  15  17
ENDBRANCH  14  15
ENDBRANCH   9  13
ENDBRANCH   5   9
BRANCH   1  24
HETATM   24  C4  UNL     1      25.612   0.680  53.896  1.00  0.00     0.036 C 
HETATM   25  C3  UNL     1      26.725   0.120  53.520  1.00  0.00     0.069 C 
BRANCH  25  26
HETATM   26  C2  UNL     1      26.981  -1.023  52.609  1.00  0.00     0.231 C 
BRANCH  26  27
HETATM   27  O1  UNL     1      27.400  -2.144  53.338  1.00  0.00    -0.390 OA
HETATM   28  C1  UNL     1      28.676  -2.558  52.930  1.00  0.00     0.201 C 
ENDBRANCH  26  27
ENDBRANCH  25  26
BRANCH  25  29
HETATM   29  O3  UNL     1      27.974   0.538  53.945  1.00  0.00    -0.358 OA
HETATM   30  C19 UNL     1      28.654   1.627  53.394  1.00  0.00     0.209 C 
ENDBRANCH  25  29
ENDBRANCH   1  24
TORSDOF 9
ENDMDL
