MODEL 1
REMARK VINA RESULT:      -7.7      0.000      0.000
REMARK  6 active torsions:
REMARK  status: ('A' for Active; 'I' for Inactive)
REMARK    1  A    between atoms: C3_3  and  O1_4 
REMARK    2  A    between atoms: O1_4  and  C4_5 
REMARK    3  A    between atoms: C4_5  and  C5_6 
REMARK    4  A    between atoms: C7_8  and  C8_9 
REMARK    5  A    between atoms: C10_11  and  N1_12 
REMARK    6  A    between atoms: N1_12  and  C11_13 
ROOT
HETATM    1  C1  UNL     1      29.417   5.495  48.173  1.00  0.00     0.014 C 
HETATM    2  C2  UNL     1      28.256   5.804  48.281  1.00  0.00    -0.091 C 
HETATM    3  C3  UNL     1      26.813   6.183  48.437  1.00  0.00     0.260 C 
ENDROOT
BRANCH   3   4
HETATM    4  O1  UNL     1      26.342   5.438  49.462  1.00  0.00    -0.375 OA
BRANCH   4   5
HETATM    5  C4  UNL     1      25.902   4.178  49.277  1.00  0.00     0.202 C 
BRANCH   5   6
HETATM    6  C5  UNL     1      25.775   3.322  50.484  1.00  0.00    -0.058 C 
HETATM    7  C6  UNL     1      24.420   2.915  50.926  1.00  0.00     0.046 C 
HETATM    8  C7  UNL     1      26.876   2.910  51.145  1.00  0.00     0.036 C 
BRANCH   8   9
HETATM    9  C8  UNL     1      27.261   2.113  52.304  1.00  0.00     0.062 A 
HETATM   10  C9  UNL     1      26.558   1.091  52.882  1.00  0.00     0.082 A 
HETATM   11  C10 UNL     1      26.953   0.399  53.987  1.00  0.00     0.131 A 
HETATM   12  N2  UNL     1      28.115   0.796  54.490  1.00  0.00    -0.224 NA
HETATM   13  C17 UNL     1      28.854   1.769  53.997  1.00  0.00     0.235 A 
HETATM   14  N3  UNL     1      28.438   2.422  52.919  1.00  0.00    -0.242 NA
BRANCH  11  15
HETATM   15  N1  UNL     1      26.137  -0.643  54.496  1.00  0.00    -0.341 N 
HETATM   16  H11 UNL     1      26.622  -1.438  55.010  1.00  0.00     0.167 HD
BRANCH  15  17
HETATM   17  C11 UNL     1      24.743  -0.777  54.416  1.00  0.00     0.035 A 
HETATM   18  C12 UNL     1      23.995  -1.312  55.468  1.00  0.00     0.029 A 
HETATM   19  C13 UNL     1      22.642  -1.459  55.437  1.00  0.00     0.004 A 
HETATM   20  C14 UNL     1      21.915  -1.076  54.330  1.00  0.00     0.024 A 
HETATM   21  C15 UNL     1      22.596  -0.539  53.258  1.00  0.00     0.036 A 
HETATM   22 CL1  UNL     1      21.682  -0.048  51.844  1.00  0.00    -0.084 Cl
HETATM   23  C16 UNL     1      23.965  -0.419  53.355  1.00  0.00     0.053 A 
ENDBRANCH  15  17
ENDBRANCH  11  15
ENDBRANCH   8   9
ENDBRANCH   5   6
ENDBRANCH   4   5
ENDBRANCH   3   4
TORSDOF 6
ENDMDL
MODEL 2
REMARK VINA RESULT:      -7.4      2.824      4.494
REMARK  6 active torsions:
REMARK  status: ('A' for Active; 'I' for Inactive)
REMARK    1  A    between atoms: C3_3  and  O1_4 
REMARK    2  A    between atoms: O1_4  and  C4_5 
REMARK    3  A    between atoms: C4_5  and  C5_6 
REMARK    4  A    between atoms: C7_8  and  C8_9 
REMARK    5  A    between atoms: C10_11  and  N1_12 
REMARK    6  A    between atoms: N1_12  and  C11_13 
ROOT
HETATM    1  C1  UNL     1      27.227   5.233  48.648  1.00  0.00     0.014 C 
HETATM    2  C2  UNL     1      26.665   4.385  49.295  1.00  0.00    -0.091 C 
HETATM    3  C3  UNL     1      25.979   3.334  50.117  1.00  0.00     0.260 C 
ENDROOT
BRANCH   3   4
HETATM    4  O1  UNL     1      26.907   2.881  50.990  1.00  0.00    -0.375 OA
BRANCH   4   5
HETATM    5  C4  UNL     1      26.884   1.615  51.452  1.00  0.00     0.202 C 
BRANCH   5   6
HETATM    6  C5  UNL     1      26.112   1.363  52.696  1.00  0.00    -0.058 C 
HETATM    7  C6  UNL     1      26.351   2.238  53.868  1.00  0.00     0.046 C 
HETATM    8  C7  UNL     1      25.199   0.372  52.740  1.00  0.00     0.036 C 
BRANCH   8   9
HETATM    9  C8  UNL     1      24.246  -0.239  53.658  1.00  0.00     0.062 A 
HETATM   10  C9  UNL     1      22.879  -0.219  53.576  1.00  0.00     0.082 A 
HETATM   11  C10 UNL     1      22.033  -0.782  54.482  1.00  0.00     0.131 A 
HETATM   12  N2  UNL     1      22.645  -1.380  55.497  1.00  0.00    -0.224 NA
HETATM   13  C17 UNL     1      23.952  -1.446  55.653  1.00  0.00     0.235 A 
HETATM   14  N3  UNL     1      24.746  -0.886  54.750  1.00  0.00    -0.242 NA
BRANCH  11  15
HETATM   15  N1  UNL     1      20.632  -0.695  54.289  1.00  0.00    -0.341 N 
HETATM   16  H11 UNL     1      20.009  -1.222  54.973  1.00  0.00     0.167 HD
BRANCH  15  17
HETATM   17  C11 UNL     1      19.930   0.005  53.297  1.00  0.00     0.035 A 
HETATM   18  C12 UNL     1      18.942  -0.608  52.524  1.00  0.00     0.029 A 
HETATM   19  C13 UNL     1      18.234   0.032  51.552  1.00  0.00     0.004 A 
HETATM   20  C14 UNL     1      18.462   1.362  51.272  1.00  0.00     0.024 A 
HETATM   21  C15 UNL     1      19.427   2.025  52.002  1.00  0.00     0.036 A 
HETATM   22 CL1  UNL     1      19.726   3.717  51.655  1.00  0.00    -0.084 Cl
HETATM   23  C16 UNL     1      20.106   1.318  52.970  1.00  0.00     0.053 A 
ENDBRANCH  15  17
ENDBRANCH  11  15
ENDBRANCH   8   9
ENDBRANCH   5   6
ENDBRANCH   4   5
ENDBRANCH   3   4
TORSDOF 6
ENDMDL
MODEL 3
REMARK VINA RESULT:      -7.1      4.389      8.763
REMARK  6 active torsions:
REMARK  status: ('A' for Active; 'I' for Inactive)
REMARK    1  A    between atoms: C3_3  and  O1_4 
REMARK    2  A    between atoms: O1_4  and  C4_5 
REMARK    3  A    between atoms: C4_5  and  C5_6 
REMARK    4  A    between atoms: C7_8  and  C8_9 
REMARK    5  A    between atoms: C10_11  and  N1_12 
REMARK    6  A    between atoms: N1_12  and  C11_13 
ROOT
HETATM    1  C1  UNL     1      29.638  -1.003  53.708  1.00  0.00     0.014 C 
HETATM    2  C2  UNL     1      28.586  -1.400  53.273  1.00  0.00    -0.091 C 
HETATM    3  C3  UNL     1      27.278  -1.880  52.715  1.00  0.00     0.260 C 
ENDROOT
BRANCH   3   4
HETATM    4  O1  UNL     1      26.748  -0.827  52.053  1.00  0.00    -0.375 OA
BRANCH   4   5
HETATM    5  C4  UNL     1      26.198   0.215  52.706  1.00  0.00     0.202 C 
BRANCH   5   6
HETATM    6  C5  UNL     1      26.603   1.576  52.269  1.00  0.00    -0.058 C 
HETATM    7  C6  UNL     1      27.764   2.217  52.931  1.00  0.00     0.046 C 
HETATM    8  C7  UNL     1      25.937   2.197  51.275  1.00  0.00     0.036 C 
BRANCH   8   9
HETATM    9  C8  UNL     1      25.941   3.449  50.528  1.00  0.00     0.062 A 
HETATM   10  C9  UNL     1      26.893   3.892  49.650  1.00  0.00     0.082 A 
HETATM   11  C10 UNL     1      26.861   5.090  49.001  1.00  0.00     0.131 A 
HETATM   12  N2  UNL     1      25.800   5.833  49.287  1.00  0.00    -0.224 NA
HETATM   13  C17 UNL     1      24.839   5.484  50.118  1.00  0.00     0.235 A 
HETATM   14  N3  UNL     1      24.903   4.310  50.733  1.00  0.00    -0.242 NA
BRANCH  11  15
HETATM   15  N1  UNL     1      27.909   5.439  48.113  1.00  0.00    -0.341 N 
HETATM   16  H11 UNL     1      27.887   5.012  47.138  1.00  0.00     0.167 HD
BRANCH  15  17
HETATM   17  C11 UNL     1      28.999   6.290  48.342  1.00  0.00     0.035 A 
HETATM   18  C12 UNL     1      30.311   5.811  48.378  1.00  0.00     0.029 A 
HETATM   19  C13 UNL     1      31.400   6.599  48.595  1.00  0.00     0.004 A 
HETATM   20  C14 UNL     1      31.261   7.956  48.796  1.00  0.00     0.024 A 
HETATM   21  C15 UNL     1      29.990   8.491  48.772  1.00  0.00     0.036 A 
HETATM   22 CL1  UNL     1      29.801  10.215  49.027  1.00  0.00    -0.084 Cl
HETATM   23  C16 UNL     1      28.933   7.637  48.548  1.00  0.00     0.053 A 
ENDBRANCH  15  17
ENDBRANCH  11  15
ENDBRANCH   8   9
ENDBRANCH   5   6
ENDBRANCH   4   5
ENDBRANCH   3   4
TORSDOF 6
ENDMDL
MODEL 4
REMARK VINA RESULT:      -6.9      3.497      5.825
REMARK  6 active torsions:
REMARK  status: ('A' for Active; 'I' for Inactive)
REMARK    1  A    between atoms: C3_3  and  O1_4 
REMARK    2  A    between atoms: O1_4  and  C4_5 
REMARK    3  A    between atoms: C4_5  and  C5_6 
REMARK    4  A    between atoms: C7_8  and  C8_9 
REMARK    5  A    between atoms: C10_11  and  N1_12 
REMARK    6  A    between atoms: N1_12  and  C11_13 
ROOT
HETATM    1  C1  UNL     1      26.962   2.528  51.793  1.00  0.00     0.014 C 
HETATM    2  C2  UNL     1      27.774   2.346  52.665  1.00  0.00    -0.091 C 
HETATM    3  C3  UNL     1      28.774   2.100  53.756  1.00  0.00     0.260 C 
ENDROOT
BRANCH   3   4
HETATM    4  O1  UNL     1      28.142   1.337  54.676  1.00  0.00    -0.375 OA
BRANCH   4   5
HETATM    5  C4  UNL     1      28.030   0.002  54.531  1.00  0.00     0.202 C 
BRANCH   5   6
HETATM    6  C5  UNL     1      26.810  -0.504  53.852  1.00  0.00    -0.058 C 
HETATM    7  C6  UNL     1      26.968  -1.310  52.619  1.00  0.00     0.046 C 
HETATM    8  C7  UNL     1      25.590  -0.249  54.367  1.00  0.00     0.036 C 
BRANCH   8   9
HETATM    9  C8  UNL     1      24.180  -0.505  54.099  1.00  0.00     0.062 A 
HETATM   10  C9  UNL     1      23.463  -0.143  52.990  1.00  0.00     0.082 A 
HETATM   11  C10 UNL     1      22.135  -0.382  52.806  1.00  0.00     0.131 A 
HETATM   12  N2  UNL     1      21.553  -1.016  53.817  1.00  0.00    -0.224 NA
HETATM   13  C17 UNL     1      22.166  -1.398  54.918  1.00  0.00     0.235 A 
HETATM   14  N3  UNL     1      23.462  -1.149  55.063  1.00  0.00    -0.242 NA
BRANCH  11  15
HETATM   15  N1  UNL     1      21.501   0.042  51.611  1.00  0.00    -0.341 N 
HETATM   16  H11 UNL     1      21.622  -0.571  50.749  1.00  0.00     0.167 HD
BRANCH  15  17
HETATM   17  C11 UNL     1      20.716   1.183  51.398  1.00  0.00     0.035 A 
HETATM   18  C12 UNL     1      20.680   2.233  52.319  1.00  0.00     0.029 A 
HETATM   19  C13 UNL     1      19.935   3.361  52.155  1.00  0.00     0.004 A 
HETATM   20  C14 UNL     1      19.152   3.532  51.033  1.00  0.00     0.024 A 
HETATM   21  C15 UNL     1      19.144   2.530  50.085  1.00  0.00     0.036 A 
HETATM   22 CL1  UNL     1      18.151   2.737  48.655  1.00  0.00    -0.084 Cl
HETATM   23  C16 UNL     1      19.920   1.416  50.315  1.00  0.00     0.053 A 
ENDBRANCH  15  17
ENDBRANCH  11  15
ENDBRANCH   8   9
ENDBRANCH   5   6
ENDBRANCH   4   5
ENDBRANCH   3   4
TORSDOF 6
ENDMDL
MODEL 5
REMARK VINA RESULT:      -6.9      3.341      4.706
REMARK  6 active torsions:
REMARK  status: ('A' for Active; 'I' for Inactive)
REMARK    1  A    between atoms: C3_3  and  O1_4 
REMARK    2  A    between atoms: O1_4  and  C4_5 
REMARK    3  A    between atoms: C4_5  and  C5_6 
REMARK    4  A    between atoms: C7_8  and  C8_9 
REMARK    5  A    between atoms: C10_11  and  N1_12 
REMARK    6  A    between atoms: N1_12  and  C11_13 
ROOT
HETATM    1  C1  UNL     1      22.853   7.822  50.487  1.00  0.00     0.014 C 
HETATM    2  C2  UNL     1      24.029   7.721  50.241  1.00  0.00    -0.091 C 
HETATM    3  C3  UNL     1      25.487   7.590  49.914  1.00  0.00     0.260 C 
ENDROOT
BRANCH   3   4
HETATM    4  O1  UNL     1      25.566   6.674  48.923  1.00  0.00    -0.375 OA
BRANCH   4   5
HETATM    5  C4  UNL     1      26.353   5.586  49.027  1.00  0.00     0.202 C 
BRANCH   5   6
HETATM    6  C5  UNL     1      25.692   4.306  49.387  1.00  0.00    -0.058 C 
HETATM    7  C6  UNL     1      26.515   3.225  49.980  1.00  0.00     0.046 C 
HETATM    8  C7  UNL     1      24.366   4.148  49.197  1.00  0.00     0.036 C 
BRANCH   8   9
HETATM    9  C8  UNL     1      23.314   3.155  49.375  1.00  0.00     0.062 A 
HETATM   10  C9  UNL     1      22.738   2.753  50.550  1.00  0.00     0.082 A 
HETATM   11  C10 UNL     1      21.776   1.795  50.661  1.00  0.00     0.131 A 
HETATM   12  N2  UNL     1      21.418   1.250  49.506  1.00  0.00    -0.224 NA
HETATM   13  C17 UNL     1      21.920   1.576  48.332  1.00  0.00     0.235 A 
HETATM   14  N3  UNL     1      22.856   2.515  48.261  1.00  0.00    -0.242 NA
BRANCH  11  15
HETATM   15  N1  UNL     1      21.254   1.464  51.937  1.00  0.00    -0.341 N 
HETATM   16  H11 UNL     1      20.343   1.932  52.229  1.00  0.00     0.167 HD
BRANCH  15  17
HETATM   17  C11 UNL     1      21.780   0.584  52.893  1.00  0.00     0.035 A 
HETATM   18  C12 UNL     1      20.956  -0.136  53.761  1.00  0.00     0.029 A 
HETATM   19  C13 UNL     1      21.421  -1.003  54.703  1.00  0.00     0.004 A 
HETATM   20  C14 UNL     1      22.773  -1.222  54.855  1.00  0.00     0.024 A 
HETATM   21  C15 UNL     1      23.640  -0.539  54.027  1.00  0.00     0.036 A 
HETATM   22 CL1  UNL     1      25.363  -0.809  54.211  1.00  0.00    -0.084 Cl
HETATM   23  C16 UNL     1      23.103   0.322  53.096  1.00  0.00     0.053 A 
ENDBRANCH  15  17
ENDBRANCH  11  15
ENDBRANCH   8   9
ENDBRANCH   5   6
ENDBRANCH   4   5
ENDBRANCH   3   4
TORSDOF 6
ENDMDL
MODEL 6
REMARK VINA RESULT:      -6.7      3.234      4.825
REMARK  6 active torsions:
REMARK  status: ('A' for Active; 'I' for Inactive)
REMARK    1  A    between atoms: C3_3  and  O1_4 
REMARK    2  A    between atoms: O1_4  and  C4_5 
REMARK    3  A    between atoms: C4_5  and  C5_6 
REMARK    4  A    between atoms: C7_8  and  C8_9 
REMARK    5  A    between atoms: C10_11  and  N1_12 
REMARK    6  A    between atoms: N1_12  and  C11_13 
ROOT
HETATM    1  C1  UNL     1      22.847   7.961  50.437  1.00  0.00     0.014 C 
HETATM    2  C2  UNL     1      23.964   8.181  50.039  1.00  0.00    -0.091 C 
HETATM    3  C3  UNL     1      25.347   8.449  49.525  1.00  0.00     0.260 C 
ENDROOT
BRANCH   3   4
HETATM    4  O1  UNL     1      25.495   7.668  48.431  1.00  0.00    -0.375 OA
BRANCH   4   5
HETATM    5  C4  UNL     1      26.570   6.871  48.271  1.00  0.00     0.202 C 
BRANCH   5   6
HETATM    6  C5  UNL     1      26.485   5.501  48.840  1.00  0.00    -0.058 C 
HETATM    7  C6  UNL     1      27.686   4.634  48.784  1.00  0.00     0.046 C 
HETATM    8  C7  UNL     1      25.342   5.073  49.415  1.00  0.00     0.036 C 
BRANCH   8   9
HETATM    9  C8  UNL     1      24.786   3.899  50.075  1.00  0.00     0.062 A 
HETATM   10  C9  UNL     1      25.294   3.234  51.159  1.00  0.00     0.082 A 
HETATM   11  C10 UNL     1      24.747   2.118  51.718  1.00  0.00     0.131 A 
HETATM   12  N2  UNL     1      23.641   1.697  51.117  1.00  0.00    -0.224 NA
HETATM   13  C17 UNL     1      23.086   2.276  50.072  1.00  0.00     0.235 A 
HETATM   14  N3  UNL     1      23.647   3.362  49.553  1.00  0.00    -0.242 NA
BRANCH  11  15
HETATM   15  N1  UNL     1      25.365   1.517  52.843  1.00  0.00    -0.341 N 
HETATM   16  H11 UNL     1      25.115   1.902  53.803  1.00  0.00     0.167 HD
BRANCH  15  17
HETATM   17  C11 UNL     1      26.285   0.459  52.870  1.00  0.00     0.035 A 
HETATM   18  C12 UNL     1      25.898  -0.858  52.608  1.00  0.00     0.029 A 
HETATM   19  C13 UNL     1      26.755  -1.916  52.621  1.00  0.00     0.004 A 
HETATM   20  C14 UNL     1      28.093  -1.738  52.902  1.00  0.00     0.024 A 
HETATM   21  C15 UNL     1      28.537  -0.460  53.170  1.00  0.00     0.036 A 
HETATM   22 CL1  UNL     1      30.237  -0.221  53.528  1.00  0.00    -0.084 Cl
HETATM   23  C16 UNL     1      27.618   0.565  53.140  1.00  0.00     0.053 A 
ENDBRANCH  15  17
ENDBRANCH  11  15
ENDBRANCH   8   9
ENDBRANCH   5   6
ENDBRANCH   4   5
ENDBRANCH   3   4
TORSDOF 6
ENDMDL
MODEL 7
REMARK VINA RESULT:      -6.6      3.828      7.749
REMARK  6 active torsions:
REMARK  status: ('A' for Active; 'I' for Inactive)
REMARK    1  A    between atoms: C3_3  and  O1_4 
REMARK    2  A    between atoms: O1_4  and  C4_5 
REMARK    3  A    between atoms: C4_5  and  C5_6 
REMARK    4  A    between atoms: C7_8  and  C8_9 
REMARK    5  A    between atoms: C10_11  and  N1_12 
REMARK    6  A    between atoms: N1_12  and  C11_13 
ROOT
HETATM    1  C1  UNL     1      28.592   0.306  53.179  1.00  0.00     0.014 C 
HETATM    2  C2  UNL     1      27.590  -0.365  53.158  1.00  0.00    -0.091 C 
HETATM    3  C3  UNL     1      26.336  -1.188  53.150  1.00  0.00     0.260 C 
ENDROOT
BRANCH   3   4
HETATM    4  O1  UNL     1      25.851  -1.141  54.411  1.00  0.00    -0.375 OA
BRANCH   4   5
HETATM    5  C4  UNL     1      24.562  -0.841  54.662  1.00  0.00     0.202 C 
BRANCH   5   6
HETATM    6  C5  UNL     1      23.810  -0.141  53.589  1.00  0.00    -0.058 C 
HETATM    7  C6  UNL     1      22.626  -0.811  53.001  1.00  0.00     0.046 C 
HETATM    8  C7  UNL     1      24.191   1.087  53.182  1.00  0.00     0.036 C 
BRANCH   8   9
HETATM    9  C8  UNL     1      23.812   2.124  52.231  1.00  0.00     0.062 A 
HETATM   10  C9  UNL     1      24.578   2.656  51.229  1.00  0.00     0.082 A 
HETATM   11  C10 UNL     1      24.182   3.650  50.386  1.00  0.00     0.131 A 
HETATM   12  N2  UNL     1      22.950   4.091  50.607  1.00  0.00    -0.224 NA
HETATM   13  C17 UNL     1      22.147   3.636  51.547  1.00  0.00     0.235 A 
HETATM   14  N3  UNL     1      22.566   2.666  52.351  1.00  0.00    -0.242 NA
BRANCH  11  15
HETATM   15  N1  UNL     1      25.068   4.120  49.384  1.00  0.00    -0.341 N 
HETATM   16  H11 UNL     1      25.240   3.486  48.546  1.00  0.00     0.167 HD
BRANCH  15  17
HETATM   17  C11 UNL     1      25.768   5.334  49.338  1.00  0.00     0.035 A 
HETATM   18  C12 UNL     1      25.375   6.438  50.098  1.00  0.00     0.029 A 
HETATM   19  C13 UNL     1      26.024   7.635  50.088  1.00  0.00     0.004 A 
HETATM   20  C14 UNL     1      27.141   7.826  49.303  1.00  0.00     0.024 A 
HETATM   21  C15 UNL     1      27.580   6.772  48.529  1.00  0.00     0.036 A 
HETATM   22 CL1  UNL     1      29.000   7.003  47.526  1.00  0.00    -0.084 Cl
HETATM   23  C16 UNL     1      26.877   5.590  48.586  1.00  0.00     0.053 A 
ENDBRANCH  15  17
ENDBRANCH  11  15
ENDBRANCH   8   9
ENDBRANCH   5   6
ENDBRANCH   4   5
ENDBRANCH   3   4
TORSDOF 6
ENDMDL
MODEL 8
REMARK VINA RESULT:      -6.5      3.791      5.778
REMARK  6 active torsions:
REMARK  status: ('A' for Active; 'I' for Inactive)
REMARK    1  A    between atoms: C3_3  and  O1_4 
REMARK    2  A    between atoms: O1_4  and  C4_5 
REMARK    3  A    between atoms: C4_5  and  C5_6 
REMARK    4  A    between atoms: C7_8  and  C8_9 
REMARK    5  A    between atoms: C10_11  and  N1_12 
REMARK    6  A    between atoms: N1_12  and  C11_13 
ROOT
HETATM    1  C1  UNL     1      19.214   3.627  46.113  1.00  0.00     0.014 C 
HETATM    2  C2  UNL     1      20.365   3.969  46.225  1.00  0.00    -0.091 C 
HETATM    3  C3  UNL     1      21.802   4.374  46.369  1.00  0.00     0.260 C 
ENDROOT
BRANCH   3   4
HETATM    4  O1  UNL     1      22.377   3.434  47.151  1.00  0.00    -0.375 OA
BRANCH   4   5
HETATM    5  C4  UNL     1      22.361   3.525  48.495  1.00  0.00     0.202 C 
BRANCH   5   6
HETATM    6  C5  UNL     1      22.199   2.260  49.256  1.00  0.00    -0.058 C 
HETATM    7  C6  UNL     1      21.584   1.096  48.576  1.00  0.00     0.046 C 
HETATM    8  C7  UNL     1      22.625   2.176  50.533  1.00  0.00     0.036 C 
BRANCH   8   9
HETATM    9  C8  UNL     1      22.693   1.225  51.636  1.00  0.00     0.062 A 
HETATM   10  C9  UNL     1      23.784   0.916  52.404  1.00  0.00     0.082 A 
HETATM   11  C10 UNL     1      23.798  -0.007  53.406  1.00  0.00     0.131 A 
HETATM   12  N2  UNL     1      22.634  -0.615  53.599  1.00  0.00    -0.224 NA
HETATM   13  C17 UNL     1      21.538  -0.378  52.908  1.00  0.00     0.235 A 
HETATM   14  N3  UNL     1      21.561   0.528  51.939  1.00  0.00    -0.242 NA
BRANCH  11  15
HETATM   15  N1  UNL     1      24.992  -0.241  54.132  1.00  0.00    -0.341 N 
HETATM   16  H11 UNL     1      24.947  -0.937  54.937  1.00  0.00     0.167 HD
BRANCH  15  17
HETATM   17  C11 UNL     1      26.258   0.329  53.937  1.00  0.00     0.035 A 
HETATM   18  C12 UNL     1      26.432   1.711  53.820  1.00  0.00     0.029 A 
HETATM   19  C13 UNL     1      27.640   2.310  53.631  1.00  0.00     0.004 A 
HETATM   20  C14 UNL     1      28.793   1.559  53.543  1.00  0.00     0.024 A 
HETATM   21  C15 UNL     1      28.688   0.188  53.651  1.00  0.00     0.036 A 
HETATM   22 CL1  UNL     1      30.149  -0.776  53.541  1.00  0.00    -0.084 Cl
HETATM   23  C16 UNL     1      27.436  -0.352  53.841  1.00  0.00     0.053 A 
ENDBRANCH  15  17
ENDBRANCH  11  15
ENDBRANCH   8   9
ENDBRANCH   5   6
ENDBRANCH   4   5
ENDBRANCH   3   4
TORSDOF 6
ENDMDL
MODEL 9
REMARK VINA RESULT:      -6.5      2.915      4.637
REMARK  6 active torsions:
REMARK  status: ('A' for Active; 'I' for Inactive)
REMARK    1  A    between atoms: C3_3  and  O1_4 
REMARK    2  A    between atoms: O1_4  and  C4_5 
REMARK    3  A    between atoms: C4_5  and  C5_6 
REMARK    4  A    between atoms: C7_8  and  C8_9 
REMARK    5  A    between atoms: C10_11  and  N1_12 
REMARK    6  A    between atoms: N1_12  and  C11_13 
ROOT
HETATM    1  C1  UNL     1      25.300   8.631  45.395  1.00  0.00     0.014 C 
HETATM    2  C2  UNL     1      25.922   8.249  46.355  1.00  0.00    -0.091 C 
HETATM    3  C3  UNL     1      26.678   7.763  47.556  1.00  0.00     0.260 C 
ENDROOT
BRANCH   3   4
HETATM    4  O1  UNL     1      25.753   7.551  48.518  1.00  0.00    -0.375 OA
BRANCH   4   5
HETATM    5  C4  UNL     1      24.915   6.497  48.474  1.00  0.00     0.202 C 
BRANCH   5   6
HETATM    6  C5  UNL     1      25.342   5.264  49.183  1.00  0.00    -0.058 C 
HETATM    7  C6  UNL     1      26.732   4.785  48.998  1.00  0.00     0.046 C 
HETATM    8  C7  UNL     1      24.482   4.614  49.994  1.00  0.00     0.036 C 
BRANCH   8   9
HETATM    9  C8  UNL     1      24.419   3.442  50.858  1.00  0.00     0.062 A 
HETATM   10  C9  UNL     1      25.270   3.111  51.878  1.00  0.00     0.082 A 
HETATM   11  C10 UNL     1      25.181   1.983  52.636  1.00  0.00     0.131 A 
HETATM   12  N2  UNL     1      24.171   1.187  52.307  1.00  0.00    -0.224 NA
HETATM   13  C17 UNL     1      23.308   1.428  51.342  1.00  0.00     0.235 A 
HETATM   14  N3  UNL     1      23.425   2.538  50.624  1.00  0.00    -0.242 NA
BRANCH  11  15
HETATM   15  N1  UNL     1      26.125   1.750  53.668  1.00  0.00    -0.341 N 
HETATM   16  H11 UNL     1      25.960   2.235  54.601  1.00  0.00     0.167 HD
BRANCH  15  17
HETATM   17  C11 UNL     1      27.275   0.949  53.633  1.00  0.00     0.035 A 
HETATM   18  C12 UNL     1      28.541   1.467  53.918  1.00  0.00     0.029 A 
HETATM   19  C13 UNL     1      29.684   0.729  53.899  1.00  0.00     0.004 A 
HETATM   20  C14 UNL     1      29.652  -0.614  53.588  1.00  0.00     0.024 A 
HETATM   21  C15 UNL     1      28.431  -1.186  53.297  1.00  0.00     0.036 A 
HETATM   22 CL1  UNL     1      28.378  -2.893  52.900  1.00  0.00    -0.084 Cl
HETATM   23  C16 UNL     1      27.314  -0.381  53.334  1.00  0.00     0.053 A 
ENDBRANCH  15  17
ENDBRANCH  11  15
ENDBRANCH   8   9
ENDBRANCH   5   6
ENDBRANCH   4   5
ENDBRANCH   3   4
TORSDOF 6
ENDMDL
