MODEL 1
REMARK VINA RESULT:      -6.4      0.000      0.000
REMARK  8 active torsions:
REMARK  status: ('A' for Active; 'I' for Inactive)
REMARK    1  A    between atoms: C8_10  and  N3_11 
REMARK    2  A    between atoms: N3_11  and  C9_12 
REMARK    3  A    between atoms: C9_12  and  C10_13 
REMARK    4  A    between atoms: C13_17  and  N4_18 
REMARK       I    between atoms: N4_18  and  C14_19 
REMARK    5  A    between atoms: C14_19  and  C15_21 
REMARK    6  A    between atoms: C15_21  and  S1_22 
REMARK    7  A    between atoms: S1_22  and  C16_23 
REMARK    8  A    between atoms: C16_23  and  N5_24 
ROOT
HETATM    1  C1  UNL     1      27.501  -0.428  52.971  1.00  0.00     0.050 C 
HETATM    2  C2  UNL     1      26.369   0.225  52.327  1.00  0.00     0.094 C 
HETATM    3  C3  UNL     1      25.337  -0.187  53.104  1.00  0.00     0.066 C 
HETATM    4  C4  UNL     1      23.967  -0.375  53.647  1.00  0.00     0.243 C 
HETATM    5  N1  UNL     1      22.823   0.112  53.171  1.00  0.00     0.033 NA
HETATM    6  C5  UNL     1      22.874   0.907  52.001  1.00  0.00     0.711 C 
HETATM    7  C6  UNL     1      22.419   1.438  50.901  1.00  0.00     0.086 C 
HETATM    8  C7  UNL     1      21.053   1.110  50.497  1.00  0.00     0.100 C 
HETATM    9  N2  UNL     1      19.940   0.841  50.188  1.00  0.00    -0.192 NA
HETATM   10  C8  UNL     1      23.142   2.348  49.986  1.00  0.00     0.045 C 
HETATM   11  C12 UNL     1      24.376   2.870  49.996  1.00  0.00     0.030 C 
HETATM   12  C13 UNL     1      25.741   3.214  50.361  1.00  0.00     0.133 C 
HETATM   13  C19 UNL     1      26.351   2.420  51.483  1.00  0.00     0.198 C 
HETATM   14  O2  UNL     1      26.537   1.044  51.185  1.00  0.00    -0.375 OA
ENDROOT
BRANCH  10  15
HETATM   15  N3  UNL     1      22.319   2.707  48.846  1.00  0.00    -0.386 N 
HETATM   16  H7  UNL     1      22.429   1.663  48.614  1.00  0.00     0.160 HD
BRANCH  15  17
HETATM   17  C9  UNL     1      21.513   3.093  47.742  1.00  0.00     0.148 C 
BRANCH  17  18
HETATM   18  C10 UNL     1      22.165   3.271  46.434  1.00  0.00     0.004 C 
HETATM   19  C11 UNL     1      21.699   4.070  45.460  1.00  0.00     0.082 C 
HETATM   20 CL1  UNL     1      20.217   4.934  45.812  1.00  0.00    -0.097 Cl
ENDBRANCH  17  18
ENDBRANCH  15  17
ENDBRANCH  10  15
BRANCH  12  21
HETATM   21  N4  UNL     1      25.689   4.622  50.847  1.00  0.00    -0.350 N 
HETATM   22  C14 UNL     1      25.552   5.624  49.846  1.00  0.00     0.227 C 
HETATM   23  O1  UNL     1      25.465   5.536  48.601  1.00  0.00    -0.273 OA
HETATM   24  H14 UNL     1      25.747   4.905  51.836  1.00  0.00     0.163 HD
BRANCH  22  25
HETATM   25  C15 UNL     1      25.482   7.095  50.160  1.00  0.00     0.178 C 
BRANCH  25  26
HETATM   26  S1  UNL     1      23.830   7.440  50.816  1.00  0.00    -0.130 SA
BRANCH  26  27
HETATM   27  C16 UNL     1      22.608   6.277  50.141  1.00  0.00     0.345 C 
BRANCH  27  28
HETATM   28  N5  UNL     1      21.759   5.841  51.211  1.00  0.00     0.088 N 
HETATM   29  C17 UNL     1      20.589   5.131  50.765  1.00  0.00     0.310 C 
HETATM   30  C18 UNL     1      22.474   5.121  52.240  1.00  0.00     0.310 C 
ENDBRANCH  27  28
ENDBRANCH  26  27
ENDBRANCH  25  26
ENDBRANCH  22  25
ENDBRANCH  12  21
TORSDOF 8
ENDMDL
MODEL 2
REMARK VINA RESULT:      -6.3      2.245      3.526
REMARK  8 active torsions:
REMARK  status: ('A' for Active; 'I' for Inactive)
REMARK    1  A    between atoms: C8_10  and  N3_11 
REMARK    2  A    between atoms: N3_11  and  C9_12 
REMARK    3  A    between atoms: C9_12  and  C10_13 
REMARK    4  A    between atoms: C13_17  and  N4_18 
REMARK       I    between atoms: N4_18  and  C14_19 
REMARK    5  A    between atoms: C14_19  and  C15_21 
REMARK    6  A    between atoms: C15_21  and  S1_22 
REMARK    7  A    between atoms: S1_22  and  C16_23 
REMARK    8  A    between atoms: C16_23  and  N5_24 
ROOT
HETATM    1  C1  UNL     1      29.131   0.559  53.073  1.00  0.00     0.050 C 
HETATM    2  C2  UNL     1      27.676   0.575  52.997  1.00  0.00     0.094 C 
HETATM    3  C3  UNL     1      27.334  -0.024  54.164  1.00  0.00     0.066 C 
HETATM    4  C4  UNL     1      26.529  -0.602  55.271  1.00  0.00     0.243 C 
HETATM    5  N1  UNL     1      25.204  -0.703  55.353  1.00  0.00     0.033 NA
HETATM    6  C5  UNL     1      24.431  -0.217  54.272  1.00  0.00     0.711 C 
HETATM    7  C6  UNL     1      23.393  -0.148  53.485  1.00  0.00     0.086 C 
HETATM    8  C7  UNL     1      22.274  -1.051  53.749  1.00  0.00     0.100 C 
HETATM    9  N2  UNL     1      21.372  -1.785  53.981  1.00  0.00    -0.192 NA
HETATM   10  C8  UNL     1      23.213   0.751  52.326  1.00  0.00     0.045 C 
HETATM   11  C12 UNL     1      23.983   1.695  51.767  1.00  0.00     0.030 C 
HETATM   12  C13 UNL     1      25.078   2.605  51.470  1.00  0.00     0.133 C 
HETATM   13  C19 UNL     1      26.365   2.363  52.210  1.00  0.00     0.198 C 
HETATM   14  O2  UNL     1      26.998   1.133  51.887  1.00  0.00    -0.375 OA
ENDROOT
BRANCH  10  15
HETATM   15  N3  UNL     1      21.938   0.517  51.674  1.00  0.00    -0.386 N 
HETATM   16  H7  UNL     1      21.633   1.351  52.279  1.00  0.00     0.160 HD
BRANCH  15  17
HETATM   17  C9  UNL     1      20.705   0.260  51.017  1.00  0.00     0.148 C 
BRANCH  17  18
HETATM   18  C10 UNL     1      20.006   1.390  50.382  1.00  0.00     0.004 C 
HETATM   19  C11 UNL     1      20.355   1.928  49.202  1.00  0.00     0.082 C 
HETATM   20 CL1  UNL     1      21.737   1.207  48.403  1.00  0.00    -0.097 Cl
ENDBRANCH  17  18
ENDBRANCH  15  17
ENDBRANCH  10  15
BRANCH  12  21
HETATM   21  N4  UNL     1      24.615   3.954  51.900  1.00  0.00    -0.350 N 
HETATM   22  C14 UNL     1      23.780   4.650  50.982  1.00  0.00     0.227 C 
HETATM   23  O1  UNL     1      23.354   4.328  49.851  1.00  0.00    -0.273 OA
HETATM   24  H14 UNL     1      24.857   4.400  52.797  1.00  0.00     0.163 HD
BRANCH  22  25
HETATM   25  C15 UNL     1      23.221   6.022  51.256  1.00  0.00     0.178 C 
BRANCH  25  26
HETATM   26  S1  UNL     1      23.966   7.167  50.068  1.00  0.00    -0.130 SA
BRANCH  26  27
HETATM   27  C16 UNL     1      25.774   6.992  50.044  1.00  0.00     0.345 C 
BRANCH  27  28
HETATM   28  N5  UNL     1      26.156   6.427  48.783  1.00  0.00     0.088 N 
HETATM   29  C17 UNL     1      26.974   7.303  47.985  1.00  0.00     0.310 C 
HETATM   30  C18 UNL     1      26.733   5.107  48.909  1.00  0.00     0.310 C 
ENDBRANCH  27  28
ENDBRANCH  26  27
ENDBRANCH  25  26
ENDBRANCH  22  25
ENDBRANCH  12  21
TORSDOF 8
ENDMDL
MODEL 3
REMARK VINA RESULT:      -6.3      3.680      6.287
REMARK  8 active torsions:
REMARK  status: ('A' for Active; 'I' for Inactive)
REMARK    1  A    between atoms: C8_10  and  N3_11 
REMARK    2  A    between atoms: N3_11  and  C9_12 
REMARK    3  A    between atoms: C9_12  and  C10_13 
REMARK    4  A    between atoms: C13_17  and  N4_18 
REMARK       I    between atoms: N4_18  and  C14_19 
REMARK    5  A    between atoms: C14_19  and  C15_21 
REMARK    6  A    between atoms: C15_21  and  S1_22 
REMARK    7  A    between atoms: S1_22  and  C16_23 
REMARK    8  A    between atoms: C16_23  and  N5_24 
ROOT
HETATM    1  C1  UNL     1      18.663   3.515  51.870  1.00  0.00     0.050 C 
HETATM    2  C2  UNL     1      20.067   3.152  52.005  1.00  0.00     0.094 C 
HETATM    3  C3  UNL     1      20.014   1.803  51.885  1.00  0.00     0.066 C 
HETATM    4  C4  UNL     1      20.418   0.375  51.815  1.00  0.00     0.243 C 
HETATM    5  N1  UNL     1      21.639  -0.138  51.951  1.00  0.00     0.033 NA
HETATM    6  C5  UNL     1      22.711   0.752  52.200  1.00  0.00     0.711 C 
HETATM    7  C6  UNL     1      23.880   1.114  52.652  1.00  0.00     0.086 C 
HETATM    8  C7  UNL     1      24.687   0.108  53.340  1.00  0.00     0.100 C 
HETATM    9  N2  UNL     1      25.333  -0.722  53.888  1.00  0.00    -0.192 NA
HETATM   10  C8  UNL     1      24.496   2.454  52.556  1.00  0.00     0.045 C 
HETATM   11  C12 UNL     1      24.091   3.615  52.022  1.00  0.00     0.030 C 
HETATM   12  C13 UNL     1      23.314   4.644  51.349  1.00  0.00     0.133 C 
HETATM   13  C19 UNL     1      21.880   4.307  51.048  1.00  0.00     0.198 C 
HETATM   14  O2  UNL     1      21.071   4.130  52.202  1.00  0.00    -0.375 OA
ENDROOT
BRANCH  10  15
HETATM   15  N3  UNL     1      25.794   2.482  53.203  1.00  0.00    -0.386 N 
HETATM   16  H7  UNL     1      25.813   3.482  52.811  1.00  0.00     0.160 HD
BRANCH  15  17
HETATM   17  C9  UNL     1      27.059   2.475  53.849  1.00  0.00     0.148 C 
BRANCH  17  18
HETATM   18  C10 UNL     1      28.227   2.007  53.083  1.00  0.00     0.004 C 
HETATM   19  C11 UNL     1      29.016   0.987  53.457  1.00  0.00     0.082 C 
HETATM   20 CL1  UNL     1      28.592   0.191  54.958  1.00  0.00    -0.097 Cl
ENDBRANCH  17  18
ENDBRANCH  15  17
ENDBRANCH  10  15
BRANCH  12  21
HETATM   21  N4  UNL     1      23.966   4.845  50.024  1.00  0.00    -0.350 N 
HETATM   22  C14 UNL     1      24.522   6.134  49.790  1.00  0.00     0.227 C 
HETATM   23  O1  UNL     1      24.563   7.155  50.512  1.00  0.00    -0.273 OA
HETATM   24  H14 UNL     1      24.036   4.127  49.289  1.00  0.00     0.163 HD
BRANCH  22  25
HETATM   25  C15 UNL     1      25.218   6.508  48.508  1.00  0.00     0.178 C 
BRANCH  25  26
HETATM   26  S1  UNL     1      26.998   6.296  48.766  1.00  0.00    -0.130 SA
BRANCH  26  27
HETATM   27  C16 UNL     1      27.915   7.753  48.187  1.00  0.00     0.345 C 
BRANCH  27  28
HETATM   28  N5  UNL     1      28.395   8.470  49.332  1.00  0.00     0.088 N 
HETATM   29  C17 UNL     1      29.567   9.262  49.066  1.00  0.00     0.310 C 
HETATM   30  C18 UNL     1      27.360   9.233  49.993  1.00  0.00     0.310 C 
ENDBRANCH  27  28
ENDBRANCH  26  27
ENDBRANCH  25  26
ENDBRANCH  22  25
ENDBRANCH  12  21
TORSDOF 8
ENDMDL
MODEL 4
REMARK VINA RESULT:      -6.2      1.949      3.168
REMARK  8 active torsions:
REMARK  status: ('A' for Active; 'I' for Inactive)
REMARK    1  A    between atoms: C8_10  and  N3_11 
REMARK    2  A    between atoms: N3_11  and  C9_12 
REMARK    3  A    between atoms: C9_12  and  C10_13 
REMARK    4  A    between atoms: C13_17  and  N4_18 
REMARK       I    between atoms: N4_18  and  C14_19 
REMARK    5  A    between atoms: C14_19  and  C15_21 
REMARK    6  A    between atoms: C15_21  and  S1_22 
REMARK    7  A    between atoms: S1_22  and  C16_23 
REMARK    8  A    between atoms: C16_23  and  N5_24 
ROOT
HETATM    1  C1  UNL     1      28.108  -0.758  53.082  1.00  0.00     0.050 C 
HETATM    2  C2  UNL     1      26.797  -0.233  52.724  1.00  0.00     0.094 C 
HETATM    3  C3  UNL     1      26.040  -0.654  53.766  1.00  0.00     0.066 C 
HETATM    4  C4  UNL     1      24.878  -0.893  54.661  1.00  0.00     0.243 C 
HETATM    5  N1  UNL     1      23.613  -0.521  54.477  1.00  0.00     0.033 NA
HETATM    6  C5  UNL     1      23.293   0.186  53.294  1.00  0.00     0.711 C 
HETATM    7  C6  UNL     1      22.525   0.602  52.324  1.00  0.00     0.086 C 
HETATM    8  C7  UNL     1      21.134   0.154  52.313  1.00  0.00     0.100 C 
HETATM    9  N2  UNL     1      20.006  -0.212  52.324  1.00  0.00    -0.192 NA
HETATM   10  C8  UNL     1      22.908   1.488  51.204  1.00  0.00     0.045 C 
HETATM   11  C12 UNL     1      24.054   2.091  50.860  1.00  0.00     0.030 C 
HETATM   12  C13 UNL     1      25.433   2.553  50.833  1.00  0.00     0.133 C 
HETATM   13  C19 UNL     1      26.377   1.888  51.796  1.00  0.00     0.198 C 
HETATM   14  O2  UNL     1      26.595   0.509  51.536  1.00  0.00    -0.375 OA
ENDROOT
BRANCH  10  15
HETATM   15  N3  UNL     1      21.791   1.705  50.303  1.00  0.00    -0.386 N 
HETATM   16  H7  UNL     1      22.016   2.738  50.496  1.00  0.00     0.160 HD
BRANCH  15  17
HETATM   17  C9  UNL     1      20.694   1.881  49.418  1.00  0.00     0.148 C 
BRANCH  17  18
HETATM   18  C10 UNL     1      20.407   3.240  48.928  1.00  0.00     0.004 C 
HETATM   19  C11 UNL     1      21.017   3.808  47.876  1.00  0.00     0.082 C 
HETATM   20 CL1  UNL     1      22.226   2.834  47.064  1.00  0.00    -0.097 Cl
ENDBRANCH  17  18
ENDBRANCH  15  17
ENDBRANCH  10  15
BRANCH  12  21
HETATM   21  N4  UNL     1      25.389   3.987  51.239  1.00  0.00    -0.350 N 
HETATM   22  C14 UNL     1      25.128   4.922  50.199  1.00  0.00     0.227 C 
HETATM   23  O1  UNL     1      24.923   4.756  48.976  1.00  0.00    -0.273 OA
HETATM   24  H14 UNL     1      25.535   4.330  52.199  1.00  0.00     0.163 HD
BRANCH  22  25
HETATM   25  C15 UNL     1      25.048   6.408  50.432  1.00  0.00     0.178 C 
BRANCH  25  26
HETATM   26  S1  UNL     1      25.615   7.233  48.923  1.00  0.00    -0.130 SA
BRANCH  26  27
HETATM   27  C16 UNL     1      27.430   7.264  48.844  1.00  0.00     0.345 C 
BRANCH  27  28
HETATM   28  N5  UNL     1      27.866   8.618  49.026  1.00  0.00     0.088 N 
HETATM   29  C17 UNL     1      27.352   9.234  50.221  1.00  0.00     0.310 C 
HETATM   30  C18 UNL     1      29.299   8.768  48.909  1.00  0.00     0.310 C 
ENDBRANCH  27  28
ENDBRANCH  26  27
ENDBRANCH  25  26
ENDBRANCH  22  25
ENDBRANCH  12  21
TORSDOF 8
ENDMDL
MODEL 5
REMARK VINA RESULT:      -6.2      2.031      2.458
REMARK  8 active torsions:
REMARK  status: ('A' for Active; 'I' for Inactive)
REMARK    1  A    between atoms: C8_10  and  N3_11 
REMARK    2  A    between atoms: N3_11  and  C9_12 
REMARK    3  A    between atoms: C9_12  and  C10_13 
REMARK    4  A    between atoms: C13_17  and  N4_18 
REMARK       I    between atoms: N4_18  and  C14_19 
REMARK    5  A    between atoms: C14_19  and  C15_21 
REMARK    6  A    between atoms: C15_21  and  S1_22 
REMARK    7  A    between atoms: S1_22  and  C16_23 
REMARK    8  A    between atoms: C16_23  and  N5_24 
ROOT
HETATM    1  C1  UNL     1      28.066  -0.599  53.076  1.00  0.00     0.050 C 
HETATM    2  C2  UNL     1      26.720  -0.141  52.758  1.00  0.00     0.094 C 
HETATM    3  C3  UNL     1      26.022  -0.573  53.837  1.00  0.00     0.066 C 
HETATM    4  C4  UNL     1      24.907  -0.846  54.780  1.00  0.00     0.243 C 
HETATM    5  N1  UNL     1      23.620  -0.535  54.637  1.00  0.00     0.033 NA
HETATM    6  C5  UNL     1      23.223   0.131  53.453  1.00  0.00     0.711 C 
HETATM    7  C6  UNL     1      22.402   0.491  52.506  1.00  0.00     0.086 C 
HETATM    8  C7  UNL     1      21.034  -0.020  52.557  1.00  0.00     0.100 C 
HETATM    9  N2  UNL     1      19.925  -0.437  52.619  1.00  0.00    -0.192 NA
HETATM   10  C8  UNL     1      22.701   1.368  51.354  1.00  0.00     0.045 C 
HETATM   11  C12 UNL     1      23.804   2.016  50.955  1.00  0.00     0.030 C 
HETATM   12  C13 UNL     1      25.159   2.538  50.866  1.00  0.00     0.133 C 
HETATM   13  C19 UNL     1      26.168   1.938  51.805  1.00  0.00     0.198 C 
HETATM   14  O2  UNL     1      26.439   0.564  51.564  1.00  0.00    -0.375 OA
ENDROOT
BRANCH  10  15
HETATM   15  N3  UNL     1      21.543   1.515  50.493  1.00  0.00    -0.386 N 
HETATM   16  H7  UNL     1      21.011   1.369  51.416  1.00  0.00     0.160 HD
BRANCH  15  17
HETATM   17  C9  UNL     1      20.431   1.663  49.621  1.00  0.00     0.148 C 
BRANCH  17  18
HETATM   18  C10 UNL     1      19.306   2.503  50.065  1.00  0.00     0.004 C 
HETATM   19  C11 UNL     1      18.061   2.048  50.278  1.00  0.00     0.082 C 
HETATM   20 CL1  UNL     1      17.803   0.339  49.994  1.00  0.00    -0.097 Cl
ENDBRANCH  17  18
ENDBRANCH  15  17
ENDBRANCH  10  15
BRANCH  12  21
HETATM   21  N4  UNL     1      25.065   3.977  51.244  1.00  0.00    -0.350 N 
HETATM   22  C14 UNL     1      25.287   4.914  50.197  1.00  0.00     0.227 C 
HETATM   23  O1  UNL     1      25.554   4.746  48.986  1.00  0.00    -0.273 OA
HETATM   24  H14 UNL     1      24.855   4.323  52.192  1.00  0.00     0.163 HD
BRANCH  22  25
HETATM   25  C15 UNL     1      25.228   6.405  50.402  1.00  0.00     0.178 C 
BRANCH  25  26
HETATM   26  S1  UNL     1      23.841   7.041  49.427  1.00  0.00    -0.130 SA
BRANCH  26  27
HETATM   27  C16 UNL     1      22.508   5.812  49.318  1.00  0.00     0.345 C 
BRANCH  27  28
HETATM   28  N5  UNL     1      21.560   6.080  50.359  1.00  0.00     0.088 N 
HETATM   29  C17 UNL     1      21.662   5.179  51.477  1.00  0.00     0.310 C 
HETATM   30  C18 UNL     1      21.556   7.465  50.775  1.00  0.00     0.310 C 
ENDBRANCH  27  28
ENDBRANCH  26  27
ENDBRANCH  25  26
ENDBRANCH  22  25
ENDBRANCH  12  21
TORSDOF 8
ENDMDL
MODEL 6
REMARK VINA RESULT:      -6.1      2.964      4.234
REMARK  8 active torsions:
REMARK  status: ('A' for Active; 'I' for Inactive)
REMARK    1  A    between atoms: C8_10  and  N3_11 
REMARK    2  A    between atoms: N3_11  and  C9_12 
REMARK    3  A    between atoms: C9_12  and  C10_13 
REMARK    4  A    between atoms: C13_17  and  N4_18 
REMARK       I    between atoms: N4_18  and  C14_19 
REMARK    5  A    between atoms: C14_19  and  C15_21 
REMARK    6  A    between atoms: C15_21  and  S1_22 
REMARK    7  A    between atoms: S1_22  and  C16_23 
REMARK    8  A    between atoms: C16_23  and  N5_24 
ROOT
HETATM    1  C1  UNL     1      26.404  -0.470  53.613  1.00  0.00     0.050 C 
HETATM    2  C2  UNL     1      24.989  -0.228  53.362  1.00  0.00     0.094 C 
HETATM    3  C3  UNL     1      24.416  -0.803  54.447  1.00  0.00     0.066 C 
HETATM    4  C4  UNL     1      23.400  -1.285  55.419  1.00  0.00     0.243 C 
HETATM    5  N1  UNL     1      22.075  -1.184  55.335  1.00  0.00     0.033 NA
HETATM    6  C5  UNL     1      21.527  -0.551  54.193  1.00  0.00     0.711 C 
HETATM    7  C6  UNL     1      20.619  -0.299  53.291  1.00  0.00     0.086 C 
HETATM    8  C7  UNL     1      19.355  -1.027  53.372  1.00  0.00     0.100 C 
HETATM    9  N2  UNL     1      18.331  -1.621  53.456  1.00  0.00    -0.192 NA
HETATM   10  C8  UNL     1      20.724   0.653  52.165  1.00  0.00     0.045 C 
HETATM   11  C12 UNL     1      21.690   1.484  51.752  1.00  0.00     0.030 C 
HETATM   12  C13 UNL     1      22.938   2.223  51.635  1.00  0.00     0.133 C 
HETATM   13  C19 UNL     1      24.069   1.764  52.512  1.00  0.00     0.198 C 
HETATM   14  O2  UNL     1      24.548   0.462  52.208  1.00  0.00    -0.375 OA
ENDROOT
BRANCH  10  15
HETATM   15  N3  UNL     1      19.522   0.638  51.353  1.00  0.00    -0.386 N 
HETATM   16  H7  UNL     1      19.702   1.696  51.313  1.00  0.00     0.160 HD
BRANCH  15  17
HETATM   17  C9  UNL     1      18.343   0.586  50.561  1.00  0.00     0.148 C 
BRANCH  17  18
HETATM   18  C10 UNL     1      17.130   1.242  51.078  1.00  0.00     0.004 C 
HETATM   19  C11 UNL     1      15.962   0.614  51.287  1.00  0.00     0.082 C 
HETATM   20 CL1  UNL     1      15.924  -1.095  50.905  1.00  0.00    -0.097 Cl
ENDBRANCH  17  18
ENDBRANCH  15  17
ENDBRANCH  10  15
BRANCH  12  21
HETATM   21  N4  UNL     1      22.629   3.614  52.073  1.00  0.00    -0.350 N 
HETATM   22  C14 UNL     1      22.098   4.479  51.076  1.00  0.00     0.227 C 
HETATM   23  O1  UNL     1      21.838   4.280  49.869  1.00  0.00    -0.273 OA
HETATM   24  H14 UNL     1      22.774   3.975  53.027  1.00  0.00     0.163 HD
BRANCH  22  25
HETATM   25  C15 UNL     1      21.729   5.915  51.346  1.00  0.00     0.178 C 
BRANCH  25  26
HETATM   26  S1  UNL     1      22.938   6.962  50.497  1.00  0.00    -0.130 SA
BRANCH  26  27
HETATM   27  C16 UNL     1      24.632   6.516  50.975  1.00  0.00     0.345 C 
BRANCH  27  28
HETATM   28  N5  UNL     1      25.293   5.960  49.831  1.00  0.00     0.088 N 
HETATM   29  C17 UNL     1      25.673   4.582  49.998  1.00  0.00     0.310 C 
HETATM   30  C18 UNL     1      24.568   6.180  48.600  1.00  0.00     0.310 C 
ENDBRANCH  27  28
ENDBRANCH  26  27
ENDBRANCH  25  26
ENDBRANCH  22  25
ENDBRANCH  12  21
TORSDOF 8
ENDMDL
MODEL 7
REMARK VINA RESULT:      -6.1      4.066      7.920
REMARK  8 active torsions:
REMARK  status: ('A' for Active; 'I' for Inactive)
REMARK    1  A    between atoms: C8_10  and  N3_11 
REMARK    2  A    between atoms: N3_11  and  C9_12 
REMARK    3  A    between atoms: C9_12  and  C10_13 
REMARK    4  A    between atoms: C13_17  and  N4_18 
REMARK       I    between atoms: N4_18  and  C14_19 
REMARK    5  A    between atoms: C14_19  and  C15_21 
REMARK    6  A    between atoms: C15_21  and  S1_22 
REMARK    7  A    between atoms: S1_22  and  C16_23 
REMARK    8  A    between atoms: C16_23  and  N5_24 
ROOT
HETATM    1  C1  UNL     1      21.342   3.245  48.027  1.00  0.00     0.050 C 
HETATM    2  C2  UNL     1      22.627   3.904  48.218  1.00  0.00     0.094 C 
HETATM    3  C3  UNL     1      22.292   5.208  48.063  1.00  0.00     0.066 C 
HETATM    4  C4  UNL     1      22.384   6.689  47.974  1.00  0.00     0.243 C 
HETATM    5  N1  UNL     1      23.472   7.449  48.085  1.00  0.00     0.033 NA
HETATM    6  C5  UNL     1      24.712   6.807  48.313  1.00  0.00     0.711 C 
HETATM    7  C6  UNL     1      26.009   6.673  48.276  1.00  0.00     0.086 C 
HETATM    8  C7  UNL     1      26.790   7.745  47.661  1.00  0.00     0.100 C 
HETATM    9  N2  UNL     1      27.409   8.627  47.166  1.00  0.00    -0.192 NA
HETATM   10  C8  UNL     1      26.801   5.534  48.787  1.00  0.00     0.045 C 
HETATM   11  C12 UNL     1      26.472   4.386  49.396  1.00  0.00     0.030 C 
HETATM   12  C13 UNL     1      25.729   3.297  50.009  1.00  0.00     0.133 C 
HETATM   13  C19 UNL     1      24.236   3.328  49.835  1.00  0.00     0.198 C 
HETATM   14  O2  UNL     1      23.804   3.168  48.491  1.00  0.00    -0.375 OA
ENDROOT
BRANCH  10  15
HETATM   15  N3  UNL     1      28.217   5.727  48.538  1.00  0.00    -0.386 N 
HETATM   16  H7  UNL     1      27.851   6.348  47.741  1.00  0.00     0.160 HD
BRANCH  15  17
HETATM   17  C9  UNL     1      29.612   5.895  48.323  1.00  0.00     0.148 C 
BRANCH  17  18
HETATM   18  C10 UNL     1      30.234   7.160  48.749  1.00  0.00     0.004 C 
HETATM   19  C11 UNL     1      31.483   7.263  49.230  1.00  0.00     0.082 C 
HETATM   20 CL1  UNL     1      32.395   5.772  49.342  1.00  0.00    -0.097 Cl
ENDBRANCH  17  18
ENDBRANCH  15  17
ENDBRANCH  10  15
BRANCH  12  21
HETATM   21  N4  UNL     1      25.966   3.418  51.475  1.00  0.00    -0.350 N 
HETATM   22  C14 UNL     1      26.305   2.215  52.155  1.00  0.00     0.227 C 
HETATM   23  O1  UNL     1      26.443   1.044  51.735  1.00  0.00    -0.273 OA
HETATM   24  H14 UNL     1      25.899   4.296  52.011  1.00  0.00     0.163 HD
BRANCH  22  25
HETATM   25  C15 UNL     1      26.578   2.156  53.635  1.00  0.00     0.178 C 
BRANCH  25  26
HETATM   26  S1  UNL     1      28.311   1.682  53.856  1.00  0.00    -0.130 SA
BRANCH  26  27
HETATM   27  C16 UNL     1      28.443  -0.020  54.478  1.00  0.00     0.345 C 
BRANCH  27  28
HETATM   28  N5  UNL     1      28.680  -0.891  53.364  1.00  0.00     0.088 N 
HETATM   29  C17 UNL     1      29.881  -1.675  53.491  1.00  0.00     0.310 C 
HETATM   30  C18 UNL     1      27.532  -1.704  53.032  1.00  0.00     0.310 C 
ENDBRANCH  27  28
ENDBRANCH  26  27
ENDBRANCH  25  26
ENDBRANCH  22  25
ENDBRANCH  12  21
TORSDOF 8
ENDMDL
MODEL 8
REMARK VINA RESULT:      -6.0      5.715      9.185
REMARK  8 active torsions:
REMARK  status: ('A' for Active; 'I' for Inactive)
REMARK    1  A    between atoms: C8_10  and  N3_11 
REMARK    2  A    between atoms: N3_11  and  C9_12 
REMARK    3  A    between atoms: C9_12  and  C10_13 
REMARK    4  A    between atoms: C13_17  and  N4_18 
REMARK       I    between atoms: N4_18  and  C14_19 
REMARK    5  A    between atoms: C14_19  and  C15_21 
REMARK    6  A    between atoms: C15_21  and  S1_22 
REMARK    7  A    between atoms: S1_22  and  C16_23 
REMARK    8  A    between atoms: C16_23  and  N5_24 
ROOT
HETATM    1  C1  UNL     1      26.748  10.740  47.618  1.00  0.00     0.050 C 
HETATM    2  C2  UNL     1      27.692   9.648  47.816  1.00  0.00     0.094 C 
HETATM    3  C3  UNL     1      28.713  10.279  48.445  1.00  0.00     0.066 C 
HETATM    4  C4  UNL     1      30.012  10.538  49.119  1.00  0.00     0.243 C 
HETATM    5  N1  UNL     1      31.000   9.676  49.351  1.00  0.00     0.033 NA
HETATM    6  C5  UNL     1      30.834   8.340  48.913  1.00  0.00     0.711 C 
HETATM    7  C6  UNL     1      31.220   7.162  48.509  1.00  0.00     0.086 C 
HETATM    8  C7  UNL     1      32.656   6.921  48.378  1.00  0.00     0.100 C 
HETATM    9  N2  UNL     1      33.824   6.739  48.285  1.00  0.00    -0.192 NA
HETATM   10  C8  UNL     1      30.357   6.016  48.152  1.00  0.00     0.045 C 
HETATM   11  C12 UNL     1      29.029   5.837  48.133  1.00  0.00     0.030 C 
HETATM   12  C13 UNL     1      27.593   6.042  48.245  1.00  0.00     0.133 C 
HETATM   13  C19 UNL     1      27.136   7.457  48.469  1.00  0.00     0.198 C 
HETATM   14  O2  UNL     1      27.406   8.332  47.382  1.00  0.00    -0.375 OA
ENDROOT
BRANCH  10  15
HETATM   15  N3  UNL     1      31.147   4.880  47.716  1.00  0.00    -0.386 N 
HETATM   16  H7  UNL     1      31.292   4.753  48.773  1.00  0.00     0.160 HD
BRANCH  15  17
HETATM   17  C9  UNL     1      31.913   3.776  47.255  1.00  0.00     0.148 C 
BRANCH  17  18
HETATM   18  C10 UNL     1      32.753   3.964  46.060  1.00  0.00     0.004 C 
HETATM   19  C11 UNL     1      34.086   3.801  46.040  1.00  0.00     0.082 C 
HETATM   20 CL1  UNL     1      34.831   3.337  47.556  1.00  0.00    -0.097 Cl
ENDBRANCH  17  18
ENDBRANCH  15  17
ENDBRANCH  10  15
BRANCH  12  21
HETATM   21  N4  UNL     1      27.168   5.286  49.457  1.00  0.00    -0.350 N 
HETATM   22  C14 UNL     1      25.788   4.947  49.531  1.00  0.00     0.227 C 
HETATM   23  O1  UNL     1      24.843   5.174  48.743  1.00  0.00    -0.273 OA
HETATM   24  H14 UNL     1      27.796   5.004  50.224  1.00  0.00     0.163 HD
BRANCH  22  25
HETATM   25  C15 UNL     1      25.189   4.185  50.683  1.00  0.00     0.178 C 
BRANCH  25  26
HETATM   26  S1  UNL     1      23.532   4.850  50.982  1.00  0.00    -0.130 SA
BRANCH  26  27
HETATM   27  C16 UNL     1      22.276   3.545  50.848  1.00  0.00     0.345 C 
BRANCH  27  28
HETATM   28  N5  UNL     1      22.003   3.045  52.164  1.00  0.00     0.088 N 
HETATM   29  C17 UNL     1      20.600   2.855  52.428  1.00  0.00     0.310 C 
HETATM   30  C18 UNL     1      22.783   1.873  52.493  1.00  0.00     0.310 C 
ENDBRANCH  27  28
ENDBRANCH  26  27
ENDBRANCH  25  26
ENDBRANCH  22  25
ENDBRANCH  12  21
TORSDOF 8
ENDMDL
MODEL 9
REMARK VINA RESULT:      -5.8      1.927      2.342
REMARK  8 active torsions:
REMARK  status: ('A' for Active; 'I' for Inactive)
REMARK    1  A    between atoms: C8_10  and  N3_11 
REMARK    2  A    between atoms: N3_11  and  C9_12 
REMARK    3  A    between atoms: C9_12  and  C10_13 
REMARK    4  A    between atoms: C13_17  and  N4_18 
REMARK       I    between atoms: N4_18  and  C14_19 
REMARK    5  A    between atoms: C14_19  and  C15_21 
REMARK    6  A    between atoms: C15_21  and  S1_22 
REMARK    7  A    between atoms: S1_22  and  C16_23 
REMARK    8  A    between atoms: C16_23  and  N5_24 
ROOT
HETATM    1  C1  UNL     1      27.546   0.262  52.789  1.00  0.00     0.050 C 
HETATM    2  C2  UNL     1      26.455   0.858  52.030  1.00  0.00     0.094 C 
HETATM    3  C3  UNL     1      25.373   0.441  52.732  1.00  0.00     0.066 C 
HETATM    4  C4  UNL     1      23.968   0.227  53.166  1.00  0.00     0.243 C 
HETATM    5  N1  UNL     1      22.855   0.663  52.580  1.00  0.00     0.033 NA
HETATM    6  C5  UNL     1      22.982   1.422  51.392  1.00  0.00     0.711 C 
HETATM    7  C6  UNL     1      22.607   1.903  50.239  1.00  0.00     0.086 C 
HETATM    8  C7  UNL     1      21.289   1.520  49.735  1.00  0.00     0.100 C 
HETATM    9  N2  UNL     1      20.214   1.207  49.345  1.00  0.00    -0.192 NA
HETATM   10  C8  UNL     1      23.378   2.805  49.357  1.00  0.00     0.045 C 
HETATM   11  C12 UNL     1      24.592   3.365  49.452  1.00  0.00     0.030 C 
HETATM   12  C13 UNL     1      25.911   3.763  49.917  1.00  0.00     0.133 C 
HETATM   13  C19 UNL     1      26.447   3.025  51.112  1.00  0.00     0.198 C 
HETATM   14  O2  UNL     1      26.695   1.646  50.879  1.00  0.00    -0.375 OA
ENDROOT
BRANCH  10  15
HETATM   15  N3  UNL     1      22.644   3.102  48.141  1.00  0.00    -0.386 N 
HETATM   16  H7  UNL     1      22.344   2.074  48.237  1.00  0.00     0.160 HD
BRANCH  15  17
HETATM   17  C9  UNL     1      21.939   3.426  46.951  1.00  0.00     0.148 C 
BRANCH  17  18
HETATM   18  C10 UNL     1      21.161   4.676  46.924  1.00  0.00     0.004 C 
HETATM   19  C11 UNL     1      19.824   4.732  46.815  1.00  0.00     0.082 C 
HETATM   20 CL1  UNL     1      18.993   3.194  46.701  1.00  0.00    -0.097 Cl
ENDBRANCH  17  18
ENDBRANCH  15  17
ENDBRANCH  10  15
BRANCH  12  21
HETATM   21  N4  UNL     1      25.779   5.183  50.348  1.00  0.00    -0.350 N 
HETATM   22  C14 UNL     1      26.308   6.158  49.458  1.00  0.00     0.227 C 
HETATM   23  O1  UNL     1      26.879   6.037  48.351  1.00  0.00    -0.273 OA
HETATM   24  H14 UNL     1      25.341   5.492  51.228  1.00  0.00     0.163 HD
BRANCH  22  25
HETATM   25  C15 UNL     1      26.258   7.638  49.735  1.00  0.00     0.178 C 
BRANCH  25  26
HETATM   26  S1  UNL     1      26.606   8.501  48.182  1.00  0.00    -0.130 SA
BRANCH  26  27
HETATM   27  C16 UNL     1      25.112   9.313  47.542  1.00  0.00     0.345 C 
BRANCH  27  28
HETATM   28  N5  UNL     1      23.971   8.552  47.960  1.00  0.00     0.088 N 
HETATM   29  C17 UNL     1      22.832   9.364  48.301  1.00  0.00     0.310 C 
HETATM   30  C18 UNL     1      23.629   7.495  47.034  1.00  0.00     0.310 C 
ENDBRANCH  27  28
ENDBRANCH  26  27
ENDBRANCH  25  26
ENDBRANCH  22  25
ENDBRANCH  12  21
TORSDOF 8
ENDMDL
