MODEL 1
REMARK VINA RESULT:      -9.9      0.000      0.000
REMARK  6 active torsions:
REMARK  status: ('A' for Active; 'I' for Inactive)
REMARK       I    between atoms: C1_2  and  N1_3 
REMARK    1  A    between atoms: C1_2  and  C17_23 
REMARK    2  A    between atoms: N1_3  and  C2_4 
REMARK    3  A    between atoms: C2_4  and  C3_5 
REMARK    4  A    between atoms: C4_6  and  N2_7 
REMARK    5  A    between atoms: N2_7  and  C5_8 
REMARK    6  A    between atoms: C8_12  and  C9_13 
ROOT
HETATM    1  C3  UNL     1      27.463   1.718  52.747  1.00  0.00    -0.032 A 
HETATM    2  C4  UNL     1      27.515   0.429  53.162  1.00  0.00     0.053 A 
HETATM    3  C14 UNL     1      28.524   0.158  54.183  1.00  0.00     0.026 A 
HETATM    4  C15 UNL     1      29.080   1.333  54.362  1.00  0.00    -0.020 A 
HETATM    5  C16 UNL     1      28.505   2.423  53.508  1.00  0.00     0.065 A 
ENDROOT
BRANCH   2   6
HETATM    6  N2  UNL     1      26.688  -0.670  52.712  1.00  0.00    -0.188 N 
HETATM    7  H4  UNL     1      26.878  -1.381  51.947  1.00  0.00     0.184 HD
BRANCH   6   8
HETATM    8  C5  UNL     1      25.473  -0.754  53.430  1.00  0.00     0.727 A 
HETATM    9  N3  UNL     1      25.591  -1.063  54.749  1.00  0.00    -0.075 NA
HETATM   10  C6  UNL     1      24.522  -1.170  55.545  1.00  0.00     0.139 A 
HETATM   11  C7  UNL     1      23.228  -0.982  55.127  1.00  0.00     0.053 A 
HETATM   12  C8  UNL     1      23.136  -0.665  53.766  1.00  0.00     0.089 A 
HETATM   13  N5  UNL     1      24.221  -0.567  52.997  1.00  0.00    -0.062 NA
BRANCH  12  14
HETATM   14  C9  UNL     1      21.836  -0.424  53.161  1.00  0.00     0.011 A 
HETATM   15  C10 UNL     1      21.653   0.149  51.926  1.00  0.00     0.017 A 
HETATM   16  C11 UNL     1      20.377   0.348  51.423  1.00  0.00     0.020 A 
HETATM   17  C12 UNL     1      19.232  -0.010  52.120  1.00  0.00     0.116 A 
HETATM   18  N4  UNL     1      19.454  -0.559  53.307  1.00  0.00    -0.272 NA
HETATM   19  C13 UNL     1      20.676  -0.766  53.821  1.00  0.00     0.130 A 
ENDBRANCH  12  14
ENDBRANCH   6   8
ENDBRANCH   2   6
BRANCH   1  20
HETATM   20  C2  UNL     1      26.470   2.110  51.715  1.00  0.00     0.159 C 
BRANCH  20  21
HETATM   21  N1  UNL     1      26.880   3.237  50.931  1.00  0.00    -0.353 N 
HETATM   22  C1  UNL     1      26.326   3.815  49.766  1.00  0.00     0.251 C 
HETATM   23  O1  UNL     1      25.284   3.260  49.302  1.00  0.00    -0.268 OA
HETATM   24  H1  UNL     1      27.748   3.783  51.221  1.00  0.00     0.163 HD
BRANCH  22  25
HETATM   25  C17 UNL     1      26.828   4.974  49.051  1.00  0.00     0.032 A 
HETATM   26  C18 UNL     1      28.113   5.019  48.623  1.00  0.00     0.020 A 
HETATM   27  C19 UNL     1      28.538   6.153  47.940  1.00  0.00     0.043 A 
HETATM   28  C20 UNL     1      27.758   7.265  47.648  1.00  0.00     0.116 A 
HETATM   29  F1  UNL     1      28.243   8.318  46.985  1.00  0.00    -0.206 F 
HETATM   30  C21 UNL     1      26.444   7.167  48.112  1.00  0.00     0.043 A 
HETATM   31  C22 UNL     1      26.012   6.048  48.790  1.00  0.00     0.020 A 
ENDBRANCH  22  25
ENDBRANCH  20  21
ENDBRANCH   1  20
TORSDOF 6
ENDMDL
MODEL 2
REMARK VINA RESULT:      -9.6      1.970      4.958
REMARK  6 active torsions:
REMARK  status: ('A' for Active; 'I' for Inactive)
REMARK       I    between atoms: C1_2  and  N1_3 
REMARK    1  A    between atoms: C1_2  and  C17_23 
REMARK    2  A    between atoms: N1_3  and  C2_4 
REMARK    3  A    between atoms: C2_4  and  C3_5 
REMARK    4  A    between atoms: C4_6  and  N2_7 
REMARK    5  A    between atoms: N2_7  and  C5_8 
REMARK    6  A    between atoms: C8_12  and  C9_13 
ROOT
HETATM    1  C3  UNL     1      22.431   2.749  50.188  1.00  0.00    -0.032 A 
HETATM    2  C4  UNL     1      21.616   1.893  50.850  1.00  0.00     0.053 A 
HETATM    3  C14 UNL     1      21.059   0.823  50.027  1.00  0.00     0.026 A 
HETATM    4  C15 UNL     1      21.567   1.071  48.843  1.00  0.00    -0.020 A 
HETATM    5  C16 UNL     1      22.460   2.275  48.797  1.00  0.00     0.065 A 
ENDROOT
BRANCH   2   6
HETATM    6  N2  UNL     1      21.261   1.930  52.253  1.00  0.00    -0.188 N 
HETATM    7  H4  UNL     1      20.555   2.549  52.748  1.00  0.00     0.184 HD
BRANCH   6   8
HETATM    8  C5  UNL     1      21.988   0.986  53.013  1.00  0.00     0.727 A 
HETATM    9  N3  UNL     1      21.243   0.165  53.799  1.00  0.00    -0.075 NA
HETATM   10  C6  UNL     1      21.804  -0.776  54.566  1.00  0.00     0.139 A 
HETATM   11  C7  UNL     1      23.155  -1.006  54.638  1.00  0.00     0.053 A 
HETATM   12  C8  UNL     1      23.898  -0.147  53.819  1.00  0.00     0.089 A 
HETATM   13  N5  UNL     1      23.309   0.783  53.066  1.00  0.00    -0.062 NA
BRANCH  12  14
HETATM   14  C9  UNL     1      25.347  -0.263  53.768  1.00  0.00     0.011 A 
HETATM   15  C10 UNL     1      26.061  -0.518  52.623  1.00  0.00     0.017 A 
HETATM   16  C11 UNL     1      27.443  -0.618  52.662  1.00  0.00     0.020 A 
HETATM   17  C12 UNL     1      28.173  -0.470  53.833  1.00  0.00     0.116 A 
HETATM   18  N4  UNL     1      27.445  -0.224  54.913  1.00  0.00    -0.272 NA
HETATM   19  C13 UNL     1      26.106  -0.122  54.908  1.00  0.00     0.130 A 
ENDBRANCH  12  14
ENDBRANCH   6   8
ENDBRANCH   2   6
BRANCH   1  20
HETATM   20  C2  UNL     1      23.059   3.873  50.928  1.00  0.00     0.159 C 
BRANCH  20  21
HETATM   21  N1  UNL     1      24.310   4.292  50.369  1.00  0.00    -0.353 N 
HETATM   22  C1  UNL     1      24.617   5.266  49.391  1.00  0.00     0.251 C 
HETATM   23  O1  UNL     1      23.635   5.897  48.896  1.00  0.00    -0.268 OA
HETATM   24  H1  UNL     1      25.209   3.829  50.704  1.00  0.00     0.163 HD
BRANCH  22  25
HETATM   25  C17 UNL     1      25.938   5.614  48.900  1.00  0.00     0.032 A 
HETATM   26  C18 UNL     1      26.180   6.842  48.381  1.00  0.00     0.020 A 
HETATM   27  C19 UNL     1      27.465   7.121  47.929  1.00  0.00     0.043 A 
HETATM   28  C20 UNL     1      28.545   6.246  47.960  1.00  0.00     0.116 A 
HETATM   29  F1  UNL     1      29.752   6.593  47.505  1.00  0.00    -0.206 F 
HETATM   30  C21 UNL     1      28.240   4.996  48.504  1.00  0.00     0.043 A 
HETATM   31  C22 UNL     1      26.970   4.709  48.954  1.00  0.00     0.020 A 
ENDBRANCH  22  25
ENDBRANCH  20  21
ENDBRANCH   1  20
TORSDOF 6
ENDMDL
MODEL 3
REMARK VINA RESULT:      -9.5      3.215      8.280
REMARK  6 active torsions:
REMARK  status: ('A' for Active; 'I' for Inactive)
REMARK       I    between atoms: C1_2  and  N1_3 
REMARK    1  A    between atoms: C1_2  and  C17_23 
REMARK    2  A    between atoms: N1_3  and  C2_4 
REMARK    3  A    between atoms: C2_4  and  C3_5 
REMARK    4  A    between atoms: C4_6  and  N2_7 
REMARK    5  A    between atoms: N2_7  and  C5_8 
REMARK    6  A    between atoms: C8_12  and  C9_13 
ROOT
HETATM    1  C3  UNL     1      22.220   1.195  51.681  1.00  0.00    -0.032 A 
HETATM    2  C4  UNL     1      22.410   2.339  50.981  1.00  0.00     0.053 A 
HETATM    3  C14 UNL     1      21.864   2.321  49.626  1.00  0.00     0.026 A 
HETATM    4  C15 UNL     1      21.342   1.121  49.538  1.00  0.00    -0.020 A 
HETATM    5  C16 UNL     1      21.499   0.289  50.776  1.00  0.00     0.065 A 
ENDROOT
BRANCH   2   6
HETATM    6  N2  UNL     1      23.074   3.543  51.433  1.00  0.00    -0.188 N 
HETATM    7  H4  UNL     1      22.751   4.257  52.150  1.00  0.00     0.184 HD
BRANCH   6   8
HETATM    8  C5  UNL     1      24.320   3.738  50.794  1.00  0.00     0.727 A 
HETATM    9  N3  UNL     1      25.231   2.745  50.968  1.00  0.00    -0.075 NA
HETATM   10  C6  UNL     1      26.447   2.801  50.415  1.00  0.00     0.139 A 
HETATM   11  C7  UNL     1      26.891   3.837  49.633  1.00  0.00     0.053 A 
HETATM   12  C8  UNL     1      25.933   4.845  49.469  1.00  0.00     0.089 A 
HETATM   13  N5  UNL     1      24.728   4.762  50.036  1.00  0.00    -0.062 NA
BRANCH  12  14
HETATM   14  C9  UNL     1      26.237   6.014  48.660  1.00  0.00     0.011 A 
HETATM   15  C10 UNL     1      27.506   6.392  48.295  1.00  0.00     0.017 A 
HETATM   16  C11 UNL     1      27.710   7.526  47.524  1.00  0.00     0.020 A 
HETATM   17  C12 UNL     1      26.669   8.331  47.084  1.00  0.00     0.116 A 
HETATM   18  N4  UNL     1      25.461   7.930  47.459  1.00  0.00    -0.272 NA
HETATM   19  C13 UNL     1      25.232   6.838  48.205  1.00  0.00     0.130 A 
ENDBRANCH  12  14
ENDBRANCH   6   8
ENDBRANCH   2   6
BRANCH   1  20
HETATM   20  C2  UNL     1      22.729   1.103  53.074  1.00  0.00     0.159 C 
BRANCH  20  21
HETATM   21  N1  UNL     1      24.133   0.829  53.148  1.00  0.00    -0.353 N 
HETATM   22  C1  UNL     1      24.855  -0.164  53.850  1.00  0.00     0.251 C 
HETATM   23  O1  UNL     1      24.170  -0.968  54.553  1.00  0.00    -0.268 OA
HETATM   24  H1  UNL     1      24.812   1.442  52.603  1.00  0.00     0.163 HD
BRANCH  22  25
HETATM   25  C17 UNL     1      26.294  -0.354  53.848  1.00  0.00     0.032 A 
HETATM   26  C18 UNL     1      27.081   0.323  54.719  1.00  0.00     0.020 A 
HETATM   27  C19 UNL     1      28.453   0.099  54.674  1.00  0.00     0.043 A 
HETATM   28  C20 UNL     1      29.106  -0.769  53.806  1.00  0.00     0.116 A 
HETATM   29  F1  UNL     1      30.432  -0.929  53.827  1.00  0.00    -0.206 F 
HETATM   30  C21 UNL     1      28.248  -1.440  52.930  1.00  0.00     0.043 A 
HETATM   31  C22 UNL     1      26.888  -1.224  52.966  1.00  0.00     0.020 A 
ENDBRANCH  22  25
ENDBRANCH  20  21
ENDBRANCH   1  20
TORSDOF 6
ENDMDL
MODEL 4
REMARK VINA RESULT:      -9.2      3.255      7.931
REMARK  6 active torsions:
REMARK  status: ('A' for Active; 'I' for Inactive)
REMARK       I    between atoms: C1_2  and  N1_3 
REMARK    1  A    between atoms: C1_2  and  C17_23 
REMARK    2  A    between atoms: N1_3  and  C2_4 
REMARK    3  A    between atoms: C2_4  and  C3_5 
REMARK    4  A    between atoms: C4_6  and  N2_7 
REMARK    5  A    between atoms: N2_7  and  C5_8 
REMARK    6  A    between atoms: C8_12  and  C9_13 
ROOT
HETATM    1  C3  UNL     1      21.741   1.026  51.798  1.00  0.00    -0.032 A 
HETATM    2  C4  UNL     1      21.563   2.322  51.446  1.00  0.00     0.053 A 
HETATM    3  C14 UNL     1      21.059   2.521  50.090  1.00  0.00     0.026 A 
HETATM    4  C15 UNL     1      20.944   1.295  49.638  1.00  0.00    -0.020 A 
HETATM    5  C16 UNL     1      21.349   0.237  50.621  1.00  0.00     0.065 A 
ENDROOT
BRANCH   2   6
HETATM    6  N2  UNL     1      21.809   3.493  52.261  1.00  0.00    -0.188 N 
HETATM    7  H4  UNL     1      21.588   3.653  53.287  1.00  0.00     0.184 HD
BRANCH   6   8
HETATM    8  C5  UNL     1      22.433   4.530  51.531  1.00  0.00     0.727 A 
HETATM    9  N3  UNL     1      21.730   5.690  51.439  1.00  0.00    -0.075 NA
HETATM   10  C6  UNL     1      22.207   6.752  50.781  1.00  0.00     0.139 A 
HETATM   11  C7  UNL     1      23.423   6.783  50.147  1.00  0.00     0.053 A 
HETATM   12  C8  UNL     1      24.126   5.577  50.257  1.00  0.00     0.089 A 
HETATM   13  N5  UNL     1      23.623   4.534  50.920  1.00  0.00    -0.062 NA
BRANCH  12  14
HETATM   14  C9  UNL     1      25.440   5.442  49.650  1.00  0.00     0.011 A 
HETATM   15  C10 UNL     1      26.112   6.466  49.028  1.00  0.00     0.017 A 
HETATM   16  C11 UNL     1      27.362   6.252  48.468  1.00  0.00     0.020 A 
HETATM   17  C12 UNL     1      27.997   5.018  48.502  1.00  0.00     0.116 A 
HETATM   18  N4  UNL     1      27.314   4.059  49.111  1.00  0.00    -0.272 NA
HETATM   19  C13 UNL     1      26.102   4.235  49.662  1.00  0.00     0.130 A 
ENDBRANCH  12  14
ENDBRANCH   6   8
ENDBRANCH   2   6
BRANCH   1  20
HETATM   20  C2  UNL     1      22.245   0.705  53.158  1.00  0.00     0.159 C 
BRANCH  20  21
HETATM   21  N1  UNL     1      23.622   0.309  53.174  1.00  0.00    -0.353 N 
HETATM   22  C1  UNL     1      24.812   1.070  53.237  1.00  0.00     0.251 C 
HETATM   23  O1  UNL     1      24.673   2.330  53.283  1.00  0.00    -0.268 OA
HETATM   24  H1  UNL     1      23.864  -0.728  53.135  1.00  0.00     0.163 HD
BRANCH  22  25
HETATM   25  C17 UNL     1      26.169   0.556  53.254  1.00  0.00     0.032 A 
HETATM   26  C18 UNL     1      26.417  -0.749  52.989  1.00  0.00     0.020 A 
HETATM   27  C19 UNL     1      27.737  -1.185  53.015  1.00  0.00     0.043 A 
HETATM   28  C20 UNL     1      28.847  -0.396  53.292  1.00  0.00     0.116 A 
HETATM   29  F1  UNL     1      30.087  -0.892  53.296  1.00  0.00    -0.206 F 
HETATM   30  C21 UNL     1      28.535   0.940  53.558  1.00  0.00     0.043 A 
HETATM   31  C22 UNL     1      27.231   1.382  53.535  1.00  0.00     0.020 A 
ENDBRANCH  22  25
ENDBRANCH  20  21
ENDBRANCH   1  20
TORSDOF 6
ENDMDL
MODEL 5
REMARK VINA RESULT:      -9.2      3.983      8.067
REMARK  6 active torsions:
REMARK  status: ('A' for Active; 'I' for Inactive)
REMARK       I    between atoms: C1_2  and  N1_3 
REMARK    1  A    between atoms: C1_2  and  C17_23 
REMARK    2  A    between atoms: N1_3  and  C2_4 
REMARK    3  A    between atoms: C2_4  and  C3_5 
REMARK    4  A    between atoms: C4_6  and  N2_7 
REMARK    5  A    between atoms: N2_7  and  C5_8 
REMARK    6  A    between atoms: C8_12  and  C9_13 
ROOT
HETATM    1  C3  UNL     1      22.871   4.491  50.965  1.00  0.00    -0.032 A 
HETATM    2  C4  UNL     1      24.082   4.082  51.412  1.00  0.00     0.053 A 
HETATM    3  C14 UNL     1      25.100   3.943  50.373  1.00  0.00     0.026 A 
HETATM    4  C15 UNL     1      24.451   4.280  49.284  1.00  0.00    -0.020 A 
HETATM    5  C16 UNL     1      23.016   4.650  49.511  1.00  0.00     0.065 A 
ENDROOT
BRANCH   2   6
HETATM    6  N2  UNL     1      24.458   3.787  52.778  1.00  0.00    -0.188 N 
HETATM    7  H4  UNL     1      24.542   4.445  53.607  1.00  0.00     0.184 HD
BRANCH   6   8
HETATM    8  C5  UNL     1      24.737   2.414  52.970  1.00  0.00     0.727 A 
HETATM    9  N3  UNL     1      23.653   1.597  53.037  1.00  0.00    -0.075 NA
HETATM   10  C6  UNL     1      23.776   0.277  53.212  1.00  0.00     0.139 A 
HETATM   11  C7  UNL     1      24.977  -0.374  53.337  1.00  0.00     0.053 A 
HETATM   12  C8  UNL     1      26.076   0.490  53.264  1.00  0.00     0.089 A 
HETATM   13  N5  UNL     1      25.922   1.803  53.091  1.00  0.00    -0.062 NA
BRANCH  12  14
HETATM   14  C9  UNL     1      27.426  -0.039  53.369  1.00  0.00     0.011 A 
HETATM   15  C10 UNL     1      27.771  -1.339  53.087  1.00  0.00     0.017 A 
HETATM   16  C11 UNL     1      29.083  -1.765  53.218  1.00  0.00     0.020 A 
HETATM   17  C12 UNL     1      30.107  -0.924  53.632  1.00  0.00     0.116 A 
HETATM   18  N4  UNL     1      29.731   0.320  53.893  1.00  0.00    -0.272 NA
HETATM   19  C13 UNL     1      28.469   0.763  53.776  1.00  0.00     0.130 A 
ENDBRANCH  12  14
ENDBRANCH   6   8
ENDBRANCH   2   6
BRANCH   1  20
HETATM   20  C2  UNL     1      21.761   4.672  51.936  1.00  0.00     0.159 C 
BRANCH  20  21
HETATM   21  N1  UNL     1      21.095   3.449  52.272  1.00  0.00    -0.353 N 
HETATM   22  C1  UNL     1      20.239   2.614  51.518  1.00  0.00     0.251 C 
HETATM   23  O1  UNL     1      19.990   2.986  50.331  1.00  0.00    -0.268 OA
HETATM   24  H1  UNL     1      21.224   3.039  53.247  1.00  0.00     0.163 HD
BRANCH  22  25
HETATM   25  C17 UNL     1      19.618   1.380  51.964  1.00  0.00     0.032 A 
HETATM   26  C18 UNL     1      18.474   0.936  51.391  1.00  0.00     0.020 A 
HETATM   27  C19 UNL     1      17.926  -0.254  51.856  1.00  0.00     0.043 A 
HETATM   28  C20 UNL     1      18.450  -1.047  52.871  1.00  0.00     0.116 A 
HETATM   29  F1  UNL     1      17.862  -2.182  53.260  1.00  0.00    -0.206 F 
HETATM   30  C21 UNL     1      19.629  -0.543  53.427  1.00  0.00     0.043 A 
HETATM   31  C22 UNL     1      20.179   0.635  52.973  1.00  0.00     0.020 A 
ENDBRANCH  22  25
ENDBRANCH  20  21
ENDBRANCH   1  20
TORSDOF 6
ENDMDL
MODEL 6
REMARK VINA RESULT:      -9.1      2.067      5.499
REMARK  6 active torsions:
REMARK  status: ('A' for Active; 'I' for Inactive)
REMARK       I    between atoms: C1_2  and  N1_3 
REMARK    1  A    between atoms: C1_2  and  C17_23 
REMARK    2  A    between atoms: N1_3  and  C2_4 
REMARK    3  A    between atoms: C2_4  and  C3_5 
REMARK    4  A    between atoms: C4_6  and  N2_7 
REMARK    5  A    between atoms: N2_7  and  C5_8 
REMARK    6  A    between atoms: C8_12  and  C9_13 
ROOT
HETATM    1  C3  UNL     1      20.367   2.553  51.098  1.00  0.00    -0.032 A 
HETATM    2  C4  UNL     1      19.927   1.609  51.965  1.00  0.00     0.053 A 
HETATM    3  C14 UNL     1      19.104   0.564  51.362  1.00  0.00     0.026 A 
HETATM    4  C15 UNL     1      19.063   0.919  50.099  1.00  0.00    -0.020 A 
HETATM    5  C16 UNL     1      19.822   2.174  49.786  1.00  0.00     0.065 A 
ENDROOT
BRANCH   2   6
HETATM    6  N2  UNL     1      20.192   1.534  53.386  1.00  0.00    -0.188 N 
HETATM    7  H4  UNL     1      19.748   2.083  54.179  1.00  0.00     0.184 HD
BRANCH   6   8
HETATM    8  C5  UNL     1      21.187   0.579  53.694  1.00  0.00     0.727 A 
HETATM    9  N3  UNL     1      20.741  -0.571  54.265  1.00  0.00    -0.075 NA
HETATM   10  C6  UNL     1      21.577  -1.559  54.603  1.00  0.00     0.139 A 
HETATM   11  C7  UNL     1      22.935  -1.518  54.413  1.00  0.00     0.053 A 
HETATM   12  C8  UNL     1      23.367  -0.324  53.823  1.00  0.00     0.089 A 
HETATM   13  N5  UNL     1      22.509   0.645  53.499  1.00  0.00    -0.062 NA
BRANCH  12  14
HETATM   14  C9  UNL     1      24.778  -0.120  53.542  1.00  0.00     0.011 A 
HETATM   15  C10 UNL     1      25.265   0.390  52.363  1.00  0.00     0.017 A 
HETATM   16  C11 UNL     1      26.629   0.548  52.173  1.00  0.00     0.020 A 
HETATM   17  C12 UNL     1      27.565   0.209  53.140  1.00  0.00     0.116 A 
HETATM   18  N4  UNL     1      27.053  -0.279  54.261  1.00  0.00    -0.272 NA
HETATM   19  C13 UNL     1      25.738  -0.444  54.475  1.00  0.00     0.130 A 
ENDBRANCH  12  14
ENDBRANCH   6   8
ENDBRANCH   2   6
BRANCH   1  20
HETATM   20  C2  UNL     1      21.217   3.663  51.601  1.00  0.00     0.159 C 
BRANCH  20  21
HETATM   21  N1  UNL     1      22.507   3.715  50.980  1.00  0.00    -0.353 N 
HETATM   22  C1  UNL     1      23.396   4.793  50.762  1.00  0.00     0.251 C 
HETATM   23  O1  UNL     1      23.013   5.931  51.171  1.00  0.00    -0.268 OA
HETATM   24  H1  UNL     1      22.933   2.819  50.592  1.00  0.00     0.163 HD
BRANCH  22  25
HETATM   25  C17 UNL     1      24.696   4.728  50.120  1.00  0.00     0.032 A 
HETATM   26  C18 UNL     1      25.416   3.581  50.133  1.00  0.00     0.020 A 
HETATM   27  C19 UNL     1      26.654   3.575  49.499  1.00  0.00     0.043 A 
HETATM   28  C20 UNL     1      27.233   4.653  48.839  1.00  0.00     0.116 A 
HETATM   29  F1  UNL     1      28.429   4.566  48.252  1.00  0.00    -0.206 F 
HETATM   30  C21 UNL     1      26.449   5.809  48.856  1.00  0.00     0.043 A 
HETATM   31  C22 UNL     1      25.222   5.825  49.483  1.00  0.00     0.020 A 
ENDBRANCH  22  25
ENDBRANCH  20  21
ENDBRANCH   1  20
TORSDOF 6
ENDMDL
MODEL 7
REMARK VINA RESULT:      -9.1      3.681      8.540
REMARK  6 active torsions:
REMARK  status: ('A' for Active; 'I' for Inactive)
REMARK       I    between atoms: C1_2  and  N1_3 
REMARK    1  A    between atoms: C1_2  and  C17_23 
REMARK    2  A    between atoms: N1_3  and  C2_4 
REMARK    3  A    between atoms: C2_4  and  C3_5 
REMARK    4  A    between atoms: C4_6  and  N2_7 
REMARK    5  A    between atoms: N2_7  and  C5_8 
REMARK    6  A    between atoms: C8_12  and  C9_13 
ROOT
HETATM    1  C3  UNL     1      23.267   2.898  51.919  1.00  0.00    -0.032 A 
HETATM    2  C4  UNL     1      22.461   3.906  51.508  1.00  0.00     0.053 A 
HETATM    3  C14 UNL     1      21.500   3.534  50.472  1.00  0.00     0.026 A 
HETATM    4  C15 UNL     1      21.762   2.264  50.275  1.00  0.00    -0.020 A 
HETATM    5  C16 UNL     1      22.871   1.723  51.127  1.00  0.00     0.065 A 
ENDROOT
BRANCH   2   6
HETATM    6  N2  UNL     1      22.455   5.272  51.985  1.00  0.00    -0.188 N 
HETATM    7  H4  UNL     1      21.989   5.678  52.848  1.00  0.00     0.184 HD
BRANCH   6   8
HETATM    8  C5  UNL     1      23.190   6.136  51.141  1.00  0.00     0.727 A 
HETATM    9  N3  UNL     1      22.623   7.348  50.904  1.00  0.00    -0.075 NA
HETATM   10  C6  UNL     1      23.215   8.262  50.127  1.00  0.00     0.139 A 
HETATM   11  C7  UNL     1      24.424   8.078  49.506  1.00  0.00     0.053 A 
HETATM   12  C8  UNL     1      24.986   6.823  49.767  1.00  0.00     0.089 A 
HETATM   13  N5  UNL     1      24.371   5.931  50.546  1.00  0.00    -0.062 NA
BRANCH  12  14
HETATM   14  C9  UNL     1      26.274   6.467  49.193  1.00  0.00     0.011 A 
HETATM   15  C10 UNL     1      26.733   5.179  49.065  1.00  0.00     0.017 A 
HETATM   16  C11 UNL     1      27.977   4.925  48.511  1.00  0.00     0.020 A 
HETATM   17  C12 UNL     1      28.817   5.934  48.061  1.00  0.00     0.116 A 
HETATM   18  N4  UNL     1      28.336   7.162  48.204  1.00  0.00    -0.272 NA
HETATM   19  C13 UNL     1      27.136   7.439  48.737  1.00  0.00     0.130 A 
ENDBRANCH  12  14
ENDBRANCH   6   8
ENDBRANCH   2   6
BRANCH   1  20
HETATM   20  C2  UNL     1      24.280   3.160  52.973  1.00  0.00     0.159 C 
BRANCH  20  21
HETATM   21  N1  UNL     1      25.185   2.068  53.176  1.00  0.00    -0.353 N 
HETATM   22  C1  UNL     1      26.335   1.664  52.460  1.00  0.00     0.251 C 
HETATM   23  O1  UNL     1      26.648   2.366  51.452  1.00  0.00    -0.268 OA
HETATM   24  H1  UNL     1      25.022   1.403  53.992  1.00  0.00     0.163 HD
BRANCH  22  25
HETATM   25  C17 UNL     1      27.190   0.530  52.763  1.00  0.00     0.032 A 
HETATM   26  C18 UNL     1      28.391   0.711  53.363  1.00  0.00     0.020 A 
HETATM   27  C19 UNL     1      29.166  -0.412  53.633  1.00  0.00     0.043 A 
HETATM   28  C20 UNL     1      28.820  -1.726  53.341  1.00  0.00     0.116 A 
HETATM   29  F1  UNL     1      29.622  -2.753  53.635  1.00  0.00    -0.206 F 
HETATM   30  C21 UNL     1      27.573  -1.855  52.723  1.00  0.00     0.043 A 
HETATM   31  C22 UNL     1      26.798  -0.749  52.451  1.00  0.00     0.020 A 
ENDBRANCH  22  25
ENDBRANCH  20  21
ENDBRANCH   1  20
TORSDOF 6
ENDMDL
MODEL 8
REMARK VINA RESULT:      -8.9      3.773      6.532
REMARK  6 active torsions:
REMARK  status: ('A' for Active; 'I' for Inactive)
REMARK       I    between atoms: C1_2  and  N1_3 
REMARK    1  A    between atoms: C1_2  and  C17_23 
REMARK    2  A    between atoms: N1_3  and  C2_4 
REMARK    3  A    between atoms: C2_4  and  C3_5 
REMARK    4  A    between atoms: C4_6  and  N2_7 
REMARK    5  A    between atoms: N2_7  and  C5_8 
REMARK    6  A    between atoms: C8_12  and  C9_13 
ROOT
HETATM    1  C3  UNL     1      22.754   3.508  49.447  1.00  0.00    -0.032 A 
HETATM    2  C4  UNL     1      21.405   3.404  49.388  1.00  0.00     0.053 A 
HETATM    3  C14 UNL     1      20.878   3.040  48.075  1.00  0.00     0.026 A 
HETATM    4  C15 UNL     1      21.964   2.933  47.346  1.00  0.00    -0.020 A 
HETATM    5  C16 UNL     1      23.236   3.208  48.090  1.00  0.00     0.065 A 
ENDROOT
BRANCH   2   6
HETATM    6  N2  UNL     1      20.463   3.605  50.469  1.00  0.00    -0.188 N 
HETATM    7  H4  UNL     1      20.026   4.509  50.816  1.00  0.00     0.184 HD
BRANCH   6   8
HETATM    8  C5  UNL     1      20.117   2.393  51.108  1.00  0.00     0.727 A 
HETATM    9  N3  UNL     1      18.881   1.908  50.818  1.00  0.00    -0.075 NA
HETATM   10  C6  UNL     1      18.430   0.768  51.352  1.00  0.00     0.139 A 
HETATM   11  C7  UNL     1      19.147  -0.012  52.223  1.00  0.00     0.053 A 
HETATM   12  C8  UNL     1      20.415   0.510  52.504  1.00  0.00     0.089 A 
HETATM   13  N5  UNL     1      20.837   1.652  51.958  1.00  0.00    -0.062 NA
BRANCH  12  14
HETATM   14  C9  UNL     1      21.311  -0.198  53.404  1.00  0.00     0.011 A 
HETATM   15  C10 UNL     1      22.668   0.008  53.462  1.00  0.00     0.017 A 
HETATM   16  C11 UNL     1      23.454  -0.714  54.346  1.00  0.00     0.020 A 
HETATM   17  C12 UNL     1      22.930  -1.668  55.208  1.00  0.00     0.116 A 
HETATM   18  N4  UNL     1      21.618  -1.835  55.119  1.00  0.00    -0.272 NA
HETATM   19  C13 UNL     1      20.830  -1.151  54.274  1.00  0.00     0.130 A 
ENDBRANCH  12  14
ENDBRANCH   6   8
ENDBRANCH   2   6
BRANCH   1  20
HETATM   20  C2  UNL     1      23.401   3.867  50.735  1.00  0.00     0.159 C 
BRANCH  20  21
HETATM   21  N1  UNL     1      24.374   2.910  51.168  1.00  0.00    -0.353 N 
HETATM   22  C1  UNL     1      24.874   2.602  52.455  1.00  0.00     0.251 C 
HETATM   23  O1  UNL     1      24.402   3.279  53.419  1.00  0.00    -0.268 OA
HETATM   24  H1  UNL     1      24.845   2.285  50.446  1.00  0.00     0.163 HD
BRANCH  22  25
HETATM   25  C17 UNL     1      25.867   1.596  52.781  1.00  0.00     0.032 A 
HETATM   26  C18 UNL     1      26.075   0.539  51.960  1.00  0.00     0.020 A 
HETATM   27  C19 UNL     1      27.043  -0.392  52.320  1.00  0.00     0.043 A 
HETATM   28  C20 UNL     1      27.832  -0.341  53.463  1.00  0.00     0.116 A 
HETATM   29  F1  UNL     1      28.744  -1.278  53.738  1.00  0.00    -0.206 F 
HETATM   30  C21 UNL     1      27.577   0.767  54.274  1.00  0.00     0.043 A 
HETATM   31  C22 UNL     1      26.620   1.695  53.926  1.00  0.00     0.020 A 
ENDBRANCH  22  25
ENDBRANCH  20  21
ENDBRANCH   1  20
TORSDOF 6
ENDMDL
MODEL 9
REMARK VINA RESULT:      -8.9      3.551      5.821
REMARK  6 active torsions:
REMARK  status: ('A' for Active; 'I' for Inactive)
REMARK       I    between atoms: C1_2  and  N1_3 
REMARK    1  A    between atoms: C1_2  and  C17_23 
REMARK    2  A    between atoms: N1_3  and  C2_4 
REMARK    3  A    between atoms: C2_4  and  C3_5 
REMARK    4  A    between atoms: C4_6  and  N2_7 
REMARK    5  A    between atoms: N2_7  and  C5_8 
REMARK    6  A    between atoms: C8_12  and  C9_13 
ROOT
HETATM    1  C3  UNL     1      23.433   3.447  50.322  1.00  0.00    -0.032 A 
HETATM    2  C4  UNL     1      22.223   2.976  50.707  1.00  0.00     0.053 A 
HETATM    3  C14 UNL     1      21.451   2.338  49.645  1.00  0.00     0.026 A 
HETATM    4  C15 UNL     1      22.243   2.446  48.604  1.00  0.00    -0.020 A 
HETATM    5  C16 UNL     1      23.543   3.138  48.888  1.00  0.00     0.065 A 
ENDROOT
BRANCH   2   6
HETATM    6  N2  UNL     1      21.641   3.036  52.031  1.00  0.00    -0.188 N 
HETATM    7  H4  UNL     1      21.420   3.886  52.627  1.00  0.00     0.184 HD
BRANCH   6   8
HETATM    8  C5  UNL     1      21.350   1.752  52.545  1.00  0.00     0.727 A 
HETATM    9  N3  UNL     1      22.366   1.139  53.207  1.00  0.00    -0.075 NA
HETATM   10  C6  UNL     1      22.223  -0.077  53.746  1.00  0.00     0.139 A 
HETATM   11  C7  UNL     1      21.066  -0.812  53.692  1.00  0.00     0.053 A 
HETATM   12  C8  UNL     1      20.036  -0.157  53.006  1.00  0.00     0.089 A 
HETATM   13  N5  UNL     1      20.209   1.055  52.477  1.00  0.00    -0.062 NA
BRANCH  12  14
HETATM   14  C9  UNL     1      18.736  -0.794  52.864  1.00  0.00     0.011 A 
HETATM   15  C10 UNL     1      18.367  -1.948  53.510  1.00  0.00     0.017 A 
HETATM   16  C11 UNL     1      17.108  -2.494  53.315  1.00  0.00     0.020 A 
HETATM   17  C12 UNL     1      16.164  -1.920  52.475  1.00  0.00     0.116 A 
HETATM   18  N4  UNL     1      16.561  -0.808  51.872  1.00  0.00    -0.272 NA
HETATM   19  C13 UNL     1      17.773  -0.255  52.040  1.00  0.00     0.130 A 
ENDBRANCH  12  14
ENDBRANCH   6   8
ENDBRANCH   2   6
BRANCH   1  20
HETATM   20  C2  UNL     1      24.308   4.111  51.322  1.00  0.00     0.159 C 
BRANCH  20  21
HETATM   21  N1  UNL     1      25.189   3.205  51.996  1.00  0.00    -0.353 N 
HETATM   22  C1  UNL     1      26.418   2.628  51.599  1.00  0.00     0.251 C 
HETATM   23  O1  UNL     1      26.841   2.943  50.446  1.00  0.00    -0.268 OA
HETATM   24  H1  UNL     1      24.936   2.865  52.973  1.00  0.00     0.163 HD
BRANCH  22  25
HETATM   25  C17 UNL     1      27.238   1.717  52.375  1.00  0.00     0.032 A 
HETATM   26  C18 UNL     1      27.095   0.376  52.243  1.00  0.00     0.020 A 
HETATM   27  C19 UNL     1      27.910  -0.450  53.009  1.00  0.00     0.043 A 
HETATM   28  C20 UNL     1      28.876  -0.024  53.914  1.00  0.00     0.116 A 
HETATM   29  F1  UNL     1      29.621  -0.884  54.613  1.00  0.00    -0.206 F 
HETATM   30  C21 UNL     1      28.981   1.365  54.011  1.00  0.00     0.043 A 
HETATM   31  C22 UNL     1      28.178   2.192  53.257  1.00  0.00     0.020 A 
ENDBRANCH  22  25
ENDBRANCH  20  21
ENDBRANCH   1  20
TORSDOF 6
ENDMDL
