MODEL 1
REMARK VINA RESULT:      -9.0      0.000      0.000
REMARK  4 active torsions:
REMARK  status: ('A' for Active; 'I' for Inactive)
REMARK    1  A    between atoms: C5_6  and  C6_7 
REMARK    2  A    between atoms: C6_7  and  C7_9 
REMARK    3  A    between atoms: C17_21  and  C18_22 
REMARK       I    between atoms: C18_22  and  N4_24 
REMARK    4  A    between atoms: N4_24  and  C19_25 
ROOT
HETATM    1  C1  UNL     1      23.826   7.512  49.371  1.00  0.00     0.021 C 
HETATM    2  C2  UNL     1      24.267   6.581  50.250  1.00  0.00    -0.039 C 
HETATM    3  C3  UNL     1      23.587   6.645  51.564  1.00  0.00     0.160 C 
HETATM    4  N1  UNL     1      22.826   5.503  51.851  1.00  0.00    -0.370 N 
HETATM    5  C4  UNL     1      22.207   4.290  52.143  1.00  0.00     0.128 C 
HETATM    6  C5  UNL     1      21.104   3.803  51.649  1.00  0.00     0.105 C 
HETATM    7  N2  UNL     1      23.312   4.068  53.025  1.00  0.00    -0.225 NA
HETATM    8  C12 UNL     1      24.289   3.327  52.530  1.00  0.00     0.234 C 
HETATM    9  N3  UNL     1      24.175   2.825  51.208  1.00  0.00    -0.253 NA
HETATM   10  C13 UNL     1      24.784   3.409  50.270  1.00  0.00     0.130 C 
HETATM   11  C14 UNL     1      25.644   4.434  49.723  1.00  0.00    -0.008 A 
HETATM   12  C15 UNL     1      26.791   3.905  49.191  1.00  0.00     0.015 A 
HETATM   13  C16 UNL     1      27.756   4.707  48.629  1.00  0.00     0.018 A 
HETATM   14  C17 UNL     1      27.535   6.060  48.614  1.00  0.00     0.032 A 
HETATM   15  C22 UNL     1      26.365   6.555  49.161  1.00  0.00     0.030 A 
HETATM   16  C23 UNL     1      25.356   5.770  49.746  1.00  0.00    -0.016 A 
HETATM   17  H5  UNL     1      21.878   5.962  51.843  1.00  0.00     0.161 HD
ENDROOT
BRANCH   6  18
HETATM   18  C6  UNL     1      20.640   2.544  52.092  1.00  0.00     0.186 C 
HETATM   19  O1  UNL     1      19.767   3.277  52.612  1.00  0.00    -0.287 OA
BRANCH  18  20
HETATM   20  C7  UNL     1      20.190   1.272  52.528  1.00  0.00     0.025 A 
HETATM   21  C8  UNL     1      21.018   1.001  53.531  1.00  0.00    -0.011 A 
HETATM   22  C9  UNL     1      20.796  -0.137  54.129  1.00  0.00     0.013 A 
HETATM   23  C10 UNL     1      19.672  -0.637  53.354  1.00  0.00     0.002 A 
HETATM   24  C11 UNL     1      19.272   0.152  52.396  1.00  0.00     0.016 A 
ENDBRANCH  18  20
ENDBRANCH   6  18
BRANCH  14  25
HETATM   25  C18 UNL     1      28.503   6.984  48.045  1.00  0.00     0.252 C 
HETATM   26  O2  UNL     1      28.604   7.330  46.819  1.00  0.00    -0.268 OA
HETATM   27  N4  UNL     1      29.496   7.639  48.819  1.00  0.00    -0.352 N 
HETATM   28  H14 UNL     1      29.580   7.489  49.841  1.00  0.00     0.163 HD
BRANCH  27  29
HETATM   29  C19 UNL     1      30.478   8.573  48.263  1.00  0.00     0.084 A 
HETATM   30  C20 UNL     1      31.841   8.642  48.805  1.00  0.00     0.027 A 
HETATM   31  C21 UNL     1      30.870   9.684  49.257  1.00  0.00     0.027 A 
ENDBRANCH  27  29
ENDBRANCH  14  25
TORSDOF 4
ENDMDL
MODEL 2
REMARK VINA RESULT:      -8.7      3.065     10.502
REMARK  4 active torsions:
REMARK  status: ('A' for Active; 'I' for Inactive)
REMARK    1  A    between atoms: C5_6  and  C6_7 
REMARK    2  A    between atoms: C6_7  and  C7_9 
REMARK    3  A    between atoms: C17_21  and  C18_22 
REMARK       I    between atoms: C18_22  and  N4_24 
REMARK    4  A    between atoms: N4_24  and  C19_25 
ROOT
HETATM    1  C1  UNL     1      22.312  -1.115  52.947  1.00  0.00     0.021 C 
HETATM    2  C2  UNL     1      22.142   0.221  52.817  1.00  0.00    -0.039 C 
HETATM    3  C3  UNL     1      23.151   1.017  53.553  1.00  0.00     0.160 C 
HETATM    4  N1  UNL     1      23.982   1.774  52.714  1.00  0.00    -0.370 N 
HETATM    5  C4  UNL     1      24.677   2.610  51.844  1.00  0.00     0.128 C 
HETATM    6  C5  UNL     1      25.613   2.297  50.994  1.00  0.00     0.105 C 
HETATM    7  N2  UNL     1      23.856   3.656  52.374  1.00  0.00    -0.225 NA
HETATM    8  C12 UNL     1      22.794   3.963  51.648  1.00  0.00     0.234 C 
HETATM    9  N3  UNL     1      22.555   3.257  50.441  1.00  0.00    -0.253 NA
HETATM   10  C13 UNL     1      21.704   2.325  50.427  1.00  0.00     0.130 C 
HETATM   11  C14 UNL     1      20.711   1.468  51.033  1.00  0.00    -0.008 A 
HETATM   12  C15 UNL     1      19.472   1.653  50.477  1.00  0.00     0.015 A 
HETATM   13  C16 UNL     1      18.377   0.946  50.916  1.00  0.00     0.018 A 
HETATM   14  C17 UNL     1      18.563   0.044  51.932  1.00  0.00     0.032 A 
HETATM   15  C22 UNL     1      19.828  -0.114  52.467  1.00  0.00     0.030 A 
HETATM   16  C23 UNL     1      20.972   0.590  52.048  1.00  0.00    -0.016 A 
HETATM   17  H5  UNL     1      24.884   1.271  52.921  1.00  0.00     0.161 HD
ENDROOT
BRANCH   6  18
HETATM   18  C6  UNL     1      26.200   3.310  50.203  1.00  0.00     0.186 C 
HETATM   19  O1  UNL     1      27.174   3.038  50.943  1.00  0.00    -0.287 OA
BRANCH  18  20
HETATM   20  C7  UNL     1      26.774   4.329  49.400  1.00  0.00     0.025 A 
HETATM   21  C8  UNL     1      25.807   5.239  49.355  1.00  0.00    -0.011 A 
HETATM   22  C9  UNL     1      26.100   6.313  48.674  1.00  0.00     0.013 A 
HETATM   23  C10 UNL     1      27.444   5.991  48.224  1.00  0.00     0.002 A 
HETATM   24  C11 UNL     1      27.893   4.832  48.622  1.00  0.00     0.016 A 
ENDBRANCH  18  20
ENDBRANCH   6  18
BRANCH  14  25
HETATM   25  C18 UNL     1      17.461  -0.743  52.463  1.00  0.00     0.252 C 
HETATM   26  O2  UNL     1      17.335  -1.177  53.658  1.00  0.00    -0.268 OA
HETATM   27  N4  UNL     1      16.346  -1.139  51.680  1.00  0.00    -0.352 N 
HETATM   28  H14 UNL     1      16.261  -0.884  50.679  1.00  0.00     0.163 HD
BRANCH  27  29
HETATM   29  C19 UNL     1      15.227  -1.931  52.197  1.00  0.00     0.084 A 
HETATM   30  C20 UNL     1      15.201  -3.390  52.039  1.00  0.00     0.027 A 
HETATM   31  C21 UNL     1      14.392  -2.582  51.077  1.00  0.00     0.027 A 
ENDBRANCH  27  29
ENDBRANCH  14  25
TORSDOF 4
ENDMDL
MODEL 3
REMARK VINA RESULT:      -8.5      4.892      6.655
REMARK  4 active torsions:
REMARK  status: ('A' for Active; 'I' for Inactive)
REMARK    1  A    between atoms: C5_6  and  C6_7 
REMARK    2  A    between atoms: C6_7  and  C7_9 
REMARK    3  A    between atoms: C17_21  and  C18_22 
REMARK       I    between atoms: C18_22  and  N4_24 
REMARK    4  A    between atoms: N4_24  and  C19_25 
ROOT
HETATM    1  C1  UNL     1      24.313   2.862  50.475  1.00  0.00     0.021 C 
HETATM    2  C2  UNL     1      23.341   2.640  51.392  1.00  0.00    -0.039 C 
HETATM    3  C3  UNL     1      22.292   3.687  51.401  1.00  0.00     0.160 C 
HETATM    4  N1  UNL     1      21.031   3.211  51.017  1.00  0.00    -0.370 N 
HETATM    5  C4  UNL     1      19.779   2.653  50.769  1.00  0.00     0.128 C 
HETATM    6  C5  UNL     1      19.287   2.236  49.637  1.00  0.00     0.105 C 
HETATM    7  N2  UNL     1      19.561   2.798  52.177  1.00  0.00    -0.225 NA
HETATM    8  C12 UNL     1      19.783   1.712  52.897  1.00  0.00     0.234 C 
HETATM    9  N3  UNL     1      20.206   0.525  52.246  1.00  0.00    -0.253 NA
HETATM   10  C13 UNL     1      21.428   0.210  52.266  1.00  0.00     0.130 C 
HETATM   11  C14 UNL     1      22.813   0.411  52.629  1.00  0.00    -0.008 A 
HETATM   12  C15 UNL     1      23.270  -0.583  53.454  1.00  0.00     0.015 A 
HETATM   13  C16 UNL     1      24.560  -0.580  53.932  1.00  0.00     0.018 A 
HETATM   14  C17 UNL     1      25.379   0.453  53.556  1.00  0.00     0.032 A 
HETATM   15  C22 UNL     1      24.880   1.437  52.723  1.00  0.00     0.030 A 
HETATM   16  C23 UNL     1      23.569   1.471  52.215  1.00  0.00    -0.016 A 
HETATM   17  H5  UNL     1      20.940   3.762  50.124  1.00  0.00     0.161 HD
ENDROOT
BRANCH   6  18
HETATM   18  C6  UNL     1      17.978   1.705  49.602  1.00  0.00     0.186 C 
HETATM   19  O1  UNL     1      17.903   2.496  48.633  1.00  0.00    -0.287 OA
BRANCH  18  20
HETATM   20  C7  UNL     1      16.668   1.162  49.581  1.00  0.00     0.025 A 
HETATM   21  C8  UNL     1      16.894  -0.141  49.702  1.00  0.00    -0.011 A 
HETATM   22  C9  UNL     1      15.820  -0.881  49.730  1.00  0.00     0.013 A 
HETATM   23  C10 UNL     1      14.788   0.132  49.583  1.00  0.00     0.002 A 
HETATM   24  C11 UNL     1      15.230   1.356  49.491  1.00  0.00     0.016 A 
ENDBRANCH  18  20
ENDBRANCH   6  18
BRANCH  14  25
HETATM   25  C18 UNL     1      26.756   0.540  54.018  1.00  0.00     0.252 C 
HETATM   26  O2  UNL     1      27.318   1.548  54.567  1.00  0.00    -0.268 OA
HETATM   27  N4  UNL     1      27.679  -0.532  53.907  1.00  0.00    -0.352 N 
HETATM   28  H14 UNL     1      27.413  -1.441  53.486  1.00  0.00     0.163 HD
BRANCH  27  29
HETATM   29  C19 UNL     1      29.068  -0.463  54.367  1.00  0.00     0.084 A 
HETATM   30  C20 UNL     1      30.149  -0.093  53.445  1.00  0.00     0.027 A 
HETATM   31  C21 UNL     1      29.959  -1.548  53.732  1.00  0.00     0.027 A 
ENDBRANCH  27  29
ENDBRANCH  14  25
TORSDOF 4
ENDMDL
MODEL 4
REMARK VINA RESULT:      -8.4      5.461      7.371
REMARK  4 active torsions:
REMARK  status: ('A' for Active; 'I' for Inactive)
REMARK    1  A    between atoms: C5_6  and  C6_7 
REMARK    2  A    between atoms: C6_7  and  C7_9 
REMARK    3  A    between atoms: C17_21  and  C18_22 
REMARK       I    between atoms: C18_22  and  N4_24 
REMARK    4  A    between atoms: N4_24  and  C19_25 
ROOT
HETATM    1  C1  UNL     1      21.537  -0.204  54.891  1.00  0.00     0.021 C 
HETATM    2  C2  UNL     1      21.581  -0.043  53.548  1.00  0.00    -0.039 C 
HETATM    3  C3  UNL     1      20.465  -0.711  52.839  1.00  0.00     0.160 C 
HETATM    4  N1  UNL     1      19.605   0.186  52.189  1.00  0.00    -0.370 N 
HETATM    5  C4  UNL     1      18.872   1.109  51.447  1.00  0.00     0.128 C 
HETATM    6  C5  UNL     1      18.013   1.991  51.872  1.00  0.00     0.105 C 
HETATM    7  N2  UNL     1      19.561   0.574  50.312  1.00  0.00    -0.225 NA
HETATM    8  C12 UNL     1      20.620   1.261  49.919  1.00  0.00     0.234 C 
HETATM    9  N3  UNL     1      20.985   2.435  50.626  1.00  0.00    -0.253 NA
HETATM   10  C13 UNL     1      21.923   2.385  51.470  1.00  0.00     0.130 C 
HETATM   11  C14 UNL     1      22.965   1.710  52.209  1.00  0.00    -0.008 A 
HETATM   12  C15 UNL     1      24.205   2.215  51.915  1.00  0.00     0.015 A 
HETATM   13  C16 UNL     1      25.342   1.708  52.499  1.00  0.00     0.018 A 
HETATM   14  C17 UNL     1      25.198   0.676  53.390  1.00  0.00     0.032 A 
HETATM   15  C22 UNL     1      23.931   0.193  53.660  1.00  0.00     0.030 A 
HETATM   16  C23 UNL     1      22.745   0.683  53.084  1.00  0.00    -0.016 A 
HETATM   17  H5  UNL     1      18.748   0.005  52.773  1.00  0.00     0.161 HD
ENDROOT
BRANCH   6  18
HETATM   18  C6  UNL     1      17.367   2.836  50.942  1.00  0.00     0.186 C 
HETATM   19  O1  UNL     1      17.511   3.646  51.887  1.00  0.00    -0.287 OA
BRANCH  18  20
HETATM   20  C7  UNL     1      16.717   3.670  49.997  1.00  0.00     0.025 A 
HETATM   21  C8  UNL     1      15.491   3.772  50.497  1.00  0.00    -0.011 A 
HETATM   22  C9  UNL     1      14.679   4.523  49.804  1.00  0.00     0.013 A 
HETATM   23  C10 UNL     1      15.546   4.919  48.706  1.00  0.00     0.002 A 
HETATM   24  C11 UNL     1      16.760   4.445  48.768  1.00  0.00     0.016 A 
ENDBRANCH  18  20
ENDBRANCH   6  18
BRANCH  14  25
HETATM   25  C18 UNL     1      26.346   0.074  54.050  1.00  0.00     0.252 C 
HETATM   26  O2  UNL     1      26.378  -0.429  55.225  1.00  0.00    -0.268 OA
HETATM   27  N4  UNL     1      27.623  -0.029  53.441  1.00  0.00    -0.352 N 
HETATM   28  H14 UNL     1      27.803   0.325  52.484  1.00  0.00     0.163 HD
BRANCH  27  29
HETATM   29  C19 UNL     1      28.790  -0.632  54.091  1.00  0.00     0.084 A 
HETATM   30  C20 UNL     1      30.118  -0.558  53.470  1.00  0.00     0.027 A 
HETATM   31  C21 UNL     1      29.353  -1.832  53.304  1.00  0.00     0.027 A 
ENDBRANCH  27  29
ENDBRANCH  14  25
TORSDOF 4
ENDMDL
MODEL 5
REMARK VINA RESULT:      -8.3      4.515      6.844
REMARK  4 active torsions:
REMARK  status: ('A' for Active; 'I' for Inactive)
REMARK    1  A    between atoms: C5_6  and  C6_7 
REMARK    2  A    between atoms: C6_7  and  C7_9 
REMARK    3  A    between atoms: C17_21  and  C18_22 
REMARK       I    between atoms: C18_22  and  N4_24 
REMARK    4  A    between atoms: N4_24  and  C19_25 
ROOT
HETATM    1  C1  UNL     1      25.153   2.916  50.548  1.00  0.00     0.021 C 
HETATM    2  C2  UNL     1      24.036   2.975  51.310  1.00  0.00    -0.039 C 
HETATM    3  C3  UNL     1      23.358   4.292  51.258  1.00  0.00     0.160 C 
HETATM    4  N1  UNL     1      22.082   4.236  50.678  1.00  0.00    -0.370 N 
HETATM    5  C4  UNL     1      20.772   4.096  50.228  1.00  0.00     0.128 C 
HETATM    6  C5  UNL     1      20.350   3.883  49.014  1.00  0.00     0.105 C 
HETATM    7  N2  UNL     1      20.403   4.259  51.602  1.00  0.00    -0.225 NA
HETATM    8  C12 UNL     1      20.182   3.136  52.264  1.00  0.00     0.234 C 
HETATM    9  N3  UNL     1      20.322   1.896  51.590  1.00  0.00    -0.253 NA
HETATM   10  C13 UNL     1      21.378   1.222  51.746  1.00  0.00     0.130 C 
HETATM   11  C14 UNL     1      22.690   0.979  52.302  1.00  0.00    -0.008 A 
HETATM   12  C15 UNL     1      22.703  -0.131  53.105  1.00  0.00     0.015 A 
HETATM   13  C16 UNL     1      23.850  -0.537  53.747  1.00  0.00     0.018 A 
HETATM   14  C17 UNL     1      24.986   0.207  53.558  1.00  0.00     0.032 A 
HETATM   15  C22 UNL     1      24.932   1.320  52.741  1.00  0.00     0.030 A 
HETATM   16  C23 UNL     1      23.781   1.769  52.068  1.00  0.00    -0.016 A 
HETATM   17  H5  UNL     1      22.293   4.815  49.824  1.00  0.00     0.161 HD
ENDROOT
BRANCH   6  18
HETATM   18  C6  UNL     1      18.962   3.779  48.769  1.00  0.00     0.186 C 
HETATM   19  O1  UNL     1      19.136   4.979  48.452  1.00  0.00    -0.287 OA
BRANCH  18  20
HETATM   20  C7  UNL     1      17.570   3.657  48.529  1.00  0.00     0.025 A 
HETATM   21  C8  UNL     1      17.043   4.050  49.682  1.00  0.00    -0.011 A 
HETATM   22  C9  UNL     1      15.738   4.047  49.715  1.00  0.00     0.013 A 
HETATM   23  C10 UNL     1      15.434   3.558  48.381  1.00  0.00     0.002 A 
HETATM   24  C11 UNL     1      16.476   3.311  47.636  1.00  0.00     0.016 A 
ENDBRANCH  18  20
ENDBRANCH   6  18
BRANCH  14  25
HETATM   25  C18 UNL     1      26.243  -0.145  54.202  1.00  0.00     0.252 C 
HETATM   26  O2  UNL     1      26.405  -0.517  55.414  1.00  0.00    -0.268 OA
HETATM   27  N4  UNL     1      27.492  -0.114  53.530  1.00  0.00    -0.352 N 
HETATM   28  H14 UNL     1      27.571   0.164  52.534  1.00  0.00     0.163 HD
BRANCH  27  29
HETATM   29  C19 UNL     1      28.766  -0.465  54.161  1.00  0.00     0.084 A 
HETATM   30  C20 UNL     1      30.037  -0.259  53.456  1.00  0.00     0.027 A 
HETATM   31  C21 UNL     1      29.472  -1.643  53.460  1.00  0.00     0.027 A 
ENDBRANCH  27  29
ENDBRANCH  14  25
TORSDOF 4
ENDMDL
MODEL 6
REMARK VINA RESULT:      -8.1      4.965      8.376
REMARK  4 active torsions:
REMARK  status: ('A' for Active; 'I' for Inactive)
REMARK    1  A    between atoms: C5_6  and  C6_7 
REMARK    2  A    between atoms: C6_7  and  C7_9 
REMARK    3  A    between atoms: C17_21  and  C18_22 
REMARK       I    between atoms: C18_22  and  N4_24 
REMARK    4  A    between atoms: N4_24  and  C19_25 
ROOT
HETATM    1  C1  UNL     1      20.377   0.267  51.207  1.00  0.00     0.021 C 
HETATM    2  C2  UNL     1      21.326   1.190  51.491  1.00  0.00    -0.039 C 
HETATM    3  C3  UNL     1      21.740   1.190  52.913  1.00  0.00     0.160 C 
HETATM    4  N1  UNL     1      23.079   0.817  53.101  1.00  0.00    -0.370 N 
HETATM    5  C4  UNL     1      24.446   0.581  53.214  1.00  0.00     0.128 C 
HETATM    6  C5  UNL     1      25.090  -0.543  53.075  1.00  0.00     0.105 C 
HETATM    7  N2  UNL     1      24.554   1.987  53.460  1.00  0.00    -0.225 NA
HETATM    8  C12 UNL     1      24.876   2.721  52.408  1.00  0.00     0.234 C 
HETATM    9  N3  UNL     1      25.084   2.085  51.158  1.00  0.00    -0.253 NA
HETATM   10  C13 UNL     1      24.165   2.104  50.293  1.00  0.00     0.130 C 
HETATM   11  C14 UNL     1      22.852   2.460  49.805  1.00  0.00    -0.008 A 
HETATM   12  C15 UNL     1      22.922   3.296  48.722  1.00  0.00     0.015 A 
HETATM   13  C16 UNL     1      21.786   3.769  48.107  1.00  0.00     0.018 A 
HETATM   14  C17 UNL     1      20.574   3.376  48.613  1.00  0.00     0.032 A 
HETATM   15  C22 UNL     1      20.545   2.532  49.708  1.00  0.00     0.030 A 
HETATM   16  C23 UNL     1      21.682   2.028  50.365  1.00  0.00    -0.016 A 
HETATM   17  H5  UNL     1      22.901  -0.083  53.619  1.00  0.00     0.161 HD
ENDROOT
BRANCH   6  18
HETATM   18  C6  UNL     1      26.493  -0.567  53.240  1.00  0.00     0.186 C 
HETATM   19  O1  UNL     1      26.145  -0.868  54.406  1.00  0.00    -0.287 OA
BRANCH  18  20
HETATM   20  C7  UNL     1      27.903  -0.585  53.389  1.00  0.00     0.025 A 
HETATM   21  C8  UNL     1      28.175   0.675  53.711  1.00  0.00    -0.011 A 
HETATM   22  C9  UNL     1      29.438   0.922  53.925  1.00  0.00     0.013 A 
HETATM   23  C10 UNL     1      30.018  -0.387  53.674  1.00  0.00     0.002 A 
HETATM   24  C11 UNL     1      29.159  -1.315  53.353  1.00  0.00     0.016 A 
ENDBRANCH  18  20
ENDBRANCH   6  18
BRANCH  14  25
HETATM   25  C18 UNL     1      19.321   3.832  48.030  1.00  0.00     0.252 C 
HETATM   26  O2  UNL     1      18.813   5.001  48.122  1.00  0.00    -0.268 OA
HETATM   27  N4  UNL     1      18.478   2.993  47.257  1.00  0.00    -0.352 N 
HETATM   28  H14 UNL     1      18.716   2.002  47.068  1.00  0.00     0.163 HD
BRANCH  27  29
HETATM   29  C19 UNL     1      17.214   3.434  46.662  1.00  0.00     0.084 A 
HETATM   30  C20 UNL     1      16.060   2.529  46.588  1.00  0.00     0.027 A 
HETATM   31  C21 UNL     1      16.884   2.694  45.351  1.00  0.00     0.027 A 
ENDBRANCH  27  29
ENDBRANCH  14  25
TORSDOF 4
ENDMDL
MODEL 7
REMARK VINA RESULT:      -8.0      4.469      6.933
REMARK  4 active torsions:
REMARK  status: ('A' for Active; 'I' for Inactive)
REMARK    1  A    between atoms: C5_6  and  C6_7 
REMARK    2  A    between atoms: C6_7  and  C7_9 
REMARK    3  A    between atoms: C17_21  and  C18_22 
REMARK       I    between atoms: C18_22  and  N4_24 
REMARK    4  A    between atoms: N4_24  and  C19_25 
ROOT
HETATM    1  C1  UNL     1      26.622   3.677  49.369  1.00  0.00     0.021 C 
HETATM    2  C2  UNL     1      25.409   3.981  49.888  1.00  0.00    -0.039 C 
HETATM    3  C3  UNL     1      24.964   5.359  49.573  1.00  0.00     0.160 C 
HETATM    4  N1  UNL     1      23.820   5.400  48.763  1.00  0.00    -0.370 N 
HETATM    5  C4  UNL     1      22.606   5.379  48.082  1.00  0.00     0.128 C 
HETATM    6  C5  UNL     1      22.380   5.072  46.836  1.00  0.00     0.105 C 
HETATM    7  N2  UNL     1      22.026   5.764  49.333  1.00  0.00    -0.225 NA
HETATM    8  C12 UNL     1      21.519   4.774  50.048  1.00  0.00     0.234 C 
HETATM    9  N3  UNL     1      21.584   3.450  49.542  1.00  0.00    -0.253 NA
HETATM   10  C13 UNL     1      22.477   2.667  49.968  1.00  0.00     0.130 C 
HETATM   11  C14 UNL     1      23.615   2.325  50.792  1.00  0.00    -0.008 A 
HETATM   12  C15 UNL     1      23.312   1.334  51.688  1.00  0.00     0.015 A 
HETATM   13  C16 UNL     1      24.248   0.864  52.579  1.00  0.00     0.018 A 
HETATM   14  C17 UNL     1      25.501   1.419  52.544  1.00  0.00     0.032 A 
HETATM   15  C22 UNL     1      25.767   2.417  51.624  1.00  0.00     0.030 A 
HETATM   16  C23 UNL     1      24.838   2.925  50.698  1.00  0.00    -0.016 A 
HETATM   17  H5  UNL     1      24.267   5.832  47.913  1.00  0.00     0.161 HD
ENDROOT
BRANCH   6  18
HETATM   18  C6  UNL     1      21.059   5.123  46.336  1.00  0.00     0.186 C 
HETATM   19  O1  UNL     1      21.284   3.899  46.193  1.00  0.00    -0.287 OA
BRANCH  18  20
HETATM   20  C7  UNL     1      19.734   5.194  45.836  1.00  0.00     0.025 A 
HETATM   21  C8  UNL     1      19.078   4.366  46.641  1.00  0.00    -0.011 A 
HETATM   22  C9  UNL     1      17.800   4.265  46.396  1.00  0.00     0.013 A 
HETATM   23  C10 UNL     1      17.671   5.155  45.254  1.00  0.00     0.002 A 
HETATM   24  C11 UNL     1      18.781   5.731  44.879  1.00  0.00     0.016 A 
ENDBRANCH  18  20
ENDBRANCH   6  18
BRANCH  14  25
HETATM   25  C18 UNL     1      26.552   0.988  53.452  1.00  0.00     0.252 C 
HETATM   26  O2  UNL     1      26.686   1.316  54.680  1.00  0.00    -0.268 OA
HETATM   27  N4  UNL     1      27.600   0.114  53.065  1.00  0.00    -0.352 N 
HETATM   28  H14 UNL     1      27.668  -0.265  52.102  1.00  0.00     0.163 HD
BRANCH  27  29
HETATM   29  C19 UNL     1      28.666  -0.332  53.966  1.00  0.00     0.084 A 
HETATM   30  C20 UNL     1      30.077  -0.213  53.579  1.00  0.00     0.027 A 
HETATM   31  C21 UNL     1      29.433  -1.552  53.421  1.00  0.00     0.027 A 
ENDBRANCH  27  29
ENDBRANCH  14  25
TORSDOF 4
ENDMDL
MODEL 8
REMARK VINA RESULT:      -7.9      4.596      6.793
REMARK  4 active torsions:
REMARK  status: ('A' for Active; 'I' for Inactive)
REMARK    1  A    between atoms: C5_6  and  C6_7 
REMARK    2  A    between atoms: C6_7  and  C7_9 
REMARK    3  A    between atoms: C17_21  and  C18_22 
REMARK       I    between atoms: C18_22  and  N4_24 
REMARK    4  A    between atoms: N4_24  and  C19_25 
ROOT
HETATM    1  C1  UNL     1      22.598   1.450  52.931  1.00  0.00     0.021 C 
HETATM    2  C2  UNL     1      22.833   1.379  51.600  1.00  0.00    -0.039 C 
HETATM    3  C3  UNL     1      21.828   0.574  50.867  1.00  0.00     0.160 C 
HETATM    4  N1  UNL     1      21.070   1.327  49.958  1.00  0.00    -0.370 N 
HETATM    5  C4  UNL     1      20.452   2.093  48.973  1.00  0.00     0.128 C 
HETATM    6  C5  UNL     1      19.542   3.014  49.114  1.00  0.00     0.105 C 
HETATM    7  N2  UNL     1      21.294   1.387  48.055  1.00  0.00    -0.225 NA
HETATM    8  C12 UNL     1      22.400   2.021  47.702  1.00  0.00     0.234 C 
HETATM    9  N3  UNL     1      22.662   3.307  48.240  1.00  0.00    -0.253 NA
HETATM   10  C13 UNL     1      23.470   3.423  49.202  1.00  0.00     0.130 C 
HETATM   11  C14 UNL     1      24.396   2.909  50.186  1.00  0.00    -0.008 A 
HETATM   12  C15 UNL     1      25.665   3.385  49.986  1.00  0.00     0.015 A 
HETATM   13  C16 UNL     1      26.707   3.012  50.802  1.00  0.00     0.018 A 
HETATM   14  C17 UNL     1      26.437   2.144  51.829  1.00  0.00     0.032 A 
HETATM   15  C22 UNL     1      25.143   1.686  51.998  1.00  0.00     0.030 A 
HETATM   16  C23 UNL     1      24.052   2.042  51.185  1.00  0.00    -0.016 A 
HETATM   17  H5  UNL     1      20.139   1.229  50.439  1.00  0.00     0.161 HD
ENDROOT
BRANCH   6  18
HETATM   18  C6  UNL     1      19.036   3.673  47.971  1.00  0.00     0.186 C 
HETATM   19  O1  UNL     1      19.477   4.664  48.598  1.00  0.00    -0.287 OA
BRANCH  18  20
HETATM   20  C7  UNL     1      18.522   4.317  46.817  1.00  0.00     0.025 A 
HETATM   21  C8  UNL     1      18.501   3.334  45.924  1.00  0.00    -0.011 A 
HETATM   22  C9  UNL     1      18.038   3.673  44.751  1.00  0.00     0.013 A 
HETATM   23  C10 UNL     1      17.755   5.082  44.967  1.00  0.00     0.002 A 
HETATM   24  C11 UNL     1      18.021   5.517  46.168  1.00  0.00     0.016 A 
ENDBRANCH  18  20
ENDBRANCH   6  18
BRANCH  14  25
HETATM   25  C18 UNL     1      27.478   1.691  52.738  1.00  0.00     0.252 C 
HETATM   26  O2  UNL     1      28.271   2.424  53.421  1.00  0.00    -0.268 OA
HETATM   27  N4  UNL     1      27.749   0.320  52.982  1.00  0.00    -0.352 N 
HETATM   28  H14 UNL     1      27.211  -0.435  52.519  1.00  0.00     0.163 HD
BRANCH  27  29
HETATM   29  C19 UNL     1      28.793  -0.155  53.894  1.00  0.00     0.084 A 
HETATM   30  C20 UNL     1      30.183  -0.290  53.442  1.00  0.00     0.027 A 
HETATM   31  C21 UNL     1      29.353  -1.532  53.490  1.00  0.00     0.027 A 
ENDBRANCH  27  29
ENDBRANCH  14  25
TORSDOF 4
ENDMDL
MODEL 9
REMARK VINA RESULT:      -7.7      3.739     11.098
REMARK  4 active torsions:
REMARK  status: ('A' for Active; 'I' for Inactive)
REMARK    1  A    between atoms: C5_6  and  C6_7 
REMARK    2  A    between atoms: C6_7  and  C7_9 
REMARK    3  A    between atoms: C17_21  and  C18_22 
REMARK       I    between atoms: C18_22  and  N4_24 
REMARK    4  A    between atoms: N4_24  and  C19_25 
ROOT
HETATM    1  C1  UNL     1      30.283   5.085  47.747  1.00  0.00     0.021 C 
HETATM    2  C2  UNL     1      29.878   6.298  48.191  1.00  0.00    -0.039 C 
HETATM    3  C3  UNL     1      30.995   7.166  48.629  1.00  0.00     0.160 C 
HETATM    4  N1  UNL     1      31.149   8.314  47.838  1.00  0.00    -0.370 N 
HETATM    5  C4  UNL     1      31.162   9.501  47.110  1.00  0.00     0.128 C 
HETATM    6  C5  UNL     1      31.554   9.696  45.883  1.00  0.00     0.105 C 
HETATM    7  N2  UNL     1      30.594  10.094  48.283  1.00  0.00    -0.225 NA
HETATM    8  C12 UNL     1      29.278  10.225  48.267  1.00  0.00     0.234 C 
HETATM    9  N3  UNL     1      28.552   9.784  47.132  1.00  0.00    -0.253 NA
HETATM   10  C13 UNL     1      27.963   8.668  47.168  1.00  0.00     0.130 C 
HETATM   11  C14 UNL     1      27.566   7.433  47.805  1.00  0.00    -0.008 A 
HETATM   12  C15 UNL     1      26.207   7.358  47.965  1.00  0.00     0.015 A 
HETATM   13  C16 UNL     1      25.615   6.270  48.562  1.00  0.00     0.018 A 
HETATM   14  C17 UNL     1      26.430   5.256  48.995  1.00  0.00     0.032 A 
HETATM   15  C22 UNL     1      27.796   5.368  48.815  1.00  0.00     0.030 A 
HETATM   16  C23 UNL     1      28.440   6.463  48.211  1.00  0.00    -0.016 A 
HETATM   17  H5  UNL     1      32.089   8.075  47.428  1.00  0.00     0.161 HD
ENDROOT
BRANCH   6  18
HETATM   18  C6  UNL     1      31.492  10.995  45.331  1.00  0.00     0.186 C 
HETATM   19  O1  UNL     1      30.690  10.410  44.566  1.00  0.00    -0.287 OA
BRANCH  18  20
HETATM   20  C7  UNL     1      31.442  12.304  44.789  1.00  0.00     0.025 A 
HETATM   21  C8  UNL     1      30.394  12.834  45.411  1.00  0.00    -0.011 A 
HETATM   22  C9  UNL     1      30.141  14.074  45.093  1.00  0.00     0.013 A 
HETATM   23  C10 UNL     1      31.186  14.323  44.114  1.00  0.00     0.002 A 
HETATM   24  C11 UNL     1      31.984  13.314  43.895  1.00  0.00     0.016 A 
ENDBRANCH  18  20
ENDBRANCH   6  18
BRANCH  14  25
HETATM   25  C18 UNL     1      25.891   4.070  49.642  1.00  0.00     0.252 C 
HETATM   26  O2  UNL     1      24.975   3.300  49.193  1.00  0.00    -0.268 OA
HETATM   27  N4  UNL     1      26.338   3.608  50.907  1.00  0.00    -0.352 N 
HETATM   28  H14 UNL     1      27.080   4.100  51.438  1.00  0.00     0.163 HD
BRANCH  27  29
HETATM   29  C19 UNL     1      25.808   2.416  51.574  1.00  0.00     0.084 A 
HETATM   30  C20 UNL     1      26.174   2.105  52.962  1.00  0.00     0.027 A 
HETATM   31  C21 UNL     1      26.900   1.372  51.880  1.00  0.00     0.027 A 
ENDBRANCH  27  29
ENDBRANCH  14  25
TORSDOF 4
ENDMDL
