MODEL 1
REMARK VINA RESULT:      -7.4      0.000      0.000
REMARK  7 active torsions:
REMARK  status: ('A' for Active; 'I' for Inactive)
REMARK    1  A    between atoms: N1_2  and  N2_3 
REMARK    2  A    between atoms: N2_3  and  C2_4 
REMARK    3  A    between atoms: C2_4  and  N3_6 
REMARK    4  A    between atoms: N3_6  and  C3_7 
REMARK    5  A    between atoms: C6_10  and  O1_11 
REMARK    6  A    between atoms: O1_11  and  C7_12 
REMARK    7  A    between atoms: C7_12  and  C8_13 
ROOT
HETATM    1  C3  UNL     1      25.201   4.721  49.987  1.00  0.00     0.034 A 
HETATM    2  C4  UNL     1      24.270   4.270  50.927  1.00  0.00     0.032 A 
HETATM    3  C5  UNL     1      24.503   3.043  51.510  1.00  0.00     0.039 A 
HETATM    4  C6  UNL     1      25.635   2.336  51.136  1.00  0.00     0.069 A 
HETATM    5  C14 UNL     1      26.565   2.759  50.213  1.00  0.00     0.039 A 
HETATM    6  C15 UNL     1      26.315   3.977  49.647  1.00  0.00     0.032 A 
ENDROOT
BRANCH   1   7
HETATM    7  N3  UNL     1      24.917   5.986  49.426  1.00  0.00    -0.332 N 
HETATM    8  H6  UNL     1      24.700   5.814  48.421  1.00  0.00     0.168 HD
BRANCH   7   9
HETATM    9  C2  UNL     1      24.968   7.171  50.234  1.00  0.00     0.190 C 
HETATM   10  S1  UNL     1      23.566   8.021  50.390  1.00  0.00    -0.039 SA
BRANCH   9  11
HETATM   11  N2  UNL     1      26.167   7.596  50.881  1.00  0.00    -0.281 N 
HETATM   12  H5  UNL     1      26.179   7.543  51.926  1.00  0.00     0.189 HD
BRANCH  11  13
HETATM   13  N1  UNL     1      27.100   7.999  49.976  1.00  0.00    -0.339 N 
HETATM   14  C1  UNL     1      27.618   9.313  50.050  1.00  0.00     0.167 C 
HETATM   15  H4  UNL     1      27.464   7.351  49.293  1.00  0.00     0.179 HD
ENDBRANCH  11  13
ENDBRANCH   9  11
ENDBRANCH   7   9
ENDBRANCH   1   7
BRANCH   4  16
HETATM   16  O1  UNL     1      25.786   1.130  51.771  1.00  0.00    -0.347 OA
BRANCH  16  17
HETATM   17  C7  UNL     1      26.240   1.071  53.128  1.00  0.00     0.216 C 
BRANCH  17  18
HETATM   18  C8  UNL     1      27.443   0.188  53.184  1.00  0.00    -0.012 A 
HETATM   19  C9  UNL     1      27.352  -1.181  52.997  1.00  0.00     0.011 A 
HETATM   20  C10 UNL     1      28.532  -1.902  53.112  1.00  0.00     0.001 A 
HETATM   21  C11 UNL     1      29.703  -1.256  53.395  1.00  0.00     0.002 A 
HETATM   22  C12 UNL     1      29.807   0.112  53.581  1.00  0.00     0.024 A 
HETATM   23  C13 UNL     1      28.637   0.863  53.472  1.00  0.00     0.042 A 
HETATM   24 CL1  UNL     1      28.681   2.604  53.688  1.00  0.00    -0.084 Cl
ENDBRANCH  17  18
ENDBRANCH  16  17
ENDBRANCH   4  16
TORSDOF 7
ENDMDL
MODEL 2
REMARK VINA RESULT:      -7.0      5.924      7.942
REMARK  7 active torsions:
REMARK  status: ('A' for Active; 'I' for Inactive)
REMARK    1  A    between atoms: N1_2  and  N2_3 
REMARK    2  A    between atoms: N2_3  and  C2_4 
REMARK    3  A    between atoms: C2_4  and  N3_6 
REMARK    4  A    between atoms: N3_6  and  C3_7 
REMARK    5  A    between atoms: C6_10  and  O1_11 
REMARK    6  A    between atoms: O1_11  and  C7_12 
REMARK    7  A    between atoms: C7_12  and  C8_13 
ROOT
HETATM    1  C3  UNL     1      26.056  -0.483  53.262  1.00  0.00     0.034 A 
HETATM    2  C4  UNL     1      25.049  -0.897  54.138  1.00  0.00     0.032 A 
HETATM    3  C5  UNL     1      23.809  -0.311  53.997  1.00  0.00     0.039 A 
HETATM    4  C6  UNL     1      23.634   0.642  53.007  1.00  0.00     0.069 A 
HETATM    5  C14 UNL     1      24.611   1.065  52.133  1.00  0.00     0.039 A 
HETATM    6  C15 UNL     1      25.832   0.473  52.290  1.00  0.00     0.032 A 
ENDROOT
BRANCH   1   7
HETATM    7  N3  UNL     1      27.304  -1.120  53.446  1.00  0.00    -0.332 N 
HETATM    8  H6  UNL     1      27.192  -2.086  53.069  1.00  0.00     0.168 HD
BRANCH   7   9
HETATM    9  C2  UNL     1      28.400  -0.421  54.053  1.00  0.00     0.190 C 
HETATM   10  S1  UNL     1      29.914  -0.895  53.613  1.00  0.00    -0.039 SA
BRANCH   9  11
HETATM   11  N2  UNL     1      28.199   0.640  54.986  1.00  0.00    -0.281 N 
HETATM   12  H5  UNL     1      27.519   0.461  55.760  1.00  0.00     0.189 HD
BRANCH  11  13
HETATM   13  N1  UNL     1      28.966   1.721  54.676  1.00  0.00    -0.339 N 
HETATM   14  C1  UNL     1      28.605   2.538  53.581  1.00  0.00     0.167 C 
HETATM   15  H4  UNL     1      29.754   1.973  55.256  1.00  0.00     0.179 HD
ENDBRANCH  11  13
ENDBRANCH   9  11
ENDBRANCH   7   9
ENDBRANCH   1   7
BRANCH   4  16
HETATM   16  O1  UNL     1      22.369   1.165  52.939  1.00  0.00    -0.347 OA
BRANCH  16  17
HETATM   17  C7  UNL     1      21.617   1.105  51.722  1.00  0.00     0.216 C 
BRANCH  17  18
HETATM   18  C8  UNL     1      20.316   0.430  52.005  1.00  0.00    -0.012 A 
HETATM   19  C9  UNL     1      20.101  -0.278  53.175  1.00  0.00     0.011 A 
HETATM   20  C10 UNL     1      18.866  -0.896  53.308  1.00  0.00     0.001 A 
HETATM   21  C11 UNL     1      17.936  -0.787  52.312  1.00  0.00     0.002 A 
HETATM   22  C12 UNL     1      18.137  -0.080  51.139  1.00  0.00     0.024 A 
HETATM   23  C13 UNL     1      19.370   0.552  50.977  1.00  0.00     0.042 A 
HETATM   24 CL1  UNL     1      19.707   1.474  49.522  1.00  0.00    -0.084 Cl
ENDBRANCH  17  18
ENDBRANCH  16  17
ENDBRANCH   4  16
TORSDOF 7
ENDMDL
MODEL 3
REMARK VINA RESULT:      -6.8      2.386      3.152
REMARK  7 active torsions:
REMARK  status: ('A' for Active; 'I' for Inactive)
REMARK    1  A    between atoms: N1_2  and  N2_3 
REMARK    2  A    between atoms: N2_3  and  C2_4 
REMARK    3  A    between atoms: C2_4  and  N3_6 
REMARK    4  A    between atoms: N3_6  and  C3_7 
REMARK    5  A    between atoms: C6_10  and  O1_11 
REMARK    6  A    between atoms: O1_11  and  C7_12 
REMARK    7  A    between atoms: C7_12  and  C8_13 
ROOT
HETATM    1  C3  UNL     1      26.483   6.212  48.642  1.00  0.00     0.034 A 
HETATM    2  C4  UNL     1      25.129   6.173  48.987  1.00  0.00     0.032 A 
HETATM    3  C5  UNL     1      24.636   4.986  49.484  1.00  0.00     0.039 A 
HETATM    4  C6  UNL     1      25.502   3.911  49.614  1.00  0.00     0.069 A 
HETATM    5  C14 UNL     1      26.838   3.926  49.281  1.00  0.00     0.039 A 
HETATM    6  C15 UNL     1      27.306   5.111  48.790  1.00  0.00     0.032 A 
ENDROOT
BRANCH   1   7
HETATM    7  N3  UNL     1      26.936   7.454  48.145  1.00  0.00    -0.332 N 
HETATM    8  H6  UNL     1      27.167   7.295  47.140  1.00  0.00     0.168 HD
BRANCH   7   9
HETATM    9  C2  UNL     1      27.002   8.604  49.000  1.00  0.00     0.190 C 
HETATM   10  S1  UNL     1      26.151   9.930  48.523  1.00  0.00    -0.039 SA
BRANCH   9  11
HETATM   11  N2  UNL     1      27.756   8.605  50.212  1.00  0.00    -0.281 N 
HETATM   12  H5  UNL     1      27.413   7.980  50.977  1.00  0.00     0.189 HD
BRANCH  11  13
HETATM   13  N1  UNL     1      28.819   9.450  50.130  1.00  0.00    -0.339 N 
HETATM   14  C1  UNL     1      29.870   9.158  49.229  1.00  0.00     0.167 C 
HETATM   15  H4  UNL     1      28.835  10.308  50.661  1.00  0.00     0.179 HD
ENDBRANCH  11  13
ENDBRANCH   9  11
ENDBRANCH   7   9
ENDBRANCH   1   7
BRANCH   4  16
HETATM   16  O1  UNL     1      24.925   2.776  50.120  1.00  0.00    -0.347 OA
BRANCH  16  17
HETATM   17  C7  UNL     1      24.586   2.685  51.509  1.00  0.00     0.216 C 
BRANCH  17  18
HETATM   18  C8  UNL     1      25.189   1.435  52.061  1.00  0.00    -0.012 A 
HETATM   19  C9  UNL     1      26.499   1.076  51.790  1.00  0.00     0.011 A 
HETATM   20  C10 UNL     1      26.934  -0.127  52.325  1.00  0.00     0.001 A 
HETATM   21  C11 UNL     1      26.084  -0.890  53.075  1.00  0.00     0.002 A 
HETATM   22  C12 UNL     1      24.774  -0.541  53.355  1.00  0.00     0.024 A 
HETATM   23  C13 UNL     1      24.307   0.664  52.831  1.00  0.00     0.042 A 
HETATM   24 CL1  UNL     1      22.660   1.185  53.142  1.00  0.00    -0.084 Cl
ENDBRANCH  17  18
ENDBRANCH  16  17
ENDBRANCH   4  16
TORSDOF 7
ENDMDL
MODEL 4
REMARK VINA RESULT:      -6.7      3.918      4.715
REMARK  7 active torsions:
REMARK  status: ('A' for Active; 'I' for Inactive)
REMARK    1  A    between atoms: N1_2  and  N2_3 
REMARK    2  A    between atoms: N2_3  and  C2_4 
REMARK    3  A    between atoms: C2_4  and  N3_6 
REMARK    4  A    between atoms: N3_6  and  C3_7 
REMARK    5  A    between atoms: C6_10  and  O1_11 
REMARK    6  A    between atoms: O1_11  and  C7_12 
REMARK    7  A    between atoms: C7_12  and  C8_13 
ROOT
HETATM    1  C3  UNL     1      24.690   4.392  50.622  1.00  0.00     0.034 A 
HETATM    2  C4  UNL     1      24.462   3.227  49.884  1.00  0.00     0.032 A 
HETATM    3  C5  UNL     1      23.365   2.467  50.227  1.00  0.00     0.039 A 
HETATM    4  C6  UNL     1      22.560   2.896  51.270  1.00  0.00     0.069 A 
HETATM    5  C14 UNL     1      22.765   4.038  52.010  1.00  0.00     0.039 A 
HETATM    6  C15 UNL     1      23.857   4.777  51.655  1.00  0.00     0.032 A 
ENDROOT
BRANCH   1   7
HETATM    7  N3  UNL     1      25.823   5.137  50.224  1.00  0.00    -0.332 N 
HETATM    8  H6  UNL     1      26.633   4.483  50.284  1.00  0.00     0.168 HD
BRANCH   7   9
HETATM    9  C2  UNL     1      25.695   6.515  49.847  1.00  0.00     0.190 C 
HETATM   10  S1  UNL     1      24.872   6.828  48.455  1.00  0.00    -0.039 SA
BRANCH   9  11
HETATM   11  N2  UNL     1      26.242   7.571  50.635  1.00  0.00    -0.281 N 
HETATM   12  H5  UNL     1      25.758   7.780  51.539  1.00  0.00     0.189 HD
BRANCH  11  13
HETATM   13  N1  UNL     1      27.335   8.119  50.037  1.00  0.00    -0.339 N 
HETATM   14  C1  UNL     1      27.484   9.525  50.018  1.00  0.00     0.167 C 
HETATM   15  H4  UNL     1      28.062   7.529  49.660  1.00  0.00     0.179 HD
ENDBRANCH  11  13
ENDBRANCH   9  11
ENDBRANCH   7   9
ENDBRANCH   1   7
BRANCH   4  16
HETATM   16  O1  UNL     1      21.492   2.079  51.535  1.00  0.00    -0.347 OA
BRANCH  16  17
HETATM   17  C7  UNL     1      21.585   0.664  51.334  1.00  0.00     0.216 C 
BRANCH  17  18
HETATM   18  C8  UNL     1      21.979   0.029  52.627  1.00  0.00    -0.012 A 
HETATM   19  C9  UNL     1      23.305  -0.094  53.005  1.00  0.00     0.011 A 
HETATM   20  C10 UNL     1      23.549  -0.738  54.209  1.00  0.00     0.001 A 
HETATM   21  C11 UNL     1      22.506  -1.211  54.955  1.00  0.00     0.002 A 
HETATM   22  C12 UNL     1      21.176  -1.092  54.590  1.00  0.00     0.024 A 
HETATM   23  C13 UNL     1      20.900  -0.449  53.383  1.00  0.00     0.042 A 
HETATM   24 CL1  UNL     1      19.240  -0.250  52.847  1.00  0.00    -0.084 Cl
ENDBRANCH  17  18
ENDBRANCH  16  17
ENDBRANCH   4  16
TORSDOF 7
ENDMDL
MODEL 5
REMARK VINA RESULT:      -6.7      2.914      4.048
REMARK  7 active torsions:
REMARK  status: ('A' for Active; 'I' for Inactive)
REMARK    1  A    between atoms: N1_2  and  N2_3 
REMARK    2  A    between atoms: N2_3  and  C2_4 
REMARK    3  A    between atoms: C2_4  and  N3_6 
REMARK    4  A    between atoms: N3_6  and  C3_7 
REMARK    5  A    between atoms: C6_10  and  O1_11 
REMARK    6  A    between atoms: O1_11  and  C7_12 
REMARK    7  A    between atoms: C7_12  and  C8_13 
ROOT
HETATM    1  C3  UNL     1      24.660   4.509  50.721  1.00  0.00     0.034 A 
HETATM    2  C4  UNL     1      23.817   4.481  51.835  1.00  0.00     0.032 A 
HETATM    3  C5  UNL     1      23.959   3.425  52.710  1.00  0.00     0.039 A 
HETATM    4  C6  UNL     1      24.919   2.463  52.438  1.00  0.00     0.069 A 
HETATM    5  C14 UNL     1      25.760   2.470  51.348  1.00  0.00     0.039 A 
HETATM    6  C15 UNL     1      25.603   3.524  50.494  1.00  0.00     0.032 A 
ENDROOT
BRANCH   1   7
HETATM    7  N3  UNL     1      24.477   5.616  49.863  1.00  0.00    -0.332 N 
HETATM    8  H6  UNL     1      24.125   5.226  48.962  1.00  0.00     0.168 HD
BRANCH   7   9
HETATM    9  C2  UNL     1      24.773   6.946  50.313  1.00  0.00     0.190 C 
HETATM   10  S1  UNL     1      23.527   8.023  50.305  1.00  0.00    -0.039 SA
BRANCH   9  11
HETATM   11  N2  UNL     1      26.075   7.325  50.756  1.00  0.00    -0.281 N 
HETATM   12  H5  UNL     1      26.171   7.578  51.766  1.00  0.00     0.189 HD
BRANCH  11  13
HETATM   13  N1  UNL     1      26.976   7.276  49.737  1.00  0.00    -0.339 N 
HETATM   14  C1  UNL     1      27.377   8.475  49.106  1.00  0.00     0.167 C 
HETATM   15  H4  UNL     1      27.401   6.399  49.471  1.00  0.00     0.179 HD
ENDBRANCH  11  13
ENDBRANCH   9  11
ENDBRANCH   7   9
ENDBRANCH   1   7
BRANCH   4  16
HETATM   16  O1  UNL     1      24.990   1.455  53.364  1.00  0.00    -0.347 OA
BRANCH  16  17
HETATM   17  C7  UNL     1      24.739   0.096  52.986  1.00  0.00     0.216 C 
BRANCH  17  18
HETATM   18  C8  UNL     1      23.304  -0.211  53.260  1.00  0.00    -0.012 A 
HETATM   19  C9  UNL     1      22.299   0.154  52.380  1.00  0.00     0.011 A 
HETATM   20  C10 UNL     1      21.000  -0.150  52.761  1.00  0.00     0.001 A 
HETATM   21  C11 UNL     1      20.767  -0.779  53.953  1.00  0.00     0.002 A 
HETATM   22  C12 UNL     1      21.762  -1.151  54.839  1.00  0.00     0.024 A 
HETATM   23  C13 UNL     1      23.079  -0.858  54.483  1.00  0.00     0.042 A 
HETATM   24 CL1  UNL     1      24.403  -1.301  55.547  1.00  0.00    -0.084 Cl
ENDBRANCH  17  18
ENDBRANCH  16  17
ENDBRANCH   4  16
TORSDOF 7
ENDMDL
MODEL 6
REMARK VINA RESULT:      -6.6      3.036      4.309
REMARK  7 active torsions:
REMARK  status: ('A' for Active; 'I' for Inactive)
REMARK    1  A    between atoms: N1_2  and  N2_3 
REMARK    2  A    between atoms: N2_3  and  C2_4 
REMARK    3  A    between atoms: C2_4  and  N3_6 
REMARK    4  A    between atoms: N3_6  and  C3_7 
REMARK    5  A    between atoms: C6_10  and  O1_11 
REMARK    6  A    between atoms: O1_11  and  C7_12 
REMARK    7  A    between atoms: C7_12  and  C8_13 
ROOT
HETATM    1  C3  UNL     1      27.434   7.090  48.282  1.00  0.00     0.034 A 
HETATM    2  C4  UNL     1      26.116   6.954  48.727  1.00  0.00     0.032 A 
HETATM    3  C5  UNL     1      25.710   5.699  49.126  1.00  0.00     0.039 A 
HETATM    4  C6  UNL     1      26.621   4.657  49.066  1.00  0.00     0.069 A 
HETATM    5  C14 UNL     1      27.923   4.767  48.632  1.00  0.00     0.039 A 
HETATM    6  C15 UNL     1      28.305   6.018  48.240  1.00  0.00     0.032 A 
ENDROOT
BRANCH   1   7
HETATM    7  N3  UNL     1      27.800   8.397  47.891  1.00  0.00    -0.332 N 
HETATM    8  H6  UNL     1      27.960   8.356  46.862  1.00  0.00     0.168 HD
BRANCH   7   9
HETATM    9  C2  UNL     1      27.885   9.452  48.860  1.00  0.00     0.190 C 
HETATM   10  S1  UNL     1      27.076  10.843  48.511  1.00  0.00    -0.039 SA
BRANCH   9  11
HETATM   11  N2  UNL     1      28.624   9.311  50.073  1.00  0.00    -0.281 N 
HETATM   12  H5  UNL     1      28.132   8.843  50.869  1.00  0.00     0.189 HD
BRANCH  11  13
HETATM   13  N1  UNL     1      29.876   9.829  49.951  1.00  0.00    -0.339 N 
HETATM   14  C1  UNL     1      30.896   9.048  49.360  1.00  0.00     0.167 C 
HETATM   15  H4  UNL     1      30.065  10.782  50.225  1.00  0.00     0.179 HD
ENDBRANCH  11  13
ENDBRANCH   9  11
ENDBRANCH   7   9
ENDBRANCH   1   7
BRANCH   4  16
HETATM   16  O1  UNL     1      26.129   3.449  49.487  1.00  0.00    -0.347 OA
BRANCH  16  17
HETATM   17  C7  UNL     1      26.490   2.919  50.769  1.00  0.00     0.216 C 
BRANCH  17  18
HETATM   18  C8  UNL     1      25.242   2.498  51.472  1.00  0.00    -0.012 A 
HETATM   19  C9  UNL     1      24.146   3.337  51.578  1.00  0.00     0.011 A 
HETATM   20  C10 UNL     1      23.059   2.850  52.290  1.00  0.00     0.001 A 
HETATM   21  C11 UNL     1      23.107   1.600  52.842  1.00  0.00     0.002 A 
HETATM   22  C12 UNL     1      24.195   0.751  52.740  1.00  0.00     0.024 A 
HETATM   23  C13 UNL     1      25.304   1.213  52.030  1.00  0.00     0.042 A 
HETATM   24 CL1  UNL     1      26.724   0.198  51.849  1.00  0.00    -0.084 Cl
ENDBRANCH  17  18
ENDBRANCH  16  17
ENDBRANCH   4  16
TORSDOF 7
ENDMDL
MODEL 7
REMARK VINA RESULT:      -6.6      4.368      7.341
REMARK  7 active torsions:
REMARK  status: ('A' for Active; 'I' for Inactive)
REMARK    1  A    between atoms: N1_2  and  N2_3 
REMARK    2  A    between atoms: N2_3  and  C2_4 
REMARK    3  A    between atoms: C2_4  and  N3_6 
REMARK    4  A    between atoms: N3_6  and  C3_7 
REMARK    5  A    between atoms: C6_10  and  O1_11 
REMARK    6  A    between atoms: O1_11  and  C7_12 
REMARK    7  A    between atoms: C7_12  and  C8_13 
ROOT
HETATM    1  C3  UNL     1      26.087   2.129  53.216  1.00  0.00     0.034 A 
HETATM    2  C4  UNL     1      24.818   2.705  53.106  1.00  0.00     0.032 A 
HETATM    3  C5  UNL     1      24.464   3.227  51.880  1.00  0.00     0.039 A 
HETATM    4  C6  UNL     1      25.375   3.151  50.839  1.00  0.00     0.069 A 
HETATM    5  C14 UNL     1      26.629   2.588  50.923  1.00  0.00     0.039 A 
HETATM    6  C15 UNL     1      26.960   2.078  52.146  1.00  0.00     0.032 A 
ENDROOT
BRANCH   1   7
HETATM    7  N3  UNL     1      26.394   1.604  54.490  1.00  0.00    -0.332 N 
HETATM    8  H6  UNL     1      26.443   2.422  55.135  1.00  0.00     0.168 HD
BRANCH   7   9
HETATM    9  C2  UNL     1      26.574   0.192  54.675  1.00  0.00     0.190 C 
HETATM   10  S1  UNL     1      25.209  -0.728  54.705  1.00  0.00    -0.039 SA
BRANCH   9  11
HETATM   11  N2  UNL     1      27.866  -0.396  54.817  1.00  0.00    -0.281 N 
HETATM   12  H5  UNL     1      28.283  -0.385  55.776  1.00  0.00     0.189 HD
BRANCH  11  13
HETATM   13  N1  UNL     1      28.320  -0.881  53.629  1.00  0.00    -0.339 N 
HETATM   14  C1  UNL     1      29.604  -1.470  53.565  1.00  0.00     0.167 C 
HETATM   15  H4  UNL     1      27.726  -0.876  52.813  1.00  0.00     0.179 HD
ENDBRANCH  11  13
ENDBRANCH   9  11
ENDBRANCH   7   9
ENDBRANCH   1   7
BRANCH   4  16
HETATM   16  O1  UNL     1      24.934   3.691  49.659  1.00  0.00    -0.347 OA
BRANCH  16  17
HETATM   17  C7  UNL     1      24.390   5.016  49.619  1.00  0.00     0.216 C 
BRANCH  17  18
HETATM   18  C8  UNL     1      25.507   5.976  49.371  1.00  0.00    -0.012 A 
HETATM   19  C9  UNL     1      26.609   5.632  48.607  1.00  0.00     0.011 A 
HETATM   20  C10 UNL     1      27.600   6.594  48.481  1.00  0.00     0.001 A 
HETATM   21  C11 UNL     1      27.458   7.807  49.095  1.00  0.00     0.002 A 
HETATM   22  C12 UNL     1      26.360   8.164  49.859  1.00  0.00     0.024 A 
HETATM   23  C13 UNL     1      25.347   7.217  50.004  1.00  0.00     0.042 A 
HETATM   24 CL1  UNL     1      23.917   7.589  50.952  1.00  0.00    -0.084 Cl
ENDBRANCH  17  18
ENDBRANCH  16  17
ENDBRANCH   4  16
TORSDOF 7
ENDMDL
MODEL 8
REMARK VINA RESULT:      -6.6      4.419      7.228
REMARK  7 active torsions:
REMARK  status: ('A' for Active; 'I' for Inactive)
REMARK    1  A    between atoms: N1_2  and  N2_3 
REMARK    2  A    between atoms: N2_3  and  C2_4 
REMARK    3  A    between atoms: C2_4  and  N3_6 
REMARK    4  A    between atoms: N3_6  and  C3_7 
REMARK    5  A    between atoms: C6_10  and  O1_11 
REMARK    6  A    between atoms: O1_11  and  C7_12 
REMARK    7  A    between atoms: C7_12  and  C8_13 
ROOT
HETATM    1  C3  UNL     1      24.437   1.052  53.082  1.00  0.00     0.034 A 
HETATM    2  C4  UNL     1      23.584   0.801  52.004  1.00  0.00     0.032 A 
HETATM    3  C5  UNL     1      23.260   1.868  51.193  1.00  0.00     0.039 A 
HETATM    4  C6  UNL     1      23.794   3.112  51.488  1.00  0.00     0.069 A 
HETATM    5  C14 UNL     1      24.637   3.382  52.543  1.00  0.00     0.039 A 
HETATM    6  C15 UNL     1      24.945   2.312  53.335  1.00  0.00     0.032 A 
ENDROOT
BRANCH   1   7
HETATM    7  N3  UNL     1      24.742  -0.077  53.875  1.00  0.00    -0.332 N 
HETATM    8  H6  UNL     1      23.839  -0.385  54.295  1.00  0.00     0.168 HD
BRANCH   7   9
HETATM    9  C2  UNL     1      26.089  -0.562  53.969  1.00  0.00     0.190 C 
HETATM   10  S1  UNL     1      26.651  -1.433  52.689  1.00  0.00    -0.039 SA
BRANCH   9  11
HETATM   11  N2  UNL     1      26.912  -0.302  55.105  1.00  0.00    -0.281 N 
HETATM   12  H5  UNL     1      26.419  -0.130  56.011  1.00  0.00     0.189 HD
BRANCH  11  13
HETATM   13  N1  UNL     1      28.232  -0.335  54.775  1.00  0.00    -0.339 N 
HETATM   14  C1  UNL     1      28.930   0.880  54.584  1.00  0.00     0.167 C 
HETATM   15  H4  UNL     1      28.726  -1.214  54.723  1.00  0.00     0.179 HD
ENDBRANCH  11  13
ENDBRANCH   9  11
ENDBRANCH   7   9
ENDBRANCH   1   7
BRANCH   4  16
HETATM   16  O1  UNL     1      23.420   4.109  50.626  1.00  0.00    -0.347 OA
BRANCH  16  17
HETATM   17  C7  UNL     1      23.763   4.041  49.236  1.00  0.00     0.216 C 
BRANCH  17  18
HETATM   18  C8  UNL     1      24.773   5.102  48.947  1.00  0.00    -0.012 A 
HETATM   19  C9  UNL     1      24.399   6.389  48.598  1.00  0.00     0.011 A 
HETATM   20  C10 UNL     1      25.426   7.277  48.314  1.00  0.00     0.001 A 
HETATM   21  C11 UNL     1      26.728   6.864  48.388  1.00  0.00     0.002 A 
HETATM   22  C12 UNL     1      27.114   5.582  48.738  1.00  0.00     0.024 A 
HETATM   23  C13 UNL     1      26.102   4.666  49.029  1.00  0.00     0.042 A 
HETATM   24 CL1  UNL     1      26.505   3.021  49.488  1.00  0.00    -0.084 Cl
ENDBRANCH  17  18
ENDBRANCH  16  17
ENDBRANCH   4  16
TORSDOF 7
ENDMDL
MODEL 9
REMARK VINA RESULT:      -6.6      4.571      7.068
REMARK  7 active torsions:
REMARK  status: ('A' for Active; 'I' for Inactive)
REMARK    1  A    between atoms: N1_2  and  N2_3 
REMARK    2  A    between atoms: N2_3  and  C2_4 
REMARK    3  A    between atoms: C2_4  and  N3_6 
REMARK    4  A    between atoms: N3_6  and  C3_7 
REMARK    5  A    between atoms: C6_10  and  O1_11 
REMARK    6  A    between atoms: O1_11  and  C7_12 
REMARK    7  A    between atoms: C7_12  and  C8_13 
ROOT
HETATM    1  C3  UNL     1      24.490   0.915  53.223  1.00  0.00     0.034 A 
HETATM    2  C4  UNL     1      25.022   2.187  53.448  1.00  0.00     0.032 A 
HETATM    3  C5  UNL     1      24.571   3.213  52.644  1.00  0.00     0.039 A 
HETATM    4  C6  UNL     1      23.626   2.927  51.672  1.00  0.00     0.069 A 
HETATM    5  C14 UNL     1      23.088   1.682  51.433  1.00  0.00     0.039 A 
HETATM    6  C15 UNL     1      23.548   0.681  52.239  1.00  0.00     0.032 A 
ENDROOT
BRANCH   1   7
HETATM    7  N3  UNL     1      24.980  -0.096  54.079  1.00  0.00    -0.332 N 
HETATM    8  H6  UNL     1      24.188  -0.351  54.707  1.00  0.00     0.168 HD
BRANCH   7   9
HETATM    9  C2  UNL     1      26.334  -0.558  53.963  1.00  0.00     0.190 C 
HETATM   10  S1  UNL     1      26.720  -1.379  52.589  1.00  0.00    -0.039 SA
BRANCH   9  11
HETATM   11  N2  UNL     1      27.307  -0.315  54.978  1.00  0.00    -0.281 N 
HETATM   12  H5  UNL     1      27.385  -1.033  55.734  1.00  0.00     0.189 HD
BRANCH  11  13
HETATM   13  N1  UNL     1      27.976   0.848  54.752  1.00  0.00    -0.339 N 
HETATM   14  C1  UNL     1      29.291   0.804  54.235  1.00  0.00     0.167 C 
HETATM   15  H4  UNL     1      27.519   1.738  54.895  1.00  0.00     0.179 HD
ENDBRANCH  11  13
ENDBRANCH   9  11
ENDBRANCH   7   9
ENDBRANCH   1   7
BRANCH   4  16
HETATM   16  O1  UNL     1      23.235   4.008  50.925  1.00  0.00    -0.347 OA
BRANCH  16  17
HETATM   17  C7  UNL     1      23.402   4.013  49.503  1.00  0.00     0.216 C 
BRANCH  17  18
HETATM   18  C8  UNL     1      24.756   4.560  49.189  1.00  0.00    -0.012 A 
HETATM   19  C9  UNL     1      25.902   3.794  49.328  1.00  0.00     0.011 A 
HETATM   20  C10 UNL     1      27.105   4.424  49.046  1.00  0.00     0.001 A 
HETATM   21  C11 UNL     1      27.117   5.733  48.653  1.00  0.00     0.002 A 
HETATM   22  C12 UNL     1      25.978   6.507  48.508  1.00  0.00     0.024 A 
HETATM   23  C13 UNL     1      24.753   5.902  48.785  1.00  0.00     0.042 A 
HETATM   24 CL1  UNL     1      23.260   6.810  48.621  1.00  0.00    -0.084 Cl
ENDBRANCH  17  18
ENDBRANCH  16  17
ENDBRANCH   4  16
TORSDOF 7
ENDMDL
