MODEL 1
REMARK VINA RESULT:      -8.2      0.000      0.000
REMARK  4 active torsions:
REMARK  status: ('A' for Active; 'I' for Inactive)
REMARK    1  A    between atoms: O1_2  and  C2_3 
REMARK    2  A    between atoms: C6_9  and  C7_10 
REMARK    3  A    between atoms: C7_10  and  C9_12 
REMARK    4  A    between atoms: C9_12  and  C10_13 
ROOT
HETATM    1  C2  UNL     1      20.012   2.416  50.293  1.00  0.00     0.103 C 
HETATM    2  C3  UNL     1      19.569   1.235  50.783  1.00  0.00     0.067 C 
HETATM    3  C4  UNL     1      20.899   1.207  51.480  1.00  0.00     0.042 C 
HETATM    4  N1  UNL     1      21.219   1.816  52.578  1.00  0.00    -0.246 NA
HETATM    5  C5  UNL     1      22.489   1.771  53.204  1.00  0.00     0.233 C 
HETATM    6  N2  UNL     1      23.684   2.061  53.027  1.00  0.00    -0.244 NA
HETATM    7  C6  UNL     1      24.206   2.655  51.872  1.00  0.00     0.064 C 
HETATM    8  C16 UNL     1      23.775   3.779  51.381  1.00  0.00     0.056 C 
HETATM    9  C17 UNL     1      22.716   4.707  51.831  1.00  0.00     0.226 C 
HETATM   10  O2  UNL     1      23.071   6.026  51.917  1.00  0.00    -0.384 OA
HETATM   11  C18 UNL     1      24.129   6.507  51.217  1.00  0.00     0.187 C 
HETATM   12  C19 UNL     1      24.406   5.805  49.894  1.00  0.00     0.149 C 
HETATM   13  N3  UNL     1      24.045   4.421  50.103  1.00  0.00    -0.377 N 
HETATM   14  C20 UNL     1      23.916   3.587  48.962  1.00  0.00     0.149 C 
HETATM   15  C21 UNL     1      22.683   3.786  48.137  1.00  0.00     0.195 C 
HETATM   16  O3  UNL     1      21.537   3.554  48.882  1.00  0.00    -0.347 OA
HETATM   17  C22 UNL     1      21.133   2.312  49.317  1.00  0.00     0.098 C 
HETATM   18  C23 UNL     1      21.395   0.986  49.183  1.00  0.00     0.019 C 
HETATM   19  C24 UNL     1      21.640   0.306  50.511  1.00  0.00     0.089 C 
ENDROOT
BRANCH   7  20
HETATM   20  C7  UNL     1      25.298   1.673  51.656  1.00  0.00     0.040 C 
HETATM   21  C8  UNL     1      26.418   2.446  50.899  1.00  0.00     0.017 C 
BRANCH  20  22
HETATM   22  C9  UNL     1      25.882   1.301  53.017  1.00  0.00     0.044 C 
BRANCH  22  23
HETATM   23  C10 UNL     1      26.723   0.083  52.974  1.00  0.00    -0.079 A 
HETATM   24  C11 UNL     1      26.223  -1.048  52.520  1.00  0.00     0.002 A 
HETATM   25  C12 UNL     1      27.142  -2.194  52.513  1.00  0.00    -0.004 A 
HETATM   26  C13 UNL     1      28.330  -1.827  52.984  1.00  0.00    -0.026 A 
HETATM   27  C14 UNL     1      28.988  -0.617  53.506  1.00  0.00     0.031 A 
HETATM   28  C15 UNL     1      28.024   0.531  53.534  1.00  0.00     0.038 A 
ENDBRANCH  22  23
ENDBRANCH  20  22
ENDBRANCH   7  20
BRANCH   1  29
HETATM   29  O1  UNL     1      19.413   3.570  50.735  1.00  0.00    -0.353 OA
HETATM   30  C1  UNL     1      18.109   3.690  51.247  1.00  0.00     0.210 C 
ENDBRANCH   1  29
TORSDOF 4
ENDMDL
MODEL 2
REMARK VINA RESULT:      -7.9      1.848      2.611
REMARK  4 active torsions:
REMARK  status: ('A' for Active; 'I' for Inactive)
REMARK    1  A    between atoms: O1_2  and  C2_3 
REMARK    2  A    between atoms: C6_9  and  C7_10 
REMARK    3  A    between atoms: C7_10  and  C9_12 
REMARK    4  A    between atoms: C9_12  and  C10_13 
ROOT
HETATM    1  C2  UNL     1      19.314   1.402  49.642  1.00  0.00     0.103 C 
HETATM    2  C3  UNL     1      18.912   0.701  50.728  1.00  0.00     0.067 C 
HETATM    3  C4  UNL     1      19.837   1.624  51.468  1.00  0.00     0.042 C 
HETATM    4  N1  UNL     1      19.586   2.834  51.859  1.00  0.00    -0.246 NA
HETATM    5  C5  UNL     1      20.488   3.679  52.551  1.00  0.00     0.233 C 
HETATM    6  N2  UNL     1      21.589   4.245  52.440  1.00  0.00    -0.244 NA
HETATM    7  C6  UNL     1      22.424   4.168  51.319  1.00  0.00     0.064 C 
HETATM    8  C16 UNL     1      22.046   4.485  50.116  1.00  0.00     0.056 C 
HETATM    9  C17 UNL     1      20.759   4.984  49.588  1.00  0.00     0.226 C 
HETATM   10  O2  UNL     1      20.827   6.093  48.788  1.00  0.00    -0.384 OA
HETATM   11  C18 UNL     1      21.982   6.423  48.158  1.00  0.00     0.187 C 
HETATM   12  C19 UNL     1      22.876   5.249  47.783  1.00  0.00     0.149 C 
HETATM   13  N3  UNL     1      22.695   4.270  48.831  1.00  0.00    -0.377 N 
HETATM   14  C20 UNL     1      23.173   2.953  48.602  1.00  0.00     0.149 C 
HETATM   15  C21 UNL     1      22.359   2.110  47.671  1.00  0.00     0.195 C 
HETATM   16  O3  UNL     1      21.065   1.946  48.144  1.00  0.00    -0.347 OA
HETATM   17  C22 UNL     1      20.732   1.184  49.241  1.00  0.00     0.098 C 
HETATM   18  C23 UNL     1      21.240   0.285  50.122  1.00  0.00     0.019 C 
HETATM   19  C24 UNL     1      21.041   0.707  51.561  1.00  0.00     0.089 C 
ENDROOT
BRANCH   7  20
HETATM   20  C7  UNL     1      23.656   3.786  52.052  1.00  0.00     0.040 C 
HETATM   21  C8  UNL     1      23.764   4.780  53.246  1.00  0.00     0.017 C 
BRANCH  20  22
HETATM   22  C9  UNL     1      23.438   2.405  52.666  1.00  0.00     0.044 C 
BRANCH  22  23
HETATM   23  C10 UNL     1      24.605   1.508  52.506  1.00  0.00    -0.079 A 
HETATM   24  C11 UNL     1      25.634   1.888  51.777  1.00  0.00     0.002 A 
HETATM   25  C12 UNL     1      26.742   0.927  51.689  1.00  0.00    -0.004 A 
HETATM   26  C13 UNL     1      26.457  -0.162  52.395  1.00  0.00    -0.026 A 
HETATM   27  C14 UNL     1      25.363  -0.683  53.232  1.00  0.00     0.031 A 
HETATM   28  C15 UNL     1      24.231   0.299  53.283  1.00  0.00     0.038 A 
ENDBRANCH  22  23
ENDBRANCH  20  22
ENDBRANCH   7  20
BRANCH   1  29
HETATM   29  O1  UNL     1      18.407   2.234  49.034  1.00  0.00    -0.353 OA
HETATM   30  C1  UNL     1      17.006   2.162  49.138  1.00  0.00     0.210 C 
ENDBRANCH   1  29
TORSDOF 4
ENDMDL
MODEL 3
REMARK VINA RESULT:      -7.9      1.764      4.546
REMARK  4 active torsions:
REMARK  status: ('A' for Active; 'I' for Inactive)
REMARK    1  A    between atoms: O1_2  and  C2_3 
REMARK    2  A    between atoms: C6_9  and  C7_10 
REMARK    3  A    between atoms: C7_10  and  C9_12 
REMARK    4  A    between atoms: C9_12  and  C10_13 
ROOT
HETATM    1  C2  UNL     1      23.257   6.751  48.493  1.00  0.00     0.103 C 
HETATM    2  C3  UNL     1      24.349   7.537  48.636  1.00  0.00     0.067 C 
HETATM    3  C4  UNL     1      24.892   6.368  49.408  1.00  0.00     0.042 C 
HETATM    4  N1  UNL     1      25.432   5.295  48.924  1.00  0.00    -0.246 NA
HETATM    5  C5  UNL     1      25.928   4.209  49.684  1.00  0.00     0.233 C 
HETATM    6  N2  UNL     1      25.578   3.329  50.490  1.00  0.00    -0.244 NA
HETATM    7  C6  UNL     1      24.275   3.148  50.967  1.00  0.00     0.064 C 
HETATM    8  C16 UNL     1      23.243   2.970  50.195  1.00  0.00     0.056 C 
HETATM    9  C17 UNL     1      23.114   2.898  48.725  1.00  0.00     0.226 C 
HETATM   10  O2  UNL     1      22.418   1.826  48.235  1.00  0.00    -0.384 OA
HETATM   11  C18 UNL     1      21.534   1.157  49.017  1.00  0.00     0.187 C 
HETATM   12  C19 UNL     1      20.844   1.997  50.083  1.00  0.00     0.149 C 
HETATM   13  N3  UNL     1      21.820   2.979  50.500  1.00  0.00    -0.377 N 
HETATM   14  C20 UNL     1      21.367   4.084  51.268  1.00  0.00     0.149 C 
HETATM   15  C21 UNL     1      20.618   5.142  50.520  1.00  0.00     0.195 C 
HETATM   16  O3  UNL     1      21.399   5.698  49.518  1.00  0.00    -0.347 OA
HETATM   17  C22 UNL     1      22.480   6.520  49.744  1.00  0.00     0.098 C 
HETATM   18  C23 UNL     1      23.121   7.213  50.720  1.00  0.00     0.019 C 
HETATM   19  C24 UNL     1      24.590   6.866  50.808  1.00  0.00     0.089 C 
ENDROOT
BRANCH   7  20
HETATM   20  C7  UNL     1      24.624   3.125  52.409  1.00  0.00     0.040 C 
HETATM   21  C8  UNL     1      23.688   4.167  53.088  1.00  0.00     0.017 C 
BRANCH  20  22
HETATM   22  C9  UNL     1      24.228   1.764  52.975  1.00  0.00     0.044 C 
BRANCH  22  23
HETATM   23  C10 UNL     1      25.380   0.847  53.143  1.00  0.00    -0.079 A 
HETATM   24  C11 UNL     1      25.284  -0.409  52.760  1.00  0.00     0.002 A 
HETATM   25  C12 UNL     1      26.485  -1.231  52.963  1.00  0.00    -0.004 A 
HETATM   26  C13 UNL     1      27.450  -0.498  53.509  1.00  0.00    -0.026 A 
HETATM   27  C14 UNL     1      27.665   0.885  53.966  1.00  0.00     0.031 A 
HETATM   28  C15 UNL     1      26.419   1.697  53.779  1.00  0.00     0.038 A 
ENDBRANCH  22  23
ENDBRANCH  20  22
ENDBRANCH   7  20
BRANCH   1  29
HETATM   29  O1  UNL     1      22.977   6.245  47.248  1.00  0.00    -0.353 OA
HETATM   30  C1  UNL     1      22.189   6.854  46.256  1.00  0.00     0.210 C 
ENDBRANCH   1  29
TORSDOF 4
ENDMDL
MODEL 4
REMARK VINA RESULT:      -7.8      2.625      5.438
REMARK  4 active torsions:
REMARK  status: ('A' for Active; 'I' for Inactive)
REMARK    1  A    between atoms: O1_2  and  C2_3 
REMARK    2  A    between atoms: C6_9  and  C7_10 
REMARK    3  A    between atoms: C7_10  and  C9_12 
REMARK    4  A    between atoms: C9_12  and  C10_13 
ROOT
HETATM    1  C2  UNL     1      23.994   7.315  48.360  1.00  0.00     0.103 C 
HETATM    2  C3  UNL     1      25.229   7.676  48.777  1.00  0.00     0.067 C 
HETATM    3  C4  UNL     1      25.206   6.348  49.478  1.00  0.00     0.042 C 
HETATM    4  N1  UNL     1      25.460   5.187  48.960  1.00  0.00    -0.246 NA
HETATM    5  C5  UNL     1      25.422   3.952  49.652  1.00  0.00     0.233 C 
HETATM    6  N2  UNL     1      24.657   3.194  50.272  1.00  0.00    -0.244 NA
HETATM    7  C6  UNL     1      23.297   3.433  50.501  1.00  0.00     0.064 C 
HETATM    8  C16 UNL     1      22.436   3.662  49.552  1.00  0.00     0.056 C 
HETATM    9  C17 UNL     1      22.585   3.729  48.083  1.00  0.00     0.226 C 
HETATM   10  O2  UNL     1      21.694   2.987  47.356  1.00  0.00    -0.384 OA
HETATM   11  C18 UNL     1      20.507   2.609  47.891  1.00  0.00     0.187 C 
HETATM   12  C19 UNL     1      19.925   3.564  48.924  1.00  0.00     0.149 C 
HETATM   13  N3  UNL     1      21.061   4.132  49.615  1.00  0.00    -0.377 N 
HETATM   14  C20 UNL     1      20.842   5.274  50.429  1.00  0.00     0.149 C 
HETATM   15  C21 UNL     1      20.634   6.567  49.705  1.00  0.00     0.195 C 
HETATM   16  O3  UNL     1      21.733   6.888  48.923  1.00  0.00    -0.347 OA
HETATM   17  C22 UNL     1      22.953   7.282  49.425  1.00  0.00     0.098 C 
HETATM   18  C23 UNL     1      23.575   7.657  50.572  1.00  0.00     0.019 C 
HETATM   19  C24 UNL     1      24.809   6.830  50.859  1.00  0.00     0.089 C 
ENDROOT
BRANCH   7  20
HETATM   20  C7  UNL     1      23.329   3.205  51.966  1.00  0.00     0.040 C 
HETATM   21  C8  UNL     1      23.032   4.588  52.617  1.00  0.00     0.017 C 
BRANCH  20  22
HETATM   22  C9  UNL     1      22.155   2.300  52.334  1.00  0.00     0.044 C 
BRANCH  22  23
HETATM   23  C10 UNL     1      22.568   1.088  53.080  1.00  0.00    -0.079 A 
HETATM   24  C11 UNL     1      23.823   0.691  53.050  1.00  0.00     0.002 A 
HETATM   25  C12 UNL     1      24.128  -0.516  53.829  1.00  0.00    -0.004 A 
HETATM   26  C13 UNL     1      23.028  -0.964  54.424  1.00  0.00    -0.026 A 
HETATM   27  C14 UNL     1      21.603  -0.606  54.529  1.00  0.00     0.031 A 
HETATM   28  C15 UNL     1      21.307   0.609  53.702  1.00  0.00     0.038 A 
ENDBRANCH  22  23
ENDBRANCH  20  22
ENDBRANCH   7  20
BRANCH   1  29
HETATM   29  O1  UNL     1      23.820   7.011  47.032  1.00  0.00    -0.353 OA
HETATM   30  C1  UNL     1      23.813   7.922  45.961  1.00  0.00     0.210 C 
ENDBRANCH   1  29
TORSDOF 4
ENDMDL
MODEL 5
REMARK VINA RESULT:      -7.7      5.660      9.092
REMARK  4 active torsions:
REMARK  status: ('A' for Active; 'I' for Inactive)
REMARK    1  A    between atoms: O1_2  and  C2_3 
REMARK    2  A    between atoms: C6_9  and  C7_10 
REMARK    3  A    between atoms: C7_10  and  C9_12 
REMARK    4  A    between atoms: C9_12  and  C10_13 
ROOT
HETATM    1  C2  UNL     1      26.950  11.626  47.208  1.00  0.00     0.103 C 
HETATM    2  C3  UNL     1      25.635  11.854  47.427  1.00  0.00     0.067 C 
HETATM    3  C4  UNL     1      25.685  10.528  48.129  1.00  0.00     0.042 C 
HETATM    4  N1  UNL     1      26.091  10.298  49.338  1.00  0.00    -0.246 NA
HETATM    5  C5  UNL     1      26.130   9.029  49.966  1.00  0.00     0.233 C 
HETATM    6  N2  UNL     1      26.649   7.904  49.880  1.00  0.00    -0.244 NA
HETATM    7  C6  UNL     1      27.555   7.509  48.888  1.00  0.00     0.064 C 
HETATM    8  C16 UNL     1      28.668   8.133  48.638  1.00  0.00     0.056 C 
HETATM    9  C17 UNL     1      29.286   9.327  49.253  1.00  0.00     0.226 C 
HETATM   10  O2  UNL     1      30.597   9.200  49.625  1.00  0.00    -0.384 OA
HETATM   11  C18 UNL     1      31.388   8.251  49.065  1.00  0.00     0.187 C 
HETATM   12  C19 UNL     1      31.041   7.879  47.629  1.00  0.00     0.149 C 
HETATM   13  N3  UNL     1      29.603   7.996  47.532  1.00  0.00    -0.377 N 
HETATM   14  C20 UNL     1      29.022   8.000  46.237  1.00  0.00     0.149 C 
HETATM   15  C21 UNL     1      29.180   9.262  45.448  1.00  0.00     0.195 C 
HETATM   16  O3  UNL     1      28.604  10.340  46.103  1.00  0.00    -0.347 OA
HETATM   17  C22 UNL     1      27.248  10.519  46.256  1.00  0.00     0.098 C 
HETATM   18  C23 UNL     1      26.045  10.039  45.848  1.00  0.00     0.019 C 
HETATM   19  C24 UNL     1      25.149   9.660  47.006  1.00  0.00     0.089 C 
ENDROOT
BRANCH   7  20
HETATM   20  C7  UNL     1      26.841   6.270  48.491  1.00  0.00     0.040 C 
HETATM   21  C8  UNL     1      27.916   5.143  48.493  1.00  0.00     0.017 C 
BRANCH  20  22
HETATM   22  C9  UNL     1      25.850   5.914  49.597  1.00  0.00     0.044 C 
BRANCH  22  23
HETATM   23  C10 UNL     1      24.713   5.095  49.116  1.00  0.00    -0.079 A 
HETATM   24  C11 UNL     1      24.610   3.833  49.478  1.00  0.00     0.002 A 
HETATM   25  C12 UNL     1      23.443   3.112  48.953  1.00  0.00    -0.004 A 
HETATM   26  C13 UNL     1      22.710   3.923  48.197  1.00  0.00    -0.026 A 
HETATM   27  C14 UNL     1      22.728   5.322  47.735  1.00  0.00     0.031 A 
HETATM   28  C15 UNL     1      23.942   6.029  48.257  1.00  0.00     0.038 A 
ENDBRANCH  22  23
ENDBRANCH  20  22
ENDBRANCH   7  20
BRANCH   1  29
HETATM   29  O1  UNL     1      27.865  12.406  47.872  1.00  0.00    -0.353 OA
HETATM   30  C1  UNL     1      27.625  13.663  48.453  1.00  0.00     0.210 C 
ENDBRANCH   1  29
TORSDOF 4
ENDMDL
MODEL 6
REMARK VINA RESULT:      -7.6      2.896      5.451
REMARK  4 active torsions:
REMARK  status: ('A' for Active; 'I' for Inactive)
REMARK    1  A    between atoms: O1_2  and  C2_3 
REMARK    2  A    between atoms: C6_9  and  C7_10 
REMARK    3  A    between atoms: C7_10  and  C9_12 
REMARK    4  A    between atoms: C9_12  and  C10_13 
ROOT
HETATM    1  C2  UNL     1      22.610   2.024  52.244  1.00  0.00     0.103 C 
HETATM    2  C3  UNL     1      23.664   2.328  53.036  1.00  0.00     0.067 C 
HETATM    3  C4  UNL     1      23.753   3.555  52.175  1.00  0.00     0.042 C 
HETATM    4  N1  UNL     1      23.053   4.640  52.284  1.00  0.00    -0.246 NA
HETATM    5  C5  UNL     1      23.162   5.777  51.448  1.00  0.00     0.233 C 
HETATM    6  N2  UNL     1      23.031   6.148  50.269  1.00  0.00    -0.244 NA
HETATM    7  C6  UNL     1      22.647   5.324  49.204  1.00  0.00     0.064 C 
HETATM    8  C16 UNL     1      21.550   4.625  49.193  1.00  0.00     0.056 C 
HETATM    9  C17 UNL     1      20.462   4.486  50.182  1.00  0.00     0.226 C 
HETATM   10  O2  UNL     1      19.190   4.645  49.702  1.00  0.00    -0.384 OA
HETATM   11  C18 UNL     1      18.921   4.477  48.383  1.00  0.00     0.187 C 
HETATM   12  C19 UNL     1      19.807   3.471  47.661  1.00  0.00     0.149 C 
HETATM   13  N3  UNL     1      21.106   3.575  48.288  1.00  0.00    -0.377 N 
HETATM   14  C20 UNL     1      22.055   2.553  48.025  1.00  0.00     0.149 C 
HETATM   15  C21 UNL     1      21.823   1.246  48.718  1.00  0.00     0.195 C 
HETATM   16  O3  UNL     1      21.832   1.399  50.096  1.00  0.00    -0.347 OA
HETATM   17  C22 UNL     1      22.958   1.676  50.838  1.00  0.00     0.098 C 
HETATM   18  C23 UNL     1      24.311   1.754  50.754  1.00  0.00     0.019 C 
HETATM   19  C24 UNL     1      24.844   3.086  51.232  1.00  0.00     0.089 C 
ENDROOT
BRANCH   7  20
HETATM   20  C7  UNL     1      23.763   5.690  48.297  1.00  0.00     0.040 C 
HETATM   21  C8  UNL     1      23.136   6.598  47.198  1.00  0.00     0.017 C 
BRANCH  20  22
HETATM   22  C9  UNL     1      24.740   6.571  49.072  1.00  0.00     0.044 C 
BRANCH  22  23
HETATM   23  C10 UNL     1      26.155   6.328  48.708  1.00  0.00    -0.079 A 
HETATM   24  C11 UNL     1      26.681   5.131  48.870  1.00  0.00     0.002 A 
HETATM   25  C12 UNL     1      28.089   4.995  48.472  1.00  0.00    -0.004 A 
HETATM   26  C13 UNL     1      28.546   6.155  48.012  1.00  0.00    -0.026 A 
HETATM   27  C14 UNL     1      28.057   7.527  47.787  1.00  0.00     0.031 A 
HETATM   28  C15 UNL     1      26.629   7.651  48.229  1.00  0.00     0.038 A 
ENDBRANCH  22  23
ENDBRANCH  20  22
ENDBRANCH   7  20
BRANCH   1  29
HETATM   29  O1  UNL     1      21.350   2.074  52.790  1.00  0.00    -0.353 OA
HETATM   30  C1  UNL     1      20.690   1.032  53.463  1.00  0.00     0.210 C 
ENDBRANCH   1  29
TORSDOF 4
ENDMDL
MODEL 7
REMARK VINA RESULT:      -7.3      2.380      4.654
REMARK  4 active torsions:
REMARK  status: ('A' for Active; 'I' for Inactive)
REMARK    1  A    between atoms: O1_2  and  C2_3 
REMARK    2  A    between atoms: C6_9  and  C7_10 
REMARK    3  A    between atoms: C7_10  and  C9_12 
REMARK    4  A    between atoms: C9_12  and  C10_13 
ROOT
HETATM    1  C2  UNL     1      21.224   3.497  47.284  1.00  0.00     0.103 C 
HETATM    2  C3  UNL     1      22.370   2.923  46.852  1.00  0.00     0.067 C 
HETATM    3  C4  UNL     1      22.246   2.105  48.105  1.00  0.00     0.042 C 
HETATM    4  N1  UNL     1      21.507   1.056  48.284  1.00  0.00    -0.246 NA
HETATM    5  C5  UNL     1      21.410   0.312  49.486  1.00  0.00     0.233 C 
HETATM    6  N2  UNL     1      21.071   0.407  50.677  1.00  0.00    -0.244 NA
HETATM    7  C6  UNL     1      20.574   1.567  51.283  1.00  0.00     0.064 C 
HETATM    8  C16 UNL     1      19.535   2.218  50.849  1.00  0.00     0.056 C 
HETATM    9  C17 UNL     1      18.628   1.977  49.707  1.00  0.00     0.226 C 
HETATM   10  O2  UNL     1      17.289   2.005  49.988  1.00  0.00    -0.384 OA
HETATM   11  C18 UNL     1      16.824   2.651  51.086  1.00  0.00     0.187 C 
HETATM   12  C19 UNL     1      17.645   3.856  51.528  1.00  0.00     0.149 C 
HETATM   13  N3  UNL     1      19.018   3.529  51.215  1.00  0.00    -0.377 N 
HETATM   14  C20 UNL     1      19.974   4.577  51.241  1.00  0.00     0.149 C 
HETATM   15  C21 UNL     1      19.937   5.531  50.088  1.00  0.00     0.195 C 
HETATM   16  O3  UNL     1      20.155   4.876  48.886  1.00  0.00    -0.347 OA
HETATM   17  C22 UNL     1      21.366   4.345  48.501  1.00  0.00     0.098 C 
HETATM   18  C23 UNL     1      22.680   4.306  48.838  1.00  0.00     0.019 C 
HETATM   19  C24 UNL     1      23.200   2.893  48.982  1.00  0.00     0.089 C 
ENDROOT
BRANCH   7  20
HETATM   20  C7  UNL     1      21.507   1.568  52.437  1.00  0.00     0.040 C 
HETATM   21  C8  UNL     1      20.695   1.002  53.638  1.00  0.00     0.017 C 
BRANCH  20  22
HETATM   22  C9  UNL     1      22.615   0.556  52.156  1.00  0.00     0.044 C 
BRANCH  22  23
HETATM   23  C10 UNL     1      23.882   0.874  52.855  1.00  0.00    -0.079 A 
HETATM   24  C11 UNL     1      24.368   2.097  52.815  1.00  0.00     0.002 A 
HETATM   25  C12 UNL     1      25.624   2.308  53.546  1.00  0.00    -0.004 A 
HETATM   26  C13 UNL     1      26.014   1.173  54.117  1.00  0.00    -0.026 A 
HETATM   27  C14 UNL     1      25.558  -0.224  54.228  1.00  0.00     0.031 A 
HETATM   28  C15 UNL     1      24.293  -0.424  53.450  1.00  0.00     0.038 A 
ENDBRANCH  22  23
ENDBRANCH  20  22
ENDBRANCH   7  20
BRANCH   1  29
HETATM   29  O1  UNL     1      20.067   3.245  46.589  1.00  0.00    -0.353 OA
HETATM   30  C1  UNL     1      19.665   3.855  45.388  1.00  0.00     0.210 C 
ENDBRANCH   1  29
TORSDOF 4
ENDMDL
MODEL 8
REMARK VINA RESULT:      -7.1      8.622     11.665
REMARK  4 active torsions:
REMARK  status: ('A' for Active; 'I' for Inactive)
REMARK    1  A    between atoms: O1_2  and  C2_3 
REMARK    2  A    between atoms: C6_9  and  C7_10 
REMARK    3  A    between atoms: C7_10  and  C9_12 
REMARK    4  A    between atoms: C9_12  and  C10_13 
ROOT
HETATM    1  C2  UNL     1      31.217  12.091  45.778  1.00  0.00     0.103 C 
HETATM    2  C3  UNL     1      32.169  11.981  44.823  1.00  0.00     0.067 C 
HETATM    3  C4  UNL     1      32.019  10.507  45.066  1.00  0.00     0.042 C 
HETATM    4  N1  UNL     1      31.106   9.724  44.584  1.00  0.00    -0.246 NA
HETATM    5  C5  UNL     1      30.991   8.337  44.842  1.00  0.00     0.233 C 
HETATM    6  N2  UNL     1      30.809   7.517  45.758  1.00  0.00    -0.244 NA
HETATM    7  C6  UNL     1      30.626   7.846  47.107  1.00  0.00     0.064 C 
HETATM    8  C16 UNL     1      29.700   8.653  47.532  1.00  0.00     0.056 C 
HETATM    9  C17 UNL     1      28.645   9.404  46.820  1.00  0.00     0.226 C 
HETATM   10  O2  UNL     1      27.377   9.280  47.322  1.00  0.00    -0.384 OA
HETATM   11  C18 UNL     1      27.175   8.900  48.608  1.00  0.00     0.187 C 
HETATM   12  C19 UNL     1      28.265   9.312  49.588  1.00  0.00     0.149 C 
HETATM   13  N3  UNL     1      29.502   9.262  48.839  1.00  0.00    -0.377 N 
HETATM   14  C20 UNL     1      30.648   9.878  49.406  1.00  0.00     0.149 C 
HETATM   15  C21 UNL     1      30.680  11.374  49.363  1.00  0.00     0.195 C 
HETATM   16  O3  UNL     1      30.629  11.841  48.059  1.00  0.00    -0.347 OA
HETATM   17  C22 UNL     1      31.658  11.721  47.152  1.00  0.00     0.098 C 
HETATM   18  C23 UNL     1      32.967  11.372  47.048  1.00  0.00     0.019 C 
HETATM   19  C24 UNL     1      33.202  10.312  45.995  1.00  0.00     0.089 C 
ENDROOT
BRANCH   7  20
HETATM   20  C7  UNL     1      31.659   6.927  47.646  1.00  0.00     0.040 C 
HETATM   21  C8  UNL     1      31.011   6.241  48.884  1.00  0.00     0.017 C 
BRANCH  20  22
HETATM   22  C9  UNL     1      31.896   5.820  46.621  1.00  0.00     0.044 C 
BRANCH  22  23
HETATM   23  C10 UNL     1      32.857   4.793  47.088  1.00  0.00    -0.079 A 
HETATM   24  C11 UNL     1      34.019   5.157  47.589  1.00  0.00     0.002 A 
HETATM   25  C12 UNL     1      34.894   4.062  48.028  1.00  0.00    -0.004 A 
HETATM   26  C13 UNL     1      34.299   2.893  47.820  1.00  0.00    -0.026 A 
HETATM   27  C14 UNL     1      33.028   2.378  47.281  1.00  0.00     0.031 A 
HETATM   28  C15 UNL     1      32.164   3.509  46.810  1.00  0.00     0.038 A 
ENDBRANCH  22  23
ENDBRANCH  20  22
ENDBRANCH   7  20
BRANCH   1  29
HETATM   29  O1  UNL     1      29.965  12.511  45.403  1.00  0.00    -0.353 OA
HETATM   30  C1  UNL     1      29.623  13.782  44.909  1.00  0.00     0.210 C 
ENDBRANCH   1  29
TORSDOF 4
ENDMDL
MODEL 9
REMARK VINA RESULT:      -7.0      9.028     10.781
REMARK  4 active torsions:
REMARK  status: ('A' for Active; 'I' for Inactive)
REMARK    1  A    between atoms: O1_2  and  C2_3 
REMARK    2  A    between atoms: C6_9  and  C7_10 
REMARK    3  A    between atoms: C7_10  and  C9_12 
REMARK    4  A    between atoms: C9_12  and  C10_13 
ROOT
HETATM    1  C2  UNL     1      28.167  10.636  48.381  1.00  0.00     0.103 C 
HETATM    2  C3  UNL     1      27.764   9.938  49.468  1.00  0.00     0.067 C 
HETATM    3  C4  UNL     1      29.014   9.142  49.223  1.00  0.00     0.042 C 
HETATM    4  N1  UNL     1      30.221   9.455  49.576  1.00  0.00    -0.246 NA
HETATM    5  C5  UNL     1      31.379   8.681  49.322  1.00  0.00     0.233 C 
HETATM    6  N2  UNL     1      32.071   8.219  48.399  1.00  0.00    -0.244 NA
HETATM    7  C6  UNL     1      31.812   8.391  47.034  1.00  0.00     0.064 C 
HETATM    8  C16 UNL     1      31.683   9.554  46.466  1.00  0.00     0.056 C 
HETATM    9  C17 UNL     1      31.765  10.928  47.006  1.00  0.00     0.226 C 
HETATM   10  O2  UNL     1      32.579  11.792  46.324  1.00  0.00    -0.384 OA
HETATM   11  C18 UNL     1      32.903  11.562  45.028  1.00  0.00     0.187 C 
HETATM   12  C19 UNL     1      31.848  10.825  44.214  1.00  0.00     0.149 C 
HETATM   13  N3  UNL     1      31.211   9.911  45.137  1.00  0.00    -0.377 N 
HETATM   14  C20 UNL     1      29.992   9.304  44.737  1.00  0.00     0.149 C 
HETATM   15  C21 UNL     1      28.780  10.181  44.765  1.00  0.00     0.195 C 
HETATM   16  O3  UNL     1      28.538  10.665  46.042  1.00  0.00    -0.347 OA
HETATM   17  C22 UNL     1      28.094   9.893  47.092  1.00  0.00     0.098 C 
HETATM   18  C23 UNL     1      27.603   8.663  47.393  1.00  0.00     0.019 C 
HETATM   19  C24 UNL     1      28.394   7.974  48.482  1.00  0.00     0.089 C 
ENDROOT
BRANCH   7  20
HETATM   20  C7  UNL     1      31.890   6.956  46.665  1.00  0.00     0.040 C 
HETATM   21  C8  UNL     1      32.825   6.890  45.422  1.00  0.00     0.017 C 
BRANCH  20  22
HETATM   22  C9  UNL     1      32.616   6.214  47.784  1.00  0.00     0.044 C 
BRANCH  22  23
HETATM   23  C10 UNL     1      32.890   4.795  47.458  1.00  0.00    -0.079 A 
HETATM   24  C11 UNL     1      31.915   4.014  47.043  1.00  0.00     0.002 A 
HETATM   25  C12 UNL     1      32.294   2.628  46.739  1.00  0.00    -0.004 A 
HETATM   26  C13 UNL     1      33.594   2.454  46.953  1.00  0.00    -0.026 A 
HETATM   27  C14 UNL     1      34.755   3.239  47.405  1.00  0.00     0.031 A 
HETATM   28  C15 UNL     1      34.341   4.641  47.739  1.00  0.00     0.038 A 
ENDBRANCH  22  23
ENDBRANCH  20  22
ENDBRANCH   7  20
BRANCH   1  29
HETATM   29  O1  UNL     1      28.605  11.925  48.562  1.00  0.00    -0.353 OA
HETATM   30  C1  UNL     1      27.817  13.088  48.520  1.00  0.00     0.210 C 
ENDBRANCH   1  29
TORSDOF 4
ENDMDL
