MODEL 1
REMARK VINA RESULT:      -7.7      0.000      0.000
REMARK  6 active torsions:
REMARK  status: ('A' for Active; 'I' for Inactive)
REMARK    1  A    between atoms: C5_5  and  C6_6 
REMARK    2  A    between atoms: N2_16  and  C15_17 
REMARK    3  A    between atoms: C15_17  and  S1_18 
REMARK    4  A    between atoms: S1_18  and  C16_19 
REMARK    5  A    between atoms: C17_20  and  N3_21 
REMARK    6  A    between atoms: C17_20  and  O1_22 
ROOT
HETATM    1  C6  UNL     1      23.894   1.378  51.372  1.00  0.00     0.172 C 
HETATM    2  C7  UNL     1      22.731   1.016  52.233  1.00  0.00    -0.017 A 
HETATM    3  C8  UNL     1      22.462  -0.269  52.707  1.00  0.00     0.017 A 
HETATM    4  C9  UNL     1      21.420  -0.497  53.579  1.00  0.00    -0.061 A 
HETATM    5  C10 UNL     1      21.143  -1.873  54.075  1.00  0.00     0.048 C 
HETATM    6  C11 UNL     1      20.619   0.546  54.005  1.00  0.00     0.007 A 
HETATM    7  C12 UNL     1      20.889   1.819  53.532  1.00  0.00     0.014 A 
HETATM    8  C13 UNL     1      21.938   2.064  52.648  1.00  0.00    -0.008 A 
HETATM    9  C14 UNL     1      21.960   3.442  52.173  1.00  0.00     0.150 C 
HETATM   10  N1  UNL     1      22.830   3.714  51.229  1.00  0.00    -0.187 NA
HETATM   11  N2  UNL     1      23.643   2.649  50.762  1.00  0.00    -0.282 N 
ENDROOT
BRANCH  11  12
HETATM   12  C15 UNL     1      24.227   3.026  49.466  1.00  0.00     0.224 C 
BRANCH  12  13
HETATM   13  S1  UNL     1      23.642   4.687  48.990  1.00  0.00    -0.116 SA
BRANCH  13  14
HETATM   14  C16 UNL     1      24.973   5.858  49.102  1.00  0.00     0.101 C 
HETATM   15  C17 UNL     1      25.164   6.392  50.287  1.00  0.00     0.139 C 
BRANCH  15  16
HETATM   16  N3  UNL     1      26.138   7.349  50.695  1.00  0.00    -0.380 N 
HETATM   17  H17 UNL     1      26.386   8.310  50.374  1.00  0.00     0.158 HD
HETATM   18  H18 UNL     1      26.909   7.474  51.392  1.00  0.00     0.158 HD
ENDBRANCH  15  16
BRANCH  15  19
HETATM   19  O1  UNL     1      24.485   6.190  51.487  1.00  0.00    -0.346 OA
HETATM   20  H19 UNL     1      24.528   6.975  52.131  1.00  0.00     0.219 HD
ENDBRANCH  15  19
ENDBRANCH  13  14
ENDBRANCH  12  13
ENDBRANCH  11  12
BRANCH   1  21
HETATM   21  C5  UNL     1      25.161   1.354  52.142  1.00  0.00    -0.029 A 
HETATM   22  C4  UNL     1      25.497   2.244  53.135  1.00  0.00     0.010 A 
HETATM   23  C3  UNL     1      26.655   2.250  53.863  1.00  0.00     0.007 A 
HETATM   24  C2  UNL     1      27.608   1.285  53.610  1.00  0.00    -0.062 A 
HETATM   25  C1  UNL     1      28.871   1.254  54.374  1.00  0.00     0.048 C 
HETATM   26  C19 UNL     1      27.344   0.359  52.632  1.00  0.00     0.007 A 
HETATM   27  C18 UNL     1      26.156   0.407  51.932  1.00  0.00     0.010 A 
ENDBRANCH   1  21
TORSDOF 6
ENDMDL
MODEL 2
REMARK VINA RESULT:      -7.6      1.894      4.854
REMARK  6 active torsions:
REMARK  status: ('A' for Active; 'I' for Inactive)
REMARK    1  A    between atoms: C5_5  and  C6_6 
REMARK    2  A    between atoms: N2_16  and  C15_17 
REMARK    3  A    between atoms: C15_17  and  S1_18 
REMARK    4  A    between atoms: S1_18  and  C16_19 
REMARK    5  A    between atoms: C17_20  and  N3_21 
REMARK    6  A    between atoms: C17_20  and  O1_22 
ROOT
HETATM    1  C6  UNL     1      23.508   3.436  52.160  1.00  0.00     0.172 C 
HETATM    2  C7  UNL     1      24.746   2.627  52.349  1.00  0.00    -0.017 A 
HETATM    3  C8  UNL     1      25.038   1.873  53.486  1.00  0.00     0.017 A 
HETATM    4  C9  UNL     1      26.160   1.075  53.537  1.00  0.00    -0.061 A 
HETATM    5  C10 UNL     1      26.461   0.278  54.758  1.00  0.00     0.048 C 
HETATM    6  C11 UNL     1      27.022   1.004  52.458  1.00  0.00     0.007 A 
HETATM    7  C12 UNL     1      26.729   1.754  51.332  1.00  0.00     0.014 A 
HETATM    8  C13 UNL     1      25.598   2.567  51.267  1.00  0.00    -0.008 A 
HETATM    9  C14 UNL     1      25.554   3.370  50.051  1.00  0.00     0.150 C 
HETATM   10  N1  UNL     1      24.597   4.264  49.983  1.00  0.00    -0.187 NA
HETATM   11  N2  UNL     1      23.719   4.368  51.093  1.00  0.00    -0.282 N 
ENDROOT
BRANCH  11  12
HETATM   12  C15 UNL     1      23.011   5.655  51.024  1.00  0.00     0.224 C 
BRANCH  12  13
HETATM   13  S1  UNL     1      23.650   6.632  49.621  1.00  0.00    -0.116 SA
BRANCH  13  14
HETATM   14  C16 UNL     1      24.668   7.959  50.218  1.00  0.00     0.101 C 
HETATM   15  C17 UNL     1      25.963   7.732  50.210  1.00  0.00     0.139 C 
BRANCH  15  16
HETATM   16  N3  UNL     1      27.027   8.587  50.619  1.00  0.00    -0.380 N 
HETATM   17  H17 UNL     1      27.742   9.148  50.107  1.00  0.00     0.158 HD
HETATM   18  H18 UNL     1      27.479   8.961  51.486  1.00  0.00     0.158 HD
ENDBRANCH  15  16
BRANCH  15  19
HETATM   19  O1  UNL     1      26.679   6.607  49.806  1.00  0.00    -0.346 OA
HETATM   20  H19 UNL     1      27.678   6.759  49.704  1.00  0.00     0.219 HD
ENDBRANCH  15  19
ENDBRANCH  13  14
ENDBRANCH  12  13
ENDBRANCH  11  12
BRANCH   1  21
HETATM   21  C5  UNL     1      22.327   2.568  51.935  1.00  0.00    -0.029 A 
HETATM   22  C4  UNL     1      22.320   1.432  51.159  1.00  0.00     0.010 A 
HETATM   23  C3  UNL     1      21.251   0.609  50.932  1.00  0.00     0.007 A 
HETATM   24  C2  UNL     1      20.039   0.912  51.519  1.00  0.00    -0.062 A 
HETATM   25  C1  UNL     1      18.860   0.050  51.300  1.00  0.00     0.048 C 
HETATM   26  C19 UNL     1      19.967   2.032  52.309  1.00  0.00     0.007 A 
HETATM   27  C18 UNL     1      21.083   2.821  52.499  1.00  0.00     0.010 A 
ENDBRANCH   1  21
TORSDOF 6
ENDMDL
MODEL 3
REMARK VINA RESULT:      -7.5      1.573      1.744
REMARK  6 active torsions:
REMARK  status: ('A' for Active; 'I' for Inactive)
REMARK    1  A    between atoms: C5_5  and  C6_6 
REMARK    2  A    between atoms: N2_16  and  C15_17 
REMARK    3  A    between atoms: C15_17  and  S1_18 
REMARK    4  A    between atoms: S1_18  and  C16_19 
REMARK    5  A    between atoms: C17_20  and  N3_21 
REMARK    6  A    between atoms: C17_20  and  O1_22 
ROOT
HETATM    1  C6  UNL     1      24.415   2.567  50.909  1.00  0.00     0.172 C 
HETATM    2  C7  UNL     1      22.995   2.463  51.355  1.00  0.00    -0.017 A 
HETATM    3  C8  UNL     1      22.252   1.283  51.376  1.00  0.00     0.017 A 
HETATM    4  C9  UNL     1      20.977   1.259  51.896  1.00  0.00    -0.061 A 
HETATM    5  C10 UNL     1      20.195  -0.008  51.912  1.00  0.00     0.048 C 
HETATM    6  C11 UNL     1      20.406   2.409  52.410  1.00  0.00     0.007 A 
HETATM    7  C12 UNL     1      21.145   3.578  52.384  1.00  0.00     0.014 A 
HETATM    8  C13 UNL     1      22.436   3.617  51.860  1.00  0.00    -0.008 A 
HETATM    9  C14 UNL     1      22.980   4.969  51.808  1.00  0.00     0.150 C 
HETATM   10  N1  UNL     1      24.131   5.106  51.196  1.00  0.00    -0.187 NA
HETATM   11  N2  UNL     1      24.719   3.940  50.640  1.00  0.00    -0.282 N 
ENDROOT
BRANCH  11  12
HETATM   12  C15 UNL     1      25.745   4.340  49.665  1.00  0.00     0.224 C 
BRANCH  12  13
HETATM   13  S1  UNL     1      25.174   5.805  48.741  1.00  0.00    -0.116 SA
BRANCH  13  14
HETATM   14  C16 UNL     1      26.335   7.136  48.930  1.00  0.00     0.101 C 
HETATM   15  C17 UNL     1      26.299   7.764  50.084  1.00  0.00     0.139 C 
BRANCH  15  16
HETATM   16  N3  UNL     1      27.092   8.858  50.537  1.00  0.00    -0.380 N 
HETATM   17  H17 UNL     1      28.069   9.169  50.349  1.00  0.00     0.158 HD
HETATM   18  H18 UNL     1      27.036   9.695  51.162  1.00  0.00     0.158 HD
ENDBRANCH  15  16
BRANCH  15  19
HETATM   19  O1  UNL     1      25.489   7.556  51.199  1.00  0.00    -0.346 OA
HETATM   20  H19 UNL     1      25.218   8.405  51.685  1.00  0.00     0.219 HD
ENDBRANCH  15  19
ENDBRANCH  13  14
ENDBRANCH  12  13
ENDBRANCH  11  12
BRANCH   1  21
HETATM   21  C5  UNL     1      25.335   1.961  51.902  1.00  0.00    -0.029 A 
HETATM   22  C4  UNL     1      25.326   2.228  53.251  1.00  0.00     0.010 A 
HETATM   23  C3  UNL     1      26.158   1.687  54.193  1.00  0.00     0.007 A 
HETATM   24  C2  UNL     1      27.117   0.779  53.793  1.00  0.00    -0.062 A 
HETATM   25  C1  UNL     1      28.036   0.171  54.777  1.00  0.00     0.048 C 
HETATM   26  C19 UNL     1      27.188   0.461  52.459  1.00  0.00     0.007 A 
HETATM   27  C18 UNL     1      26.319   1.042  51.560  1.00  0.00     0.010 A 
ENDBRANCH   1  21
TORSDOF 6
ENDMDL
MODEL 4
REMARK VINA RESULT:      -7.3      2.769      5.819
REMARK  6 active torsions:
REMARK  status: ('A' for Active; 'I' for Inactive)
REMARK    1  A    between atoms: C5_5  and  C6_6 
REMARK    2  A    between atoms: N2_16  and  C15_17 
REMARK    3  A    between atoms: C15_17  and  S1_18 
REMARK    4  A    between atoms: S1_18  and  C16_19 
REMARK    5  A    between atoms: C17_20  and  N3_21 
REMARK    6  A    between atoms: C17_20  and  O1_22 
ROOT
HETATM    1  C6  UNL     1      23.401   1.017  51.559  1.00  0.00     0.172 C 
HETATM    2  C7  UNL     1      23.327   2.304  50.809  1.00  0.00    -0.017 A 
HETATM    3  C8  UNL     1      22.865   2.435  49.498  1.00  0.00     0.017 A 
HETATM    4  C9  UNL     1      22.738   3.676  48.914  1.00  0.00    -0.061 A 
HETATM    5  C10 UNL     1      22.245   3.801  47.515  1.00  0.00     0.048 C 
HETATM    6  C11 UNL     1      23.065   4.821  49.617  1.00  0.00     0.007 A 
HETATM    7  C12 UNL     1      23.525   4.686  50.916  1.00  0.00     0.014 A 
HETATM    8  C13 UNL     1      23.660   3.437  51.519  1.00  0.00    -0.008 A 
HETATM    9  C14 UNL     1      24.285   3.514  52.834  1.00  0.00     0.150 C 
HETATM   10  N1  UNL     1      24.578   2.369  53.403  1.00  0.00    -0.187 NA
HETATM   11  N2  UNL     1      24.271   1.184  52.684  1.00  0.00    -0.282 N 
ENDROOT
BRANCH  11  12
HETATM   12  C15 UNL     1      25.028   0.064  53.264  1.00  0.00     0.224 C 
BRANCH  12  13
HETATM   13  S1  UNL     1      26.600  -0.146  52.361  1.00  0.00    -0.116 SA
BRANCH  13  14
HETATM   14  C16 UNL     1      27.944   0.517  53.315  1.00  0.00     0.101 C 
HETATM   15  C17 UNL     1      28.215   1.786  53.112  1.00  0.00     0.139 C 
BRANCH  15  16
HETATM   16  N3  UNL     1      29.219   2.598  53.716  1.00  0.00    -0.380 N 
HETATM   17  H17 UNL     1      29.203   3.508  54.226  1.00  0.00     0.158 HD
HETATM   18  H18 UNL     1      30.252   2.621  53.881  1.00  0.00     0.158 HD
ENDBRANCH  15  16
BRANCH  15  19
HETATM   19  O1  UNL     1      27.615   2.712  52.260  1.00  0.00    -0.346 OA
HETATM   20  H19 UNL     1      28.193   2.995  51.474  1.00  0.00     0.219 HD
ENDBRANCH  15  19
ENDBRANCH  13  14
ENDBRANCH  12  13
ENDBRANCH  11  12
BRANCH   1  21
HETATM   21  C5  UNL     1      22.051   0.543  51.948  1.00  0.00    -0.029 A 
HETATM   22  C4  UNL     1      21.721   0.026  53.179  1.00  0.00     0.010 A 
HETATM   23  C3  UNL     1      20.487  -0.419  53.570  1.00  0.00     0.007 A 
HETATM   24  C2  UNL     1      19.441  -0.361  52.671  1.00  0.00    -0.062 A 
HETATM   25  C1  UNL     1      18.094  -0.830  53.052  1.00  0.00     0.048 C 
HETATM   26  C19 UNL     1      19.693   0.145  51.420  1.00  0.00     0.007 A 
HETATM   27  C18 UNL     1      20.960   0.578  51.088  1.00  0.00     0.010 A 
ENDBRANCH   1  21
TORSDOF 6
ENDMDL
MODEL 5
REMARK VINA RESULT:      -7.2      2.704      5.342
REMARK  6 active torsions:
REMARK  status: ('A' for Active; 'I' for Inactive)
REMARK    1  A    between atoms: C5_5  and  C6_6 
REMARK    2  A    between atoms: N2_16  and  C15_17 
REMARK    3  A    between atoms: C15_17  and  S1_18 
REMARK    4  A    between atoms: S1_18  and  C16_19 
REMARK    5  A    between atoms: C17_20  and  N3_21 
REMARK    6  A    between atoms: C17_20  and  O1_22 
ROOT
HETATM    1  C6  UNL     1      24.896   3.338  49.730  1.00  0.00     0.172 C 
HETATM    2  C7  UNL     1      25.237   2.826  51.088  1.00  0.00    -0.017 A 
HETATM    3  C8  UNL     1      26.348   2.035  51.384  1.00  0.00     0.017 A 
HETATM    4  C9  UNL     1      26.643   1.687  52.684  1.00  0.00    -0.061 A 
HETATM    5  C10 UNL     1      27.830   0.841  52.986  1.00  0.00     0.048 C 
HETATM    6  C11 UNL     1      25.841   2.117  53.726  1.00  0.00     0.007 A 
HETATM    7  C12 UNL     1      24.740   2.900  53.428  1.00  0.00     0.014 A 
HETATM    8  C13 UNL     1      24.428   3.259  52.117  1.00  0.00    -0.008 A 
HETATM    9  C14 UNL     1      23.158   3.968  52.016  1.00  0.00     0.150 C 
HETATM   10  N1  UNL     1      22.728   4.212  50.802  1.00  0.00    -0.187 NA
HETATM   11  N2  UNL     1      23.526   3.754  49.721  1.00  0.00    -0.282 N 
ENDROOT
BRANCH  11  12
HETATM   12  C15 UNL     1      22.709   3.738  48.497  1.00  0.00     0.224 C 
BRANCH  12  13
HETATM   13  S1  UNL     1      22.323   2.014  48.042  1.00  0.00    -0.116 SA
BRANCH  13  14
HETATM   14  C16 UNL     1      20.853   1.476  48.883  1.00  0.00     0.101 C 
HETATM   15  C17 UNL     1      21.029   1.024  50.104  1.00  0.00     0.139 C 
BRANCH  15  16
HETATM   16  N3  UNL     1      20.062   0.527  51.026  1.00  0.00    -0.380 N 
HETATM   17  H17 UNL     1      19.212  -0.069  50.931  1.00  0.00     0.158 HD
HETATM   18  H18 UNL     1      19.830   0.548  52.046  1.00  0.00     0.158 HD
ENDBRANCH  15  16
BRANCH  15  19
HETATM   19  O1  UNL     1      22.193   0.894  50.859  1.00  0.00    -0.346 OA
HETATM   20  H19 UNL     1      22.037   0.654  51.833  1.00  0.00     0.219 HD
ENDBRANCH  15  19
ENDBRANCH  13  14
ENDBRANCH  12  13
ENDBRANCH  11  12
BRANCH   1  21
HETATM   21  C5  UNL     1      25.823   4.418  49.314  1.00  0.00    -0.029 A 
HETATM   22  C4  UNL     1      25.506   5.756  49.268  1.00  0.00     0.010 A 
HETATM   23  C3  UNL     1      26.336   6.776  48.891  1.00  0.00     0.007 A 
HETATM   24  C2  UNL     1      27.629   6.478  48.511  1.00  0.00    -0.062 A 
HETATM   25  C1  UNL     1      28.558   7.549  48.097  1.00  0.00     0.048 C 
HETATM   26  C19 UNL     1      28.021   5.162  48.531  1.00  0.00     0.007 A 
HETATM   27  C18 UNL     1      27.135   4.180  48.922  1.00  0.00     0.010 A 
ENDBRANCH   1  21
TORSDOF 6
ENDMDL
MODEL 6
REMARK VINA RESULT:      -7.2      2.627      4.666
REMARK  6 active torsions:
REMARK  status: ('A' for Active; 'I' for Inactive)
REMARK    1  A    between atoms: C5_5  and  C6_6 
REMARK    2  A    between atoms: N2_16  and  C15_17 
REMARK    3  A    between atoms: C15_17  and  S1_18 
REMARK    4  A    between atoms: S1_18  and  C16_19 
REMARK    5  A    between atoms: C17_20  and  N3_21 
REMARK    6  A    between atoms: C17_20  and  O1_22 
ROOT
HETATM    1  C6  UNL     1      24.729   3.101  50.005  1.00  0.00     0.172 C 
HETATM    2  C7  UNL     1      25.216   2.570  51.310  1.00  0.00    -0.017 A 
HETATM    3  C8  UNL     1      26.318   1.727  51.464  1.00  0.00     0.017 A 
HETATM    4  C9  UNL     1      26.760   1.362  52.717  1.00  0.00    -0.061 A 
HETATM    5  C10 UNL     1      27.936   0.462  52.867  1.00  0.00     0.048 C 
HETATM    6  C11 UNL     1      26.118   1.825  53.851  1.00  0.00     0.007 A 
HETATM    7  C12 UNL     1      25.024   2.659  53.694  1.00  0.00     0.014 A 
HETATM    8  C13 UNL     1      24.566   3.035  52.432  1.00  0.00    -0.008 A 
HETATM    9  C14 UNL     1      23.327   3.802  52.492  1.00  0.00     0.150 C 
HETATM   10  N1  UNL     1      22.757   4.070  51.342  1.00  0.00    -0.187 NA
HETATM   11  N2  UNL     1      23.389   3.580  50.169  1.00  0.00    -0.282 N 
ENDROOT
BRANCH  11  12
HETATM   12  C15 UNL     1      22.424   3.605  49.060  1.00  0.00     0.224 C 
BRANCH  12  13
HETATM   13  S1  UNL     1      21.130   4.846  49.401  1.00  0.00    -0.116 SA
BRANCH  13  14
HETATM   14  C16 UNL     1      21.661   6.447  48.844  1.00  0.00     0.101 C 
HETATM   15  C17 UNL     1      22.094   7.261  49.780  1.00  0.00     0.139 C 
BRANCH  15  16
HETATM   16  N3  UNL     1      22.582   8.595  49.656  1.00  0.00    -0.380 N 
HETATM   17  H17 UNL     1      22.758   9.228  48.846  1.00  0.00     0.158 HD
HETATM   18  H18 UNL     1      22.922   9.390  50.243  1.00  0.00     0.158 HD
ENDBRANCH  15  16
BRANCH  15  19
HETATM   19  O1  UNL     1      22.207   7.074  51.156  1.00  0.00    -0.346 OA
HETATM   20  H19 UNL     1      22.697   7.819  51.642  1.00  0.00     0.219 HD
ENDBRANCH  15  19
ENDBRANCH  13  14
ENDBRANCH  12  13
ENDBRANCH  11  12
BRANCH   1  21
HETATM   21  C5  UNL     1      25.644   4.139  49.471  1.00  0.00    -0.029 A 
HETATM   22  C4  UNL     1      26.950   3.922  49.099  1.00  0.00     0.010 A 
HETATM   23  C3  UNL     1      27.820   4.854  48.603  1.00  0.00     0.007 A 
HETATM   24  C2  UNL     1      27.385   6.154  48.443  1.00  0.00    -0.062 A 
HETATM   25  C1  UNL     1      28.291   7.192  47.911  1.00  0.00     0.048 C 
HETATM   26  C19 UNL     1      26.090   6.449  48.793  1.00  0.00     0.007 A 
HETATM   27  C18 UNL     1      25.263   5.462  49.287  1.00  0.00     0.010 A 
ENDBRANCH   1  21
TORSDOF 6
ENDMDL
MODEL 7
REMARK VINA RESULT:      -7.1      2.908      5.220
REMARK  6 active torsions:
REMARK  status: ('A' for Active; 'I' for Inactive)
REMARK    1  A    between atoms: C5_5  and  C6_6 
REMARK    2  A    between atoms: N2_16  and  C15_17 
REMARK    3  A    between atoms: C15_17  and  S1_18 
REMARK    4  A    between atoms: S1_18  and  C16_19 
REMARK    5  A    between atoms: C17_20  and  N3_21 
REMARK    6  A    between atoms: C17_20  and  O1_22 
ROOT
HETATM    1  C6  UNL     1      24.284   3.600  50.031  1.00  0.00     0.172 C 
HETATM    2  C7  UNL     1      24.743   2.833  51.225  1.00  0.00    -0.017 A 
HETATM    3  C8  UNL     1      25.591   1.725  51.180  1.00  0.00     0.017 A 
HETATM    4  C9  UNL     1      26.044   1.135  52.339  1.00  0.00    -0.061 A 
HETATM    5  C10 UNL     1      26.948  -0.047  52.278  1.00  0.00     0.048 C 
HETATM    6  C11 UNL     1      25.667   1.630  53.574  1.00  0.00     0.007 A 
HETATM    7  C12 UNL     1      24.825   2.727  53.614  1.00  0.00     0.014 A 
HETATM    8  C13 UNL     1      24.357   3.334  52.449  1.00  0.00    -0.008 A 
HETATM    9  C14 UNL     1      23.380   4.382  52.716  1.00  0.00     0.150 C 
HETATM   10  N1  UNL     1      22.787   4.901  51.668  1.00  0.00    -0.187 NA
HETATM   11  N2  UNL     1      23.144   4.386  50.394  1.00  0.00    -0.282 N 
ENDROOT
BRANCH  11  12
HETATM   12  C15 UNL     1      22.113   4.769  49.418  1.00  0.00     0.224 C 
BRANCH  12  13
HETATM   13  S1  UNL     1      20.720   5.573  50.281  1.00  0.00    -0.116 SA
BRANCH  13  14
HETATM   14  C16 UNL     1      19.306   4.498  50.289  1.00  0.00     0.101 C 
HETATM   15  C17 UNL     1      19.206   3.697  51.326  1.00  0.00     0.139 C 
BRANCH  15  16
HETATM   16  N3  UNL     1      18.201   2.731  51.621  1.00  0.00    -0.380 N 
HETATM   17  H17 UNL     1      17.436   2.290  51.066  1.00  0.00     0.158 HD
HETATM   18  H18 UNL     1      17.854   2.139  52.411  1.00  0.00     0.158 HD
ENDBRANCH  15  16
BRANCH  15  19
HETATM   19  O1  UNL     1      20.037   3.549  52.435  1.00  0.00    -0.346 OA
HETATM   20  H19 UNL     1      19.972   2.644  52.891  1.00  0.00     0.219 HD
ENDBRANCH  15  19
ENDBRANCH  13  14
ENDBRANCH  12  13
ENDBRANCH  11  12
BRANCH   1  21
HETATM   21  C5  UNL     1      25.384   4.417  49.462  1.00  0.00    -0.029 A 
HETATM   22  C4  UNL     1      26.666   3.971  49.246  1.00  0.00     0.010 A 
HETATM   23  C3  UNL     1      27.702   4.697  48.723  1.00  0.00     0.007 A 
HETATM   24  C2  UNL     1      27.482   6.010  48.363  1.00  0.00    -0.062 A 
HETATM   25  C1  UNL     1      28.571   6.829  47.794  1.00  0.00     0.048 C 
HETATM   26  C19 UNL     1      26.224   6.528  48.549  1.00  0.00     0.007 A 
HETATM   27  C18 UNL     1      25.222   5.743  49.081  1.00  0.00     0.010 A 
ENDBRANCH   1  21
TORSDOF 6
ENDMDL
MODEL 8
REMARK VINA RESULT:      -7.0      3.376      6.502
REMARK  6 active torsions:
REMARK  status: ('A' for Active; 'I' for Inactive)
REMARK    1  A    between atoms: C5_5  and  C6_6 
REMARK    2  A    between atoms: N2_16  and  C15_17 
REMARK    3  A    between atoms: C15_17  and  S1_18 
REMARK    4  A    between atoms: S1_18  and  C16_19 
REMARK    5  A    between atoms: C17_20  and  N3_21 
REMARK    6  A    between atoms: C17_20  and  O1_22 
ROOT
HETATM    1  C6  UNL     1      23.525   1.334  51.571  1.00  0.00     0.172 C 
HETATM    2  C7  UNL     1      23.392   2.641  50.864  1.00  0.00    -0.017 A 
HETATM    3  C8  UNL     1      22.922   2.795  49.559  1.00  0.00     0.017 A 
HETATM    4  C9  UNL     1      22.739   4.048  49.017  1.00  0.00    -0.061 A 
HETATM    5  C10 UNL     1      22.238   4.198  47.623  1.00  0.00     0.048 C 
HETATM    6  C11 UNL     1      23.017   5.182  49.757  1.00  0.00     0.007 A 
HETATM    7  C12 UNL     1      23.485   5.025  51.050  1.00  0.00     0.014 A 
HETATM    8  C13 UNL     1      23.677   3.763  51.611  1.00  0.00    -0.008 A 
HETATM    9  C14 UNL     1      24.301   3.824  52.928  1.00  0.00     0.150 C 
HETATM   10  N1  UNL     1      24.645   2.675  53.458  1.00  0.00    -0.187 NA
HETATM   11  N2  UNL     1      24.389   1.502  52.700  1.00  0.00    -0.282 N 
ENDROOT
BRANCH  11  12
HETATM   12  C15 UNL     1      25.196   0.398  53.241  1.00  0.00     0.224 C 
BRANCH  12  13
HETATM   13  S1  UNL     1      26.731   0.226  52.269  1.00  0.00    -0.116 SA
BRANCH  13  14
HETATM   14  C16 UNL     1      27.839  -0.904  53.075  1.00  0.00     0.101 C 
HETATM   15  C17 UNL     1      27.696  -2.170  52.754  1.00  0.00     0.139 C 
BRANCH  15  16
HETATM   16  N3  UNL     1      28.422  -3.304  53.221  1.00  0.00    -0.380 N 
HETATM   17  H17 UNL     1      28.779  -4.171  52.765  1.00  0.00     0.158 HD
HETATM   18  H18 UNL     1      28.846  -3.690  54.096  1.00  0.00     0.158 HD
ENDBRANCH  15  16
BRANCH  15  19
HETATM   19  O1  UNL     1      26.805  -2.782  51.873  1.00  0.00    -0.346 OA
HETATM   20  H19 UNL     1      26.010  -2.206  51.612  1.00  0.00     0.219 HD
ENDBRANCH  15  19
ENDBRANCH  13  14
ENDBRANCH  12  13
ENDBRANCH  11  12
BRANCH   1  21
HETATM   21  C5  UNL     1      22.197   0.788  51.945  1.00  0.00    -0.029 A 
HETATM   22  C4  UNL     1      21.174   0.532  51.063  1.00  0.00     0.010 A 
HETATM   23  C3  UNL     1      19.940   0.028  51.373  1.00  0.00     0.007 A 
HETATM   24  C2  UNL     1      19.651  -0.266  52.690  1.00  0.00    -0.062 A 
HETATM   25  C1  UNL     1      18.332  -0.812  53.068  1.00  0.00     0.048 C 
HETATM   26  C19 UNL     1      20.625  -0.037  53.630  1.00  0.00     0.007 A 
HETATM   27  C18 UNL     1      21.850   0.472  53.252  1.00  0.00     0.010 A 
ENDBRANCH   1  21
TORSDOF 6
ENDMDL
MODEL 9
REMARK VINA RESULT:      -6.8      9.323     12.095
REMARK  6 active torsions:
REMARK  status: ('A' for Active; 'I' for Inactive)
REMARK    1  A    between atoms: C5_5  and  C6_6 
REMARK    2  A    between atoms: N2_16  and  C15_17 
REMARK    3  A    between atoms: C15_17  and  S1_18 
REMARK    4  A    between atoms: S1_18  and  C16_19 
REMARK    5  A    between atoms: C17_20  and  N3_21 
REMARK    6  A    between atoms: C17_20  and  O1_22 
ROOT
HETATM    1  C6  UNL     1      32.727   5.828  45.909  1.00  0.00     0.172 C 
HETATM    2  C7  UNL     1      32.988   4.514  46.564  1.00  0.00    -0.017 A 
HETATM    3  C8  UNL     1      32.275   3.342  46.308  1.00  0.00     0.017 A 
HETATM    4  C9  UNL     1      32.647   2.147  46.884  1.00  0.00    -0.061 A 
HETATM    5  C10 UNL     1      31.877   0.905  46.603  1.00  0.00     0.048 C 
HETATM    6  C11 UNL     1      33.739   2.085  47.731  1.00  0.00     0.007 A 
HETATM    7  C12 UNL     1      34.442   3.250  47.984  1.00  0.00     0.014 A 
HETATM    8  C13 UNL     1      34.076   4.466  47.409  1.00  0.00    -0.008 A 
HETATM    9  C14 UNL     1      34.864   5.585  47.913  1.00  0.00     0.150 C 
HETATM   10  N1  UNL     1      34.485   6.779  47.528  1.00  0.00    -0.187 NA
HETATM   11  N2  UNL     1      33.350   6.863  46.679  1.00  0.00    -0.282 N 
ENDROOT
BRANCH  11  12
HETATM   12  C15 UNL     1      32.838   8.241  46.700  1.00  0.00     0.224 C 
BRANCH  12  13
HETATM   13  S1  UNL     1      31.416   8.349  47.838  1.00  0.00    -0.116 SA
BRANCH  13  14
HETATM   14  C16 UNL     1      31.848   7.666  49.420  1.00  0.00     0.101 C 
HETATM   15  C17 UNL     1      31.438   6.437  49.641  1.00  0.00     0.139 C 
BRANCH  15  16
HETATM   16  N3  UNL     1      31.624   5.622  50.795  1.00  0.00    -0.380 N 
HETATM   17  H17 UNL     1      31.276   5.669  51.777  1.00  0.00     0.158 HD
HETATM   18  H18 UNL     1      32.119   4.753  51.101  1.00  0.00     0.158 HD
ENDBRANCH  15  16
BRANCH  15  19
HETATM   19  O1  UNL     1      30.710   5.569  48.829  1.00  0.00    -0.346 OA
HETATM   20  H19 UNL     1      29.794   5.324  49.192  1.00  0.00     0.219 HD
ENDBRANCH  15  19
ENDBRANCH  13  14
ENDBRANCH  12  13
ENDBRANCH  11  12
BRANCH   1  21
HETATM   21  C5  UNL     1      33.172   5.822  44.494  1.00  0.00    -0.029 A 
HETATM   22  C4  UNL     1      34.319   5.221  44.031  1.00  0.00     0.010 A 
HETATM   23  C3  UNL     1      34.757   5.196  42.735  1.00  0.00     0.007 A 
HETATM   24  C2  UNL     1      34.004   5.823  41.764  1.00  0.00    -0.062 A 
HETATM   25  C1  UNL     1      34.439   5.819  40.353  1.00  0.00     0.048 C 
HETATM   26  C19 UNL     1      32.842   6.445  42.150  1.00  0.00     0.007 A 
HETATM   27  C18 UNL     1      32.455   6.434  43.474  1.00  0.00     0.010 A 
ENDBRANCH   1  21
TORSDOF 6
ENDMDL
