MODEL 1
REMARK VINA RESULT:      -7.7      0.000      0.000
REMARK  10 active torsions:
REMARK  status: ('A' for Active; 'I' for Inactive)
REMARK    1  A    between atoms: C2_2  and  O1_3 
REMARK    2  A    between atoms: O1_3  and  C3_4 
REMARK    3  A    between atoms: C9_12  and  C10_13 
REMARK    4  A    between atoms: C10_13  and  C11_14 
REMARK    5  A    between atoms: C16_20  and  N3_21 
REMARK       I    between atoms: N3_21  and  C17_22 
REMARK    6  A    between atoms: C17_22  and  C18_24 
REMARK    7  A    between atoms: C18_24  and  C19_25 
REMARK    8  A    between atoms: C19_25  and  N4_26 
REMARK    9  A    between atoms: N4_26  and  C21_28 
REMARK   10  A    between atoms: C21_28  and  N5_29 
ROOT
HETATM    1  C3  UNL     1      26.406   0.410  53.369  1.00  0.00     0.097 A 
HETATM    2  C4  UNL     1      25.630  -0.246  54.301  1.00  0.00     0.071 A 
HETATM    3  C5  UNL     1      24.276  -0.421  54.108  1.00  0.00     0.070 A 
HETATM    4  N1  UNL     1      23.599  -1.069  55.066  1.00  0.00    -0.259 NA
HETATM    5  C6  UNL     1      22.262  -1.241  54.876  1.00  0.00     0.140 A 
HETATM    6  C7  UNL     1      21.618  -0.774  53.752  1.00  0.00     0.069 A 
HETATM    7  C8  UNL     1      20.206  -1.033  53.691  1.00  0.00     0.101 C 
HETATM    8  N2  UNL     1      19.064  -1.244  53.646  1.00  0.00    -0.191 NA
HETATM    9  C9  UNL     1      22.282  -0.101  52.745  1.00  0.00    -0.020 A 
HETATM   10  C14 UNL     1      23.634   0.048  52.985  1.00  0.00     0.003 A 
HETATM   11  C15 UNL     1      24.395   0.707  52.043  1.00  0.00     0.046 A 
HETATM   12  C16 UNL     1      25.757   0.889  52.224  1.00  0.00     0.069 A 
ENDROOT
BRANCH   9  13
HETATM   13  C10 UNL     1      21.563   0.380  51.566  1.00  0.00     0.069 C 
BRANCH  13  14
HETATM   14  C11 UNL     1      21.173   1.815  51.623  1.00  0.00    -0.003 C 
HETATM   15  C12 UNL     1      21.476   2.898  50.882  1.00  0.00     0.004 C 
HETATM   16  C13 UNL     1      21.013   4.327  51.037  1.00  0.00     0.061 C 
HETATM   17 CL1  UNL     1      22.541   2.976  49.466  1.00  0.00    -0.090 Cl
ENDBRANCH  13  14
ENDBRANCH   9  13
BRANCH  12  18
HETATM   18  N3  UNL     1      26.508   1.585  51.207  1.00  0.00    -0.325 N 
HETATM   19  C17 UNL     1      26.032   2.927  51.051  1.00  0.00     0.223 C 
HETATM   20  O2  UNL     1      25.076   3.147  51.853  1.00  0.00    -0.273 OA
HETATM   21  H15 UNL     1      27.309   1.243  50.608  1.00  0.00     0.169 HD
BRANCH  19  22
HETATM   22  C18 UNL     1      26.636   3.865  50.062  1.00  0.00     0.133 C 
BRANCH  22  23
HETATM   23  C19 UNL     1      25.510   4.766  49.563  1.00  0.00     0.283 C 
BRANCH  23  24
HETATM   24  N4  UNL     1      25.544   6.056  50.173  1.00  0.00     0.112 N 
HETATM   25  C20 UNL     1      26.191   7.072  49.414  1.00  0.00     0.312 C 
BRANCH  24  26
HETATM   26  C21 UNL     1      24.289   6.516  50.710  1.00  0.00     0.536 C 
BRANCH  26  27
HETATM   27  N5  UNL     1      24.368   6.338  52.155  1.00  0.00     0.106 N 
HETATM   28  H25 UNL     1      24.826   7.190  52.537  1.00  0.00     0.315 HD
HETATM   29  H26 UNL     1      24.916   5.499  52.438  1.00  0.00     0.315 HD
ENDBRANCH  26  27
ENDBRANCH  24  26
ENDBRANCH  23  24
ENDBRANCH  22  23
ENDBRANCH  19  22
ENDBRANCH  12  18
BRANCH   1  30
HETATM   30  O1  UNL     1      27.749   0.638  53.455  1.00  0.00    -0.349 OA
BRANCH  30  31
HETATM   31  C2  UNL     1      28.636   0.019  54.352  1.00  0.00     0.171 C 
HETATM   32  C1  UNL     1      29.530  -0.931  53.588  1.00  0.00     0.034 C 
ENDBRANCH  30  31
ENDBRANCH   1  30
TORSDOF 10
ENDMDL
MODEL 2
REMARK VINA RESULT:      -7.5      2.537      5.062
REMARK  10 active torsions:
REMARK  status: ('A' for Active; 'I' for Inactive)
REMARK    1  A    between atoms: C2_2  and  O1_3 
REMARK    2  A    between atoms: O1_3  and  C3_4 
REMARK    3  A    between atoms: C9_12  and  C10_13 
REMARK    4  A    between atoms: C10_13  and  C11_14 
REMARK    5  A    between atoms: C16_20  and  N3_21 
REMARK       I    between atoms: N3_21  and  C17_22 
REMARK    6  A    between atoms: C17_22  and  C18_24 
REMARK    7  A    between atoms: C18_24  and  C19_25 
REMARK    8  A    between atoms: C19_25  and  N4_26 
REMARK    9  A    between atoms: N4_26  and  C21_28 
REMARK   10  A    between atoms: C21_28  and  N5_29 
ROOT
HETATM    1  C3  UNL     1      22.582   4.324  50.906  1.00  0.00     0.097 A 
HETATM    2  C4  UNL     1      21.542   3.532  51.346  1.00  0.00     0.071 A 
HETATM    3  C5  UNL     1      21.769   2.442  52.159  1.00  0.00     0.070 A 
HETATM    4  N1  UNL     1      20.701   1.727  52.540  1.00  0.00    -0.259 NA
HETATM    5  C6  UNL     1      20.925   0.650  53.341  1.00  0.00     0.140 A 
HETATM    6  C7  UNL     1      22.191   0.297  53.752  1.00  0.00     0.069 A 
HETATM    7  C8  UNL     1      22.269  -0.863  54.597  1.00  0.00     0.101 C 
HETATM    8  N2  UNL     1      22.328  -1.801  55.281  1.00  0.00    -0.191 NA
HETATM    9  C9  UNL     1      23.315   1.008  53.380  1.00  0.00    -0.020 A 
HETATM   10  C14 UNL     1      23.035   2.089  52.567  1.00  0.00     0.003 A 
HETATM   11  C15 UNL     1      24.086   2.869  52.135  1.00  0.00     0.046 A 
HETATM   12  C16 UNL     1      23.872   3.969  51.319  1.00  0.00     0.069 A 
ENDROOT
BRANCH   9  13
HETATM   13  C10 UNL     1      24.643   0.600  53.836  1.00  0.00     0.069 C 
BRANCH  13  14
HETATM   14  C11 UNL     1      25.221  -0.558  53.102  1.00  0.00    -0.003 C 
HETATM   15  C12 UNL     1      26.458  -1.082  53.003  1.00  0.00     0.004 C 
HETATM   16  C13 UNL     1      26.933  -2.279  52.216  1.00  0.00     0.061 C 
HETATM   17 CL1  UNL     1      27.942  -0.505  53.785  1.00  0.00    -0.090 Cl
ENDBRANCH  13  14
ENDBRANCH   9  13
BRANCH  12  18
HETATM   18  N3  UNL     1      25.007   4.753  50.895  1.00  0.00    -0.325 N 
HETATM   19  C17 UNL     1      25.621   4.175  49.738  1.00  0.00     0.223 C 
HETATM   20  O2  UNL     1      25.002   3.126  49.391  1.00  0.00    -0.273 OA
HETATM   21  H15 UNL     1      25.407   5.639  51.310  1.00  0.00     0.169 HD
BRANCH  19  22
HETATM   22  C18 UNL     1      26.818   4.789  49.095  1.00  0.00     0.133 C 
BRANCH  22  23
HETATM   23  C19 UNL     1      26.379   6.145  48.548  1.00  0.00     0.283 C 
BRANCH  23  24
HETATM   24  N4  UNL     1      27.128   7.220  49.114  1.00  0.00     0.112 N 
HETATM   25  C20 UNL     1      27.924   7.960  48.193  1.00  0.00     0.312 C 
BRANCH  24  26
HETATM   26  C21 UNL     1      26.388   8.090  49.990  1.00  0.00     0.536 C 
BRANCH  26  27
HETATM   27  N5  UNL     1      27.374   8.803  50.795  1.00  0.00     0.106 N 
HETATM   28  H25 UNL     1      27.993   8.082  51.216  1.00  0.00     0.315 HD
HETATM   29  H26 UNL     1      26.950   9.376  51.554  1.00  0.00     0.315 HD
ENDBRANCH  26  27
ENDBRANCH  24  26
ENDBRANCH  23  24
ENDBRANCH  22  23
ENDBRANCH  19  22
ENDBRANCH  12  18
BRANCH   1  30
HETATM   30  O1  UNL     1      22.474   5.423  50.103  1.00  0.00    -0.349 OA
BRANCH  30  31
HETATM   31  C2  UNL     1      21.737   5.504  48.909  1.00  0.00     0.171 C 
HETATM   32  C1  UNL     1      22.593   5.009  47.765  1.00  0.00     0.034 C 
ENDBRANCH  30  31
ENDBRANCH   1  30
TORSDOF 10
ENDMDL
MODEL 3
REMARK VINA RESULT:      -7.5      2.742      6.490
REMARK  10 active torsions:
REMARK  status: ('A' for Active; 'I' for Inactive)
REMARK    1  A    between atoms: C2_2  and  O1_3 
REMARK    2  A    between atoms: O1_3  and  C3_4 
REMARK    3  A    between atoms: C9_12  and  C10_13 
REMARK    4  A    between atoms: C10_13  and  C11_14 
REMARK    5  A    between atoms: C16_20  and  N3_21 
REMARK       I    between atoms: N3_21  and  C17_22 
REMARK    6  A    between atoms: C17_22  and  C18_24 
REMARK    7  A    between atoms: C18_24  and  C19_25 
REMARK    8  A    between atoms: C19_25  and  N4_26 
REMARK    9  A    between atoms: N4_26  and  C21_28 
REMARK   10  A    between atoms: C21_28  and  N5_29 
ROOT
HETATM    1  C3  UNL     1      23.936   1.419  52.121  1.00  0.00     0.097 A 
HETATM    2  C4  UNL     1      22.993   1.438  51.114  1.00  0.00     0.071 A 
HETATM    3  C5  UNL     1      22.962   2.454  50.183  1.00  0.00     0.070 A 
HETATM    4  N1  UNL     1      22.013   2.392  49.240  1.00  0.00    -0.259 NA
HETATM    5  C6  UNL     1      21.981   3.397  48.321  1.00  0.00     0.140 A 
HETATM    6  C7  UNL     1      22.881   4.438  48.347  1.00  0.00     0.069 A 
HETATM    7  C8  UNL     1      22.725   5.421  47.311  1.00  0.00     0.101 C 
HETATM    8  N2  UNL     1      22.594   6.214  46.471  1.00  0.00    -0.191 NA
HETATM    9  C9  UNL     1      23.873   4.535  49.303  1.00  0.00    -0.020 A 
HETATM   10  C14 UNL     1      23.862   3.495  50.212  1.00  0.00     0.003 A 
HETATM   11  C15 UNL     1      24.810   3.492  51.212  1.00  0.00     0.046 A 
HETATM   12  C16 UNL     1      24.853   2.476  52.154  1.00  0.00     0.069 A 
ENDROOT
BRANCH   9  13
HETATM   13  C10 UNL     1      24.810   5.658  49.298  1.00  0.00     0.069 C 
BRANCH  13  14
HETATM   14  C11 UNL     1      26.206   5.296  48.935  1.00  0.00    -0.003 C 
HETATM   15  C12 UNL     1      27.301   6.006  48.597  1.00  0.00     0.004 C 
HETATM   16  C13 UNL     1      28.687   5.522  48.244  1.00  0.00     0.061 C 
HETATM   17 CL1  UNL     1      27.446   7.768  48.458  1.00  0.00    -0.090 Cl
ENDBRANCH  13  14
ENDBRANCH   9  13
BRANCH  12  18
HETATM   18  N3  UNL     1      25.866   2.521  53.181  1.00  0.00    -0.325 N 
HETATM   19  C17 UNL     1      27.161   2.258  52.630  1.00  0.00     0.223 C 
HETATM   20  O2  UNL     1      27.074   2.056  51.382  1.00  0.00    -0.273 OA
HETATM   21  H15 UNL     1      25.769   2.712  54.216  1.00  0.00     0.169 HD
BRANCH  19  22
HETATM   22  C18 UNL     1      28.388   2.243  53.477  1.00  0.00     0.133 C 
BRANCH  22  23
HETATM   23  C19 UNL     1      28.396   0.910  54.220  1.00  0.00     0.283 C 
BRANCH  23  24
HETATM   24  N4  UNL     1      28.704  -0.184  53.357  1.00  0.00     0.112 N 
HETATM   25  C20 UNL     1      29.916  -0.871  53.654  1.00  0.00     0.312 C 
BRANCH  24  26
HETATM   26  C21 UNL     1      27.622  -1.102  53.116  1.00  0.00     0.536 C 
BRANCH  26  27
HETATM   27  N5  UNL     1      26.673  -0.917  54.208  1.00  0.00     0.106 N 
HETATM   28  H25 UNL     1      27.222  -0.595  55.030  1.00  0.00     0.315 HD
HETATM   29  H26 UNL     1      26.159  -1.787  54.460  1.00  0.00     0.315 HD
ENDBRANCH  26  27
ENDBRANCH  24  26
ENDBRANCH  23  24
ENDBRANCH  22  23
ENDBRANCH  19  22
ENDBRANCH  12  18
BRANCH   1  30
HETATM   30  O1  UNL     1      24.060   0.467  53.091  1.00  0.00    -0.349 OA
BRANCH  30  31
HETATM   31  C2  UNL     1      23.237  -0.661  53.251  1.00  0.00     0.171 C 
HETATM   32  C1  UNL     1      22.179  -0.360  54.289  1.00  0.00     0.034 C 
ENDBRANCH  30  31
ENDBRANCH   1  30
TORSDOF 10
ENDMDL
MODEL 4
REMARK VINA RESULT:      -7.4      2.677      5.456
REMARK  10 active torsions:
REMARK  status: ('A' for Active; 'I' for Inactive)
REMARK    1  A    between atoms: C2_2  and  O1_3 
REMARK    2  A    between atoms: O1_3  and  C3_4 
REMARK    3  A    between atoms: C9_12  and  C10_13 
REMARK    4  A    between atoms: C10_13  and  C11_14 
REMARK    5  A    between atoms: C16_20  and  N3_21 
REMARK       I    between atoms: N3_21  and  C17_22 
REMARK    6  A    between atoms: C17_22  and  C18_24 
REMARK    7  A    between atoms: C18_24  and  C19_25 
REMARK    8  A    between atoms: C19_25  and  N4_26 
REMARK    9  A    between atoms: N4_26  and  C21_28 
REMARK   10  A    between atoms: C21_28  and  N5_29 
ROOT
HETATM    1  C3  UNL     1      23.493   3.032  49.911  1.00  0.00     0.097 A 
HETATM    2  C4  UNL     1      22.837   1.953  50.464  1.00  0.00     0.071 A 
HETATM    3  C5  UNL     1      23.336   1.306  51.575  1.00  0.00     0.070 A 
HETATM    4  N1  UNL     1      22.634   0.266  52.046  1.00  0.00    -0.259 NA
HETATM    5  C6  UNL     1      23.127  -0.373  53.142  1.00  0.00     0.140 A 
HETATM    6  C7  UNL     1      24.296   0.021  53.752  1.00  0.00     0.069 A 
HETATM    7  C8  UNL     1      24.689  -0.749  54.901  1.00  0.00     0.101 C 
HETATM    8  N2  UNL     1      25.002  -1.374  55.829  1.00  0.00    -0.191 NA
HETATM    9  C9  UNL     1      25.047   1.087  53.296  1.00  0.00    -0.020 A 
HETATM   10  C14 UNL     1      24.506   1.700  52.183  1.00  0.00     0.003 A 
HETATM   11  C15 UNL     1      25.175   2.777  51.642  1.00  0.00     0.046 A 
HETATM   12  C16 UNL     1      24.684   3.437  50.526  1.00  0.00     0.069 A 
ENDROOT
BRANCH   9  13
HETATM   13  C10 UNL     1      26.285   1.474  53.970  1.00  0.00     0.069 C 
BRANCH  13  14
HETATM   14  C11 UNL     1      27.459   0.620  53.647  1.00  0.00    -0.003 C 
HETATM   15  C12 UNL     1      28.787   0.740  53.840  1.00  0.00     0.004 C 
HETATM   16  C13 UNL     1      29.901  -0.207  53.464  1.00  0.00     0.061 C 
HETATM   17 CL1  UNL     1      29.650   2.084  54.612  1.00  0.00    -0.090 Cl
ENDBRANCH  13  14
ENDBRANCH   9  13
BRANCH  12  18
HETATM   18  N3  UNL     1      25.423   4.559  49.999  1.00  0.00    -0.325 N 
HETATM   19  C17 UNL     1      26.591   4.117  49.300  1.00  0.00     0.223 C 
HETATM   20  O2  UNL     1      26.665   2.853  49.327  1.00  0.00    -0.273 OA
HETATM   21  H15 UNL     1      25.216   5.594  50.066  1.00  0.00     0.169 HD
BRANCH  19  22
HETATM   22  C18 UNL     1      27.534   5.077  48.658  1.00  0.00     0.133 C 
BRANCH  22  23
HETATM   23  C19 UNL     1      26.941   6.471  48.848  1.00  0.00     0.283 C 
BRANCH  23  24
HETATM   24  N4  UNL     1      27.899   7.500  48.600  1.00  0.00     0.112 N 
HETATM   25  C20 UNL     1      28.189   7.744  47.227  1.00  0.00     0.312 C 
BRANCH  24  26
HETATM   26  C21 UNL     1      27.684   8.727  49.321  1.00  0.00     0.536 C 
BRANCH  26  27
HETATM   27  N5  UNL     1      26.928   8.376  50.517  1.00  0.00     0.106 N 
HETATM   28  H25 UNL     1      27.538   8.593  51.331  1.00  0.00     0.315 HD
HETATM   29  H26 UNL     1      26.653   7.372  50.552  1.00  0.00     0.315 HD
ENDBRANCH  26  27
ENDBRANCH  24  26
ENDBRANCH  23  24
ENDBRANCH  22  23
ENDBRANCH  19  22
ENDBRANCH  12  18
BRANCH   1  30
HETATM   30  O1  UNL     1      23.092   3.745  48.818  1.00  0.00    -0.349 OA
BRANCH  30  31
HETATM   31  C2  UNL     1      21.909   4.496  48.711  1.00  0.00     0.171 C 
HETATM   32  C1  UNL     1      22.236   5.963  48.878  1.00  0.00     0.034 C 
ENDBRANCH  30  31
ENDBRANCH   1  30
TORSDOF 10
ENDMDL
MODEL 5
REMARK VINA RESULT:      -7.3      1.403      1.599
REMARK  10 active torsions:
REMARK  status: ('A' for Active; 'I' for Inactive)
REMARK    1  A    between atoms: C2_2  and  O1_3 
REMARK    2  A    between atoms: O1_3  and  C3_4 
REMARK    3  A    between atoms: C9_12  and  C10_13 
REMARK    4  A    between atoms: C10_13  and  C11_14 
REMARK    5  A    between atoms: C16_20  and  N3_21 
REMARK       I    between atoms: N3_21  and  C17_22 
REMARK    6  A    between atoms: C17_22  and  C18_24 
REMARK    7  A    between atoms: C18_24  and  C19_25 
REMARK    8  A    between atoms: C19_25  and  N4_26 
REMARK    9  A    between atoms: N4_26  and  C21_28 
REMARK   10  A    between atoms: C21_28  and  N5_29 
ROOT
HETATM    1  C3  UNL     1      26.999   1.235  52.969  1.00  0.00     0.097 A 
HETATM    2  C4  UNL     1      26.301   0.244  53.626  1.00  0.00     0.071 A 
HETATM    3  C5  UNL     1      24.927   0.170  53.555  1.00  0.00     0.070 A 
HETATM    4  N1  UNL     1      24.330  -0.826  54.224  1.00  0.00    -0.259 NA
HETATM    5  C6  UNL     1      22.972  -0.898  54.155  1.00  0.00     0.140 A 
HETATM    6  C7  UNL     1      22.229   0.007  53.432  1.00  0.00     0.069 A 
HETATM    7  C8  UNL     1      20.807  -0.199  53.451  1.00  0.00     0.101 C 
HETATM    8  N2  UNL     1      19.658  -0.369  53.469  1.00  0.00    -0.191 NA
HETATM    9  C9  UNL     1      22.808   1.046  52.729  1.00  0.00    -0.020 A 
HETATM   10  C14 UNL     1      24.185   1.077  52.832  1.00  0.00     0.003 A 
HETATM   11  C15 UNL     1      24.867   2.075  52.170  1.00  0.00     0.046 A 
HETATM   12  C16 UNL     1      26.248   2.160  52.232  1.00  0.00     0.069 A 
ENDROOT
BRANCH   9  13
HETATM   13  C10 UNL     1      21.984   1.988  51.973  1.00  0.00     0.069 C 
BRANCH  13  14
HETATM   14  C11 UNL     1      21.803   1.637  50.539  1.00  0.00    -0.003 C 
HETATM   15  C12 UNL     1      22.037   2.282  49.379  1.00  0.00     0.004 C 
HETATM   16  C13 UNL     1      21.810   1.819  47.960  1.00  0.00     0.061 C 
HETATM   17 CL1  UNL     1      22.697   3.915  49.164  1.00  0.00    -0.090 Cl
ENDBRANCH  13  14
ENDBRANCH   9  13
BRANCH  12  18
HETATM   18  N3  UNL     1      26.913   3.225  51.520  1.00  0.00    -0.325 N 
HETATM   19  C17 UNL     1      26.464   3.287  50.161  1.00  0.00     0.223 C 
HETATM   20  O2  UNL     1      25.598   2.389  49.945  1.00  0.00    -0.273 OA
HETATM   21  H15 UNL     1      27.639   3.913  51.861  1.00  0.00     0.169 HD
BRANCH  19  22
HETATM   22  C18 UNL     1      26.994   4.300  49.204  1.00  0.00     0.133 C 
BRANCH  22  23
HETATM   23  C19 UNL     1      25.848   5.262  48.900  1.00  0.00     0.283 C 
BRANCH  23  24
HETATM   24  N4  UNL     1      26.242   6.627  49.041  1.00  0.00     0.112 N 
HETATM   25  C20 UNL     1      26.075   7.432  47.877  1.00  0.00     0.312 C 
BRANCH  24  26
HETATM   26  C21 UNL     1      25.747   7.291  50.218  1.00  0.00     0.536 C 
BRANCH  26  27
HETATM   27  N5  UNL     1      26.772   8.251  50.612  1.00  0.00     0.106 N 
HETATM   28  H25 UNL     1      27.094   7.973  51.561  1.00  0.00     0.315 HD
HETATM   29  H26 UNL     1      26.427   9.234  50.642  1.00  0.00     0.315 HD
ENDBRANCH  26  27
ENDBRANCH  24  26
ENDBRANCH  23  24
ENDBRANCH  22  23
ENDBRANCH  19  22
ENDBRANCH  12  18
BRANCH   1  30
HETATM   30  O1  UNL     1      28.353   1.403  52.968  1.00  0.00    -0.349 OA
BRANCH  30  31
HETATM   31  C2  UNL     1      29.240   0.961  53.964  1.00  0.00     0.171 C 
HETATM   32  C1  UNL     1      29.999  -0.243  53.453  1.00  0.00     0.034 C 
ENDBRANCH  30  31
ENDBRANCH   1  30
TORSDOF 10
ENDMDL
MODEL 6
REMARK VINA RESULT:      -7.2      2.288      5.090
REMARK  10 active torsions:
REMARK  status: ('A' for Active; 'I' for Inactive)
REMARK    1  A    between atoms: C2_2  and  O1_3 
REMARK    2  A    between atoms: O1_3  and  C3_4 
REMARK    3  A    between atoms: C9_12  and  C10_13 
REMARK    4  A    between atoms: C10_13  and  C11_14 
REMARK    5  A    between atoms: C16_20  and  N3_21 
REMARK       I    between atoms: N3_21  and  C17_22 
REMARK    6  A    between atoms: C17_22  and  C18_24 
REMARK    7  A    between atoms: C18_24  and  C19_25 
REMARK    8  A    between atoms: C19_25  and  N4_26 
REMARK    9  A    between atoms: N4_26  and  C21_28 
REMARK   10  A    between atoms: C21_28  and  N5_29 
ROOT
HETATM    1  C3  UNL     1      21.776   3.720  50.497  1.00  0.00     0.097 A 
HETATM    2  C4  UNL     1      20.905   3.220  51.442  1.00  0.00     0.071 A 
HETATM    3  C5  UNL     1      21.236   2.125  52.211  1.00  0.00     0.070 A 
HETATM    4  N1  UNL     1      20.330   1.705  53.104  1.00  0.00    -0.259 NA
HETATM    5  C6  UNL     1      20.656   0.623  53.862  1.00  0.00     0.140 A 
HETATM    6  C7  UNL     1      21.864  -0.024  53.728  1.00  0.00     0.069 A 
HETATM    7  C8  UNL     1      22.067  -1.149  54.599  1.00  0.00     0.101 C 
HETATM    8  N2  UNL     1      22.227  -2.058  55.305  1.00  0.00    -0.191 NA
HETATM    9  C9  UNL     1      22.822   0.378  52.819  1.00  0.00    -0.020 A 
HETATM   10  C14 UNL     1      22.443   1.478  52.074  1.00  0.00     0.003 A 
HETATM   11  C15 UNL     1      23.326   1.964  51.133  1.00  0.00     0.046 A 
HETATM   12  C16 UNL     1      23.005   3.065  50.355  1.00  0.00     0.069 A 
ENDROOT
BRANCH   9  13
HETATM   13  C10 UNL     1      24.093  -0.336  52.705  1.00  0.00     0.069 C 
BRANCH  13  14
HETATM   14  C11 UNL     1      25.149   0.127  53.646  1.00  0.00    -0.003 C 
HETATM   15  C12 UNL     1      26.456  -0.160  53.801  1.00  0.00     0.004 C 
HETATM   16  C13 UNL     1      27.444   0.381  54.807  1.00  0.00     0.061 C 
HETATM   17 CL1  UNL     1      27.436  -1.291  52.849  1.00  0.00    -0.090 Cl
ENDBRANCH  13  14
ENDBRANCH   9  13
BRANCH  12  18
HETATM   18  N3  UNL     1      23.965   3.535  49.385  1.00  0.00    -0.325 N 
HETATM   19  C17 UNL     1      24.950   4.368  50.005  1.00  0.00     0.223 C 
HETATM   20  O2  UNL     1      24.718   4.471  51.246  1.00  0.00    -0.273 OA
HETATM   21  H15 UNL     1      24.020   3.347  48.346  1.00  0.00     0.169 HD
BRANCH  19  22
HETATM   22  C18 UNL     1      26.061   4.986  49.225  1.00  0.00     0.133 C 
BRANCH  22  23
HETATM   23  C19 UNL     1      25.589   6.378  48.812  1.00  0.00     0.283 C 
BRANCH  23  24
HETATM   24  N4  UNL     1      25.743   7.331  49.863  1.00  0.00     0.112 N 
HETATM   25  C20 UNL     1      26.815   8.255  49.696  1.00  0.00     0.312 C 
BRANCH  24  26
HETATM   26  C21 UNL     1      24.533   7.995  50.274  1.00  0.00     0.536 C 
BRANCH  26  27
HETATM   27  N5  UNL     1      24.248   7.533  51.627  1.00  0.00     0.106 N 
HETATM   28  H25 UNL     1      25.059   7.809  52.215  1.00  0.00     0.315 HD
HETATM   29  H26 UNL     1      24.113   6.502  51.691  1.00  0.00     0.315 HD
ENDBRANCH  26  27
ENDBRANCH  24  26
ENDBRANCH  23  24
ENDBRANCH  22  23
ENDBRANCH  19  22
ENDBRANCH  12  18
BRANCH   1  30
HETATM   30  O1  UNL     1      21.554   4.795  49.685  1.00  0.00    -0.349 OA
BRANCH  30  31
HETATM   31  C2  UNL     1      21.190   6.086  50.105  1.00  0.00     0.171 C 
HETATM   32  C1  UNL     1      19.906   6.487  49.415  1.00  0.00     0.034 C 
ENDBRANCH  30  31
ENDBRANCH   1  30
TORSDOF 10
ENDMDL
MODEL 7
REMARK VINA RESULT:      -7.2      3.459      6.878
REMARK  10 active torsions:
REMARK  status: ('A' for Active; 'I' for Inactive)
REMARK    1  A    between atoms: C2_2  and  O1_3 
REMARK    2  A    between atoms: O1_3  and  C3_4 
REMARK    3  A    between atoms: C9_12  and  C10_13 
REMARK    4  A    between atoms: C10_13  and  C11_14 
REMARK    5  A    between atoms: C16_20  and  N3_21 
REMARK       I    between atoms: N3_21  and  C17_22 
REMARK    6  A    between atoms: C17_22  and  C18_24 
REMARK    7  A    between atoms: C18_24  and  C19_25 
REMARK    8  A    between atoms: C19_25  and  N4_26 
REMARK    9  A    between atoms: N4_26  and  C21_28 
REMARK   10  A    between atoms: C21_28  and  N5_29 
ROOT
HETATM    1  C3  UNL     1      19.717  -0.724  53.404  1.00  0.00     0.097 A 
HETATM    2  C4  UNL     1      20.539  -1.289  54.357  1.00  0.00     0.071 A 
HETATM    3  C5  UNL     1      21.892  -1.026  54.379  1.00  0.00     0.070 A 
HETATM    4  N1  UNL     1      22.616  -1.617  55.340  1.00  0.00    -0.259 NA
HETATM    5  C6  UNL     1      23.953  -1.360  55.361  1.00  0.00     0.140 A 
HETATM    6  C7  UNL     1      24.550  -0.528  54.441  1.00  0.00     0.069 A 
HETATM    7  C8  UNL     1      25.968  -0.350  54.593  1.00  0.00     0.101 C 
HETATM    8  N2  UNL     1      27.114  -0.209  54.718  1.00  0.00    -0.191 NA
HETATM    9  C9  UNL     1      23.838   0.098  53.437  1.00  0.00    -0.020 A 
HETATM   10  C14 UNL     1      22.488  -0.196  53.458  1.00  0.00     0.003 A 
HETATM   11  C15 UNL     1      21.681   0.376  52.498  1.00  0.00     0.046 A 
HETATM   12  C16 UNL     1      20.319   0.121  52.465  1.00  0.00     0.069 A 
ENDROOT
BRANCH   9  13
HETATM   13  C10 UNL     1      24.509   0.974  52.478  1.00  0.00     0.069 C 
BRANCH  13  14
HETATM   14  C11 UNL     1      24.350   2.428  52.752  1.00  0.00    -0.003 C 
HETATM   15  C12 UNL     1      23.658   3.423  52.163  1.00  0.00     0.004 C 
HETATM   16  C13 UNL     1      23.572   4.883  52.535  1.00  0.00     0.061 C 
HETATM   17 CL1  UNL     1      22.617   3.315  50.732  1.00  0.00    -0.090 Cl
ENDBRANCH  13  14
ENDBRANCH   9  13
BRANCH  12  18
HETATM   18  N3  UNL     1      19.519   0.746  51.438  1.00  0.00    -0.325 N 
HETATM   19  C17 UNL     1      19.273   2.121  51.751  1.00  0.00     0.223 C 
HETATM   20  O2  UNL     1      19.826   2.426  52.849  1.00  0.00    -0.273 OA
HETATM   21  H15 UNL     1      19.124   0.335  50.548  1.00  0.00     0.169 HD
BRANCH  19  22
HETATM   22  C18 UNL     1      18.468   2.999  50.854  1.00  0.00     0.133 C 
BRANCH  22  23
HETATM   23  C19 UNL     1      17.239   3.434  51.647  1.00  0.00     0.283 C 
BRANCH  23  24
HETATM   24  N4  UNL     1      16.052   2.776  51.202  1.00  0.00     0.112 N 
HETATM   25  C20 UNL     1      16.075   2.328  49.850  1.00  0.00     0.312 C 
BRANCH  24  26
HETATM   26  C21 UNL     1      15.543   1.762  52.086  1.00  0.00     0.536 C 
BRANCH  26  27
HETATM   27  N5  UNL     1      14.683   2.444  53.047  1.00  0.00     0.106 N 
HETATM   28  H25 UNL     1      14.962   3.446  53.038  1.00  0.00     0.315 HD
HETATM   29  H26 UNL     1      14.771   2.073  54.016  1.00  0.00     0.315 HD
ENDBRANCH  26  27
ENDBRANCH  24  26
ENDBRANCH  23  24
ENDBRANCH  22  23
ENDBRANCH  19  22
ENDBRANCH  12  18
BRANCH   1  30
HETATM   30  O1  UNL     1      18.370  -0.912  53.288  1.00  0.00    -0.349 OA
BRANCH  30  31
HETATM   31  C2  UNL     1      17.695  -2.139  53.402  1.00  0.00     0.171 C 
HETATM   32  C1  UNL     1      16.407  -2.072  52.612  1.00  0.00     0.034 C 
ENDBRANCH  30  31
ENDBRANCH   1  30
TORSDOF 10
ENDMDL
MODEL 8
REMARK VINA RESULT:      -7.2      2.632      5.792
REMARK  10 active torsions:
REMARK  status: ('A' for Active; 'I' for Inactive)
REMARK    1  A    between atoms: C2_2  and  O1_3 
REMARK    2  A    between atoms: O1_3  and  C3_4 
REMARK    3  A    between atoms: C9_12  and  C10_13 
REMARK    4  A    between atoms: C10_13  and  C11_14 
REMARK    5  A    between atoms: C16_20  and  N3_21 
REMARK       I    between atoms: N3_21  and  C17_22 
REMARK    6  A    between atoms: C17_22  and  C18_24 
REMARK    7  A    between atoms: C18_24  and  C19_25 
REMARK    8  A    between atoms: C19_25  and  N4_26 
REMARK    9  A    between atoms: N4_26  and  C21_28 
REMARK   10  A    between atoms: C21_28  and  N5_29 
ROOT
HETATM    1  C3  UNL     1      24.712   3.214  49.975  1.00  0.00     0.097 A 
HETATM    2  C4  UNL     1      23.594   3.119  49.173  1.00  0.00     0.071 A 
HETATM    3  C5  UNL     1      22.364   2.788  49.700  1.00  0.00     0.070 A 
HETATM    4  N1  UNL     1      21.331   2.718  48.849  1.00  0.00    -0.259 NA
HETATM    5  C6  UNL     1      20.116   2.390  49.369  1.00  0.00     0.140 A 
HETATM    6  C7  UNL     1      19.941   2.140  50.712  1.00  0.00     0.069 A 
HETATM    7  C8  UNL     1      18.601   1.809  51.113  1.00  0.00     0.101 C 
HETATM    8  N2  UNL     1      17.516   1.542  51.432  1.00  0.00    -0.191 NA
HETATM    9  C9  UNL     1      20.980   2.203  51.619  1.00  0.00    -0.020 A 
HETATM   10  C14 UNL     1      22.190   2.537  51.042  1.00  0.00     0.003 A 
HETATM   11  C15 UNL     1      23.298   2.628  51.857  1.00  0.00     0.046 A 
HETATM   12  C16 UNL     1      24.540   2.960  51.340  1.00  0.00     0.069 A 
ENDROOT
BRANCH   9  13
HETATM   13  C10 UNL     1      20.754   1.929  53.037  1.00  0.00     0.069 C 
BRANCH  13  14
HETATM   14  C11 UNL     1      21.274   0.616  53.504  1.00  0.00    -0.003 C 
HETATM   15  C12 UNL     1      20.720  -0.597  53.695  1.00  0.00     0.004 C 
HETATM   16  C13 UNL     1      21.356  -1.877  54.180  1.00  0.00     0.061 C 
HETATM   17 CL1  UNL     1      19.030  -1.068  53.430  1.00  0.00    -0.090 Cl
ENDBRANCH  13  14
ENDBRANCH   9  13
BRANCH  12  18
HETATM   18  N3  UNL     1      25.668   3.041  52.237  1.00  0.00    -0.325 N 
HETATM   19  C17 UNL     1      26.161   1.735  52.556  1.00  0.00     0.223 C 
HETATM   20  O2  UNL     1      25.475   0.852  51.963  1.00  0.00    -0.273 OA
HETATM   21  H15 UNL     1      26.137   3.892  52.655  1.00  0.00     0.169 HD
BRANCH  19  22
HETATM   22  C18 UNL     1      27.325   1.535  53.467  1.00  0.00     0.133 C 
BRANCH  22  23
HETATM   23  C19 UNL     1      27.280   0.081  53.928  1.00  0.00     0.283 C 
BRANCH  23  24
HETATM   24  N4  UNL     1      28.075  -0.770  53.102  1.00  0.00     0.112 N 
HETATM   25  C20 UNL     1      29.418  -0.959  53.537  1.00  0.00     0.312 C 
BRANCH  24  26
HETATM   26  C21 UNL     1      27.459  -2.016  52.730  1.00  0.00     0.536 C 
BRANCH  26  27
HETATM   27  N5  UNL     1      28.396  -3.069  53.106  1.00  0.00     0.106 N 
HETATM   28  H25 UNL     1      29.255  -2.595  53.449  1.00  0.00     0.315 HD
HETATM   29  H26 UNL     1      28.645  -3.700  52.316  1.00  0.00     0.315 HD
ENDBRANCH  26  27
ENDBRANCH  24  26
ENDBRANCH  23  24
ENDBRANCH  22  23
ENDBRANCH  19  22
ENDBRANCH  12  18
BRANCH   1  30
HETATM   30  O1  UNL     1      25.974   3.534  49.563  1.00  0.00    -0.349 OA
BRANCH  30  31
HETATM   31  C2  UNL     1      26.457   4.829  49.309  1.00  0.00     0.171 C 
HETATM   32  C1  UNL     1      27.786   4.731  48.595  1.00  0.00     0.034 C 
ENDBRANCH  30  31
ENDBRANCH   1  30
TORSDOF 10
ENDMDL
MODEL 9
REMARK VINA RESULT:      -7.1      2.659      5.910
REMARK  10 active torsions:
REMARK  status: ('A' for Active; 'I' for Inactive)
REMARK    1  A    between atoms: C2_2  and  O1_3 
REMARK    2  A    between atoms: O1_3  and  C3_4 
REMARK    3  A    between atoms: C9_12  and  C10_13 
REMARK    4  A    between atoms: C10_13  and  C11_14 
REMARK    5  A    between atoms: C16_20  and  N3_21 
REMARK       I    between atoms: N3_21  and  C17_22 
REMARK    6  A    between atoms: C17_22  and  C18_24 
REMARK    7  A    between atoms: C18_24  and  C19_25 
REMARK    8  A    between atoms: C19_25  and  N4_26 
REMARK    9  A    between atoms: N4_26  and  C21_28 
REMARK   10  A    between atoms: C21_28  and  N5_29 
ROOT
HETATM    1  C3  UNL     1      22.593   0.815  53.104  1.00  0.00     0.097 A 
HETATM    2  C4  UNL     1      21.322   1.351  53.085  1.00  0.00     0.071 A 
HETATM    3  C5  UNL     1      21.011   2.423  52.276  1.00  0.00     0.070 A 
HETATM    4  N1  UNL     1      19.752   2.880  52.321  1.00  0.00    -0.259 NA
HETATM    5  C6  UNL     1      19.446   3.940  51.523  1.00  0.00     0.140 A 
HETATM    6  C7  UNL     1      20.379   4.527  50.699  1.00  0.00     0.069 A 
HETATM    7  C8  UNL     1      19.906   5.634  49.914  1.00  0.00     0.101 C 
HETATM    8  N2  UNL     1      19.520   6.529  49.282  1.00  0.00    -0.191 NA
HETATM    9  C9  UNL     1      21.685   4.084  50.626  1.00  0.00    -0.020 A 
HETATM   10  C14 UNL     1      21.946   3.010  51.454  1.00  0.00     0.003 A 
HETATM   11  C15 UNL     1      23.222   2.487  51.462  1.00  0.00     0.046 A 
HETATM   12  C16 UNL     1      23.547   1.409  52.270  1.00  0.00     0.069 A 
ENDROOT
BRANCH   9  13
HETATM   13  C10 UNL     1      22.648   4.735  49.739  1.00  0.00     0.069 C 
BRANCH  13  14
HETATM   14  C11 UNL     1      22.358   4.576  48.289  1.00  0.00    -0.003 C 
HETATM   15  C12 UNL     1      22.193   3.512  47.478  1.00  0.00     0.004 C 
HETATM   16  C13 UNL     1      21.898   3.471  45.998  1.00  0.00     0.061 C 
HETATM   17 CL1  UNL     1      22.279   1.796  47.915  1.00  0.00    -0.090 Cl
ENDBRANCH  13  14
ENDBRANCH   9  13
BRANCH  12  18
HETATM   18  N3  UNL     1      24.897   0.899  52.240  1.00  0.00    -0.325 N 
HETATM   19  C17 UNL     1      25.763   1.702  53.050  1.00  0.00     0.223 C 
HETATM   20  O2  UNL     1      25.110   2.648  53.582  1.00  0.00    -0.273 OA
HETATM   21  H15 UNL     1      25.291   0.063  51.726  1.00  0.00     0.169 HD
BRANCH  19  22
HETATM   22  C18 UNL     1      27.214   1.393  53.194  1.00  0.00     0.133 C 
BRANCH  22  23
HETATM   23  C19 UNL     1      27.311   0.015  53.841  1.00  0.00     0.283 C 
BRANCH  23  24
HETATM   24  N4  UNL     1      28.082  -0.895  53.056  1.00  0.00     0.112 N 
HETATM   25  C20 UNL     1      29.404  -1.137  53.526  1.00  0.00     0.312 C 
BRANCH  24  26
HETATM   26  C21 UNL     1      27.414  -2.120  52.701  1.00  0.00     0.536 C 
BRANCH  26  27
HETATM   27  N5  UNL     1      28.319  -3.204  53.065  1.00  0.00     0.106 N 
HETATM   28  H25 UNL     1      28.640  -3.637  52.175  1.00  0.00     0.315 HD
HETATM   29  H26 UNL     1      27.872  -3.933  53.659  1.00  0.00     0.315 HD
ENDBRANCH  26  27
ENDBRANCH  24  26
ENDBRANCH  23  24
ENDBRANCH  22  23
ENDBRANCH  19  22
ENDBRANCH  12  18
BRANCH   1  30
HETATM   30  O1  UNL     1      23.010  -0.242  53.861  1.00  0.00    -0.349 OA
BRANCH  30  31
HETATM   31  C2  UNL     1      22.278  -0.864  54.886  1.00  0.00     0.171 C 
HETATM   32  C1  UNL     1      21.431  -1.966  54.291  1.00  0.00     0.034 C 
ENDBRANCH  30  31
ENDBRANCH   1  30
TORSDOF 10
ENDMDL
