MODEL 1
REMARK VINA RESULT:      -7.9      0.000      0.000
REMARK  5 active torsions:
REMARK  status: ('A' for Active; 'I' for Inactive)
REMARK    1  A    between atoms: C6_8  and  C7_9 
REMARK    2  A    between atoms: C7_9  and  N3_10 
REMARK    3  A    between atoms: N3_10  and  C9_12 
REMARK    4  A    between atoms: C16_20  and  S1_21 
REMARK    5  A    between atoms: S1_21  and  N5_22 
ROOT
HETATM    1  C9  UNL     1      22.569   2.900  51.150  1.00  0.00     0.121 C 
HETATM    2  N4  UNL     1      22.289   2.184  50.130  1.00  0.00    -0.268 NA
HETATM    3  C10 UNL     1      22.667   2.483  48.744  1.00  0.00     0.191 C 
HETATM    4  C11 UNL     1      23.644   3.644  48.802  1.00  0.00    -0.015 A 
HETATM    5  C12 UNL     1      24.647   3.195  49.613  1.00  0.00     0.012 A 
HETATM    6  C13 UNL     1      25.496   4.198  49.968  1.00  0.00     0.030 A 
HETATM    7  C14 UNL     1      25.181   5.459  49.439  1.00  0.00     0.034 A 
HETATM    8  C15 UNL     1      24.121   5.835  48.591  1.00  0.00     0.054 A 
HETATM    9  C16 UNL     1      23.272   4.815  48.243  1.00  0.00     0.084 A 
HETATM   10  N6  UNL     1      26.049   6.510  49.986  1.00  0.00    -0.351 N 
HETATM   11  C17 UNL     1      24.856   6.638  50.835  1.00  0.00     0.207 C 
HETATM   12  N7  UNL     1      23.866   6.373  51.581  1.00  0.00    -0.256 NA
HETATM   13  C18 UNL     1      23.417   5.135  52.036  1.00  0.00     0.122 C 
HETATM   14  C19 UNL     1      22.965   3.902  52.145  1.00  0.00     0.069 C 
HETATM   15  H22 UNL     1      26.854   7.087  50.110  1.00  0.00     0.166 HD
ENDROOT
BRANCH   1  16
HETATM   16  N3  UNL     1      21.827   1.831  51.868  1.00  0.00    -0.366 N 
HETATM   17  C8  UNL     1      20.635   1.822  52.709  1.00  0.00     0.151 C 
BRANCH  16  18
HETATM   18  C7  UNL     1      22.259   0.436  51.867  1.00  0.00     0.166 C 
BRANCH  18  19
HETATM   19  C6  UNL     1      23.184   0.066  52.949  1.00  0.00     0.009 A 
HETATM   20  C2  UNL     1      22.824  -0.703  54.056  1.00  0.00     0.061 A 
HETATM   21  C1  UNL     1      21.543  -1.281  54.541  1.00  0.00     0.073 C 
HETATM   22  N1  UNL     1      23.907  -0.892  54.824  1.00  0.00    -0.177 NA
HETATM   23  N2  UNL     1      24.950  -0.284  54.279  1.00  0.00    -0.278 N 
HETATM   24  C3  UNL     1      26.274  -0.327  54.922  1.00  0.00     0.179 C 
HETATM   25  C4  UNL     1      24.532   0.313  53.130  1.00  0.00     0.036 A 
HETATM   26  C5  UNL     1      25.421   1.074  52.241  1.00  0.00     0.070 C 
ENDBRANCH  18  19
ENDBRANCH  16  18
ENDBRANCH   1  16
BRANCH   9  27
HETATM   27  S1  UNL     1      21.964   5.087  47.125  1.00  0.00     0.240 S 
HETATM   28  O1  UNL     1      21.918   4.143  45.974  1.00  0.00    -0.206 OA
HETATM   29  O2  UNL     1      20.669   5.050  47.862  1.00  0.00    -0.206 OA
BRANCH  27  30
HETATM   30  N5  UNL     1      22.118   6.694  46.427  1.00  0.00    -0.225 NA
HETATM   31  H20 UNL     1      22.500   7.364  47.169  1.00  0.00     0.136 HD
HETATM   32  H21 UNL     1      22.859   6.665  45.688  1.00  0.00     0.136 HD
ENDBRANCH  27  30
ENDBRANCH   9  27
TORSDOF 5
ENDMDL
MODEL 2
REMARK VINA RESULT:      -7.5      1.289      2.080
REMARK  5 active torsions:
REMARK  status: ('A' for Active; 'I' for Inactive)
REMARK    1  A    between atoms: C6_8  and  C7_9 
REMARK    2  A    between atoms: C7_9  and  N3_10 
REMARK    3  A    between atoms: N3_10  and  C9_12 
REMARK    4  A    between atoms: C16_20  and  S1_21 
REMARK    5  A    between atoms: S1_21  and  N5_22 
ROOT
HETATM    1  C9  UNL     1      22.397   3.777  50.789  1.00  0.00     0.121 C 
HETATM    2  N4  UNL     1      21.968   3.187  49.741  1.00  0.00    -0.268 NA
HETATM    3  C10 UNL     1      22.362   3.496  48.362  1.00  0.00     0.191 C 
HETATM    4  C11 UNL     1      23.534   4.457  48.450  1.00  0.00    -0.015 A 
HETATM    5  C12 UNL     1      24.458   3.786  49.200  1.00  0.00     0.012 A 
HETATM    6  C13 UNL     1      25.483   4.597  49.582  1.00  0.00     0.030 A 
HETATM    7  C14 UNL     1      25.390   5.924  49.134  1.00  0.00     0.034 A 
HETATM    8  C15 UNL     1      24.396   6.536  48.346  1.00  0.00     0.054 A 
HETATM    9  C16 UNL     1      23.368   5.708  47.971  1.00  0.00     0.084 A 
HETATM   10  N6  UNL     1      26.446   6.766  49.709  1.00  0.00    -0.351 N 
HETATM   11  C17 UNL     1      25.317   7.054  50.605  1.00  0.00     0.207 C 
HETATM   12  N7  UNL     1      24.313   6.927  51.368  1.00  0.00    -0.256 NA
HETATM   13  C18 UNL     1      23.658   5.764  51.769  1.00  0.00     0.122 C 
HETATM   14  C19 UNL     1      22.992   4.628  51.824  1.00  0.00     0.069 C 
HETATM   15  H22 UNL     1      27.346   7.180  49.838  1.00  0.00     0.166 HD
ENDROOT
BRANCH   1  16
HETATM   16  N3  UNL     1      21.491   2.817  51.471  1.00  0.00    -0.366 N 
HETATM   17  C8  UNL     1      20.400   2.967  52.428  1.00  0.00     0.151 C 
BRANCH  16  18
HETATM   18  C7  UNL     1      21.592   1.372  51.287  1.00  0.00     0.166 C 
BRANCH  18  19
HETATM   19  C6  UNL     1      22.281   0.649  52.366  1.00  0.00     0.009 A 
HETATM   20  C2  UNL     1      23.657   0.706  52.591  1.00  0.00     0.061 A 
HETATM   21  C1  UNL     1      24.794   1.348  51.881  1.00  0.00     0.073 C 
HETATM   22  N1  UNL     1      23.951  -0.028  53.674  1.00  0.00    -0.177 NA
HETATM   23  N2  UNL     1      22.842  -0.563  54.163  1.00  0.00    -0.278 N 
HETATM   24  C3  UNL     1      22.878  -1.425  55.355  1.00  0.00     0.179 C 
HETATM   25  C4  UNL     1      21.805  -0.165  53.377  1.00  0.00     0.036 A 
HETATM   26  C5  UNL     1      20.408  -0.550  53.621  1.00  0.00     0.070 C 
ENDBRANCH  18  19
ENDBRANCH  16  18
ENDBRANCH   1  16
BRANCH   9  27
HETATM   27  S1  UNL     1      22.105   6.278  46.915  1.00  0.00     0.240 S 
HETATM   28  O1  UNL     1      20.729   6.186  47.478  1.00  0.00    -0.206 OA
HETATM   29  O2  UNL     1      22.394   7.685  46.515  1.00  0.00    -0.206 OA
BRANCH  27  30
HETATM   30  N5  UNL     1      22.094   5.312  45.445  1.00  0.00    -0.225 NA
HETATM   31  H20 UNL     1      22.261   4.287  45.698  1.00  0.00     0.136 HD
HETATM   32  H21 UNL     1      21.127   5.333  45.042  1.00  0.00     0.136 HD
ENDBRANCH  27  30
ENDBRANCH   9  27
TORSDOF 5
ENDMDL
MODEL 3
REMARK VINA RESULT:      -7.5      2.561      4.565
REMARK  5 active torsions:
REMARK  status: ('A' for Active; 'I' for Inactive)
REMARK    1  A    between atoms: C6_8  and  C7_9 
REMARK    2  A    between atoms: C7_9  and  N3_10 
REMARK    3  A    between atoms: N3_10  and  C9_12 
REMARK    4  A    between atoms: C16_20  and  S1_21 
REMARK    5  A    between atoms: S1_21  and  N5_22 
ROOT
HETATM    1  C9  UNL     1      23.397   2.788  51.496  1.00  0.00     0.121 C 
HETATM    2  N4  UNL     1      23.523   3.929  52.056  1.00  0.00    -0.268 NA
HETATM    3  C10 UNL     1      22.454   4.918  52.234  1.00  0.00     0.191 C 
HETATM    4  C11 UNL     1      21.155   4.227  51.858  1.00  0.00    -0.015 A 
HETATM    5  C12 UNL     1      21.108   3.139  52.683  1.00  0.00     0.012 A 
HETATM    6  C13 UNL     1      20.124   2.271  52.317  1.00  0.00     0.030 A 
HETATM    7  C14 UNL     1      19.372   2.662  51.199  1.00  0.00     0.034 A 
HETATM    8  C15 UNL     1      19.483   3.820  50.405  1.00  0.00     0.054 A 
HETATM    9  C16 UNL     1      20.480   4.684  50.783  1.00  0.00     0.084 A 
HETATM   10  N6  UNL     1      18.438   1.611  50.779  1.00  0.00    -0.351 N 
HETATM   11  C17 UNL     1      19.566   1.388  49.864  1.00  0.00     0.207 C 
HETATM   12  N7  UNL     1      20.734   1.230  49.396  1.00  0.00    -0.256 NA
HETATM   13  C18 UNL     1      21.956   1.247  50.066  1.00  0.00     0.122 C 
HETATM   14  C19 UNL     1      23.017   1.567  50.778  1.00  0.00     0.069 C 
HETATM   15  H22 UNL     1      17.620   1.038  50.763  1.00  0.00     0.166 HD
ENDROOT
BRANCH   1  16
HETATM   16  N3  UNL     1      24.843   2.679  51.822  1.00  0.00    -0.366 N 
HETATM   17  C8  UNL     1      26.054   2.598  51.014  1.00  0.00     0.151 C 
BRANCH  16  18
HETATM   18  C7  UNL     1      25.336   2.592  53.194  1.00  0.00     0.166 C 
BRANCH  18  19
HETATM   19  C6  UNL     1      26.192   1.431  53.478  1.00  0.00     0.009 A 
HETATM   20  C2  UNL     1      25.721   0.123  53.598  1.00  0.00     0.061 A 
HETATM   21  C1  UNL     1      24.368  -0.495  53.577  1.00  0.00     0.073 C 
HETATM   22  N1  UNL     1      26.760  -0.696  53.814  1.00  0.00    -0.177 NA
HETATM   23  N2  UNL     1      27.882   0.009  53.845  1.00  0.00    -0.278 N 
HETATM   24  C3  UNL     1      29.181  -0.644  54.073  1.00  0.00     0.179 C 
HETATM   25  C4  UNL     1      27.559   1.315  53.645  1.00  0.00     0.036 A 
HETATM   26  C5  UNL     1      28.552   2.398  53.599  1.00  0.00     0.070 C 
ENDBRANCH  18  19
ENDBRANCH  16  18
ENDBRANCH   1  16
BRANCH   9  27
HETATM   27  S1  UNL     1      20.693   6.209  49.969  1.00  0.00     0.240 S 
HETATM   28  O1  UNL     1      21.178   7.319  50.835  1.00  0.00    -0.206 OA
HETATM   29  O2  UNL     1      21.618   6.028  48.815  1.00  0.00    -0.206 OA
BRANCH  27  30
HETATM   30  N5  UNL     1      19.148   6.743  49.317  1.00  0.00    -0.225 NA
HETATM   31  H20 UNL     1      18.514   7.047  50.123  1.00  0.00     0.136 HD
HETATM   32  H21 UNL     1      19.308   7.615  48.759  1.00  0.00     0.136 HD
ENDBRANCH  27  30
ENDBRANCH   9  27
TORSDOF 5
ENDMDL
MODEL 4
REMARK VINA RESULT:      -7.4      2.138      3.512
REMARK  5 active torsions:
REMARK  status: ('A' for Active; 'I' for Inactive)
REMARK    1  A    between atoms: C6_8  and  C7_9 
REMARK    2  A    between atoms: C7_9  and  N3_10 
REMARK    3  A    between atoms: N3_10  and  C9_12 
REMARK    4  A    between atoms: C16_20  and  S1_21 
REMARK    5  A    between atoms: S1_21  and  N5_22 
ROOT
HETATM    1  C9  UNL     1      21.559   2.254  50.965  1.00  0.00     0.121 C 
HETATM    2  N4  UNL     1      21.754   3.059  51.938  1.00  0.00    -0.268 NA
HETATM    3  C10 UNL     1      22.122   4.474  51.818  1.00  0.00     0.191 C 
HETATM    4  C11 UNL     1      21.978   4.837  50.350  1.00  0.00    -0.015 A 
HETATM    5  C12 UNL     1      20.680   4.528  50.057  1.00  0.00     0.012 A 
HETATM    6  C13 UNL     1      20.442   4.567  48.718  1.00  0.00     0.030 A 
HETATM    7  C14 UNL     1      21.549   4.913  47.927  1.00  0.00     0.034 A 
HETATM    8  C15 UNL     1      22.865   5.230  48.317  1.00  0.00     0.054 A 
HETATM    9  C16 UNL     1      23.091   5.184  49.670  1.00  0.00     0.084 A 
HETATM   10  N6  UNL     1      21.253   4.786  46.494  1.00  0.00    -0.351 N 
HETATM   11  C17 UNL     1      21.929   3.510  46.772  1.00  0.00     0.207 C 
HETATM   12  N7  UNL     1      22.276   2.414  47.306  1.00  0.00    -0.256 NA
HETATM   13  C18 UNL     1      21.791   1.812  48.466  1.00  0.00     0.122 C 
HETATM   14  C19 UNL     1      21.436   1.521  49.701  1.00  0.00     0.069 C 
HETATM   15  H22 UNL     1      20.903   5.015  45.588  1.00  0.00     0.166 HD
ENDROOT
BRANCH   1  16
HETATM   16  N3  UNL     1      21.294   1.289  52.065  1.00  0.00    -0.366 N 
HETATM   17  C8  UNL     1      20.497   1.346  53.285  1.00  0.00     0.151 C 
BRANCH  16  18
HETATM   18  C7  UNL     1      21.906  -0.036  52.114  1.00  0.00     0.166 C 
BRANCH  18  19
HETATM   19  C6  UNL     1      23.044  -0.167  53.036  1.00  0.00     0.009 A 
HETATM   20  C2  UNL     1      23.023  -0.940  54.198  1.00  0.00     0.061 A 
HETATM   21  C1  UNL     1      21.976  -1.734  54.893  1.00  0.00     0.073 C 
HETATM   22  N1  UNL     1      24.228  -0.878  54.782  1.00  0.00    -0.177 NA
HETATM   23  N2  UNL     1      25.030  -0.103  54.066  1.00  0.00    -0.278 N 
HETATM   24  C3  UNL     1      26.419   0.143  54.486  1.00  0.00     0.179 C 
HETATM   25  C4  UNL     1      24.326   0.346  52.992  1.00  0.00     0.036 A 
HETATM   26  C5  UNL     1      24.894   1.224  51.960  1.00  0.00     0.070 C 
ENDBRANCH  18  19
ENDBRANCH  16  18
ENDBRANCH   1  16
BRANCH   9  27
HETATM   27  S1  UNL     1      24.637   5.641  50.330  1.00  0.00     0.240 S 
HETATM   28  O1  UNL     1      25.490   4.503  50.772  1.00  0.00    -0.206 OA
HETATM   29  O2  UNL     1      25.374   6.468  49.333  1.00  0.00    -0.206 OA
BRANCH  27  30
HETATM   30  N5  UNL     1      24.389   6.643  51.754  1.00  0.00    -0.225 NA
HETATM   31  H20 UNL     1      23.940   6.052  52.525  1.00  0.00     0.136 HD
HETATM   32  H21 UNL     1      25.326   6.912  52.137  1.00  0.00     0.136 HD
ENDBRANCH  27  30
ENDBRANCH   9  27
TORSDOF 5
ENDMDL
MODEL 5
REMARK VINA RESULT:      -7.2      2.820      7.161
REMARK  5 active torsions:
REMARK  status: ('A' for Active; 'I' for Inactive)
REMARK    1  A    between atoms: C6_8  and  C7_9 
REMARK    2  A    between atoms: C7_9  and  N3_10 
REMARK    3  A    between atoms: N3_10  and  C9_12 
REMARK    4  A    between atoms: C16_20  and  S1_21 
REMARK    5  A    between atoms: S1_21  and  N5_22 
ROOT
HETATM    1  C9  UNL     1      25.237   3.065  51.151  1.00  0.00     0.121 C 
HETATM    2  N4  UNL     1      24.156   3.606  51.563  1.00  0.00    -0.268 NA
HETATM    3  C10 UNL     1      23.312   3.111  52.656  1.00  0.00     0.191 C 
HETATM    4  C11 UNL     1      24.094   2.003  53.341  1.00  0.00    -0.015 A 
HETATM    5  C12 UNL     1      25.264   2.604  53.712  1.00  0.00     0.012 A 
HETATM    6  C13 UNL     1      26.187   1.695  54.130  1.00  0.00     0.030 A 
HETATM    7  C14 UNL     1      25.760   0.358  54.101  1.00  0.00     0.034 A 
HETATM    8  C15 UNL     1      24.518  -0.178  53.710  1.00  0.00     0.054 A 
HETATM    9  C16 UNL     1      23.599   0.750  53.288  1.00  0.00     0.084 A 
HETATM   10  N6  UNL     1      26.855  -0.568  54.420  1.00  0.00    -0.351 N 
HETATM   11  C17 UNL     1      26.855  -0.602  52.950  1.00  0.00     0.207 C 
HETATM   12  N7  UNL     1      26.836  -0.258  51.730  1.00  0.00    -0.256 NA
HETATM   13  C18 UNL     1      26.760   1.021  51.182  1.00  0.00     0.122 C 
HETATM   14  C19 UNL     1      26.407   2.241  50.830  1.00  0.00     0.069 C 
HETATM   15  H22 UNL     1      27.506  -1.093  54.964  1.00  0.00     0.166 HD
ENDROOT
BRANCH   1  16
HETATM   16  N3  UNL     1      25.225   4.207  50.201  1.00  0.00    -0.366 N 
HETATM   17  C8  UNL     1      26.204   4.750  49.266  1.00  0.00     0.151 C 
BRANCH  16  18
HETATM   18  C7  UNL     1      24.082   5.106  50.065  1.00  0.00     0.166 C 
BRANCH  18  19
HETATM   19  C6  UNL     1      23.397   5.056  48.764  1.00  0.00     0.009 A 
HETATM   20  C2  UNL     1      23.311   6.135  47.884  1.00  0.00     0.061 A 
HETATM   21  C1  UNL     1      23.734   7.559  47.950  1.00  0.00     0.073 C 
HETATM   22  N1  UNL     1      22.663   5.743  46.778  1.00  0.00    -0.177 NA
HETATM   23  N2  UNL     1      22.319   4.469  46.893  1.00  0.00    -0.278 N 
HETATM   24  C3  UNL     1      21.587   3.782  45.816  1.00  0.00     0.179 C 
HETATM   25  C4  UNL     1      22.756   4.026  48.102  1.00  0.00     0.036 A 
HETATM   26  C5  UNL     1      22.569   2.648  48.578  1.00  0.00     0.070 C 
ENDBRANCH  18  19
ENDBRANCH  16  18
ENDBRANCH   1  16
BRANCH   9  27
HETATM   27  S1  UNL     1      21.980   0.268  52.859  1.00  0.00     0.240 S 
HETATM   28  O1  UNL     1      20.899   1.078  53.485  1.00  0.00    -0.206 OA
HETATM   29  O2  UNL     1      21.835   0.290  51.376  1.00  0.00    -0.206 OA
BRANCH  27  30
HETATM   30  N5  UNL     1      21.708  -1.390  53.382  1.00  0.00    -0.225 NA
HETATM   31  H20 UNL     1      21.981  -2.056  52.592  1.00  0.00     0.136 HD
HETATM   32  H21 UNL     1      22.377  -1.607  54.158  1.00  0.00     0.136 HD
ENDBRANCH  27  30
ENDBRANCH   9  27
TORSDOF 5
ENDMDL
MODEL 6
REMARK VINA RESULT:      -7.0      2.833      4.094
REMARK  5 active torsions:
REMARK  status: ('A' for Active; 'I' for Inactive)
REMARK    1  A    between atoms: C6_8  and  C7_9 
REMARK    2  A    between atoms: C7_9  and  N3_10 
REMARK    3  A    between atoms: N3_10  and  C9_12 
REMARK    4  A    between atoms: C16_20  and  S1_21 
REMARK    5  A    between atoms: S1_21  and  N5_22 
ROOT
HETATM    1  C9  UNL     1      24.004   3.104  50.797  1.00  0.00     0.121 C 
HETATM    2  N4  UNL     1      23.602   1.931  51.102  1.00  0.00    -0.268 NA
HETATM    3  C10 UNL     1      22.268   1.385  50.830  1.00  0.00     0.191 C 
HETATM    4  C11 UNL     1      21.571   2.378  49.915  1.00  0.00    -0.015 A 
HETATM    5  C12 UNL     1      22.407   2.481  48.840  1.00  0.00     0.012 A 
HETATM    6  C13 UNL     1      22.055   3.513  48.025  1.00  0.00     0.030 A 
HETATM    7  C14 UNL     1      20.930   4.242  48.441  1.00  0.00     0.034 A 
HETATM    8  C15 UNL     1      20.111   4.057  49.571  1.00  0.00     0.054 A 
HETATM    9  C16 UNL     1      20.478   3.016  50.385  1.00  0.00     0.084 A 
HETATM   10  N6  UNL     1      20.706   5.423  47.597  1.00  0.00    -0.351 N 
HETATM   11  C17 UNL     1      21.427   6.005  48.738  1.00  0.00     0.207 C 
HETATM   12  N7  UNL     1      22.270   6.208  49.663  1.00  0.00    -0.256 NA
HETATM   13  C18 UNL     1      23.385   5.449  50.014  1.00  0.00     0.122 C 
HETATM   14  C19 UNL     1      24.214   4.498  50.392  1.00  0.00     0.069 C 
HETATM   15  H22 UNL     1      20.412   5.973  46.818  1.00  0.00     0.166 HD
ENDROOT
BRANCH   1  16
HETATM   16  N3  UNL     1      25.262   2.633  51.433  1.00  0.00    -0.366 N 
HETATM   17  C8  UNL     1      26.543   2.169  50.910  1.00  0.00     0.151 C 
BRANCH  16  18
HETATM   18  C7  UNL     1      25.417   2.513  52.880  1.00  0.00     0.166 C 
BRANCH  18  19
HETATM   19  C6  UNL     1      26.272   1.404  53.329  1.00  0.00     0.009 A 
HETATM   20  C2  UNL     1      25.827   0.091  53.492  1.00  0.00     0.061 A 
HETATM   21  C1  UNL     1      24.501  -0.573  53.379  1.00  0.00     0.073 C 
HETATM   22  N1  UNL     1      26.862  -0.674  53.867  1.00  0.00    -0.177 NA
HETATM   23  N2  UNL     1      27.954   0.070  53.962  1.00  0.00    -0.278 N 
HETATM   24  C3  UNL     1      29.241  -0.521  54.364  1.00  0.00     0.179 C 
HETATM   25  C4  UNL     1      27.617   1.348  53.639  1.00  0.00     0.036 A 
HETATM   26  C5  UNL     1      28.578   2.459  53.618  1.00  0.00     0.070 C 
ENDBRANCH  18  19
ENDBRANCH  16  18
ENDBRANCH   1  16
BRANCH   9  27
HETATM   27  S1  UNL     1      19.518   2.589  51.774  1.00  0.00     0.240 S 
HETATM   28  O1  UNL     1      19.034   1.181  51.793  1.00  0.00    -0.206 OA
HETATM   29  O2  UNL     1      20.293   2.873  53.016  1.00  0.00    -0.206 OA
BRANCH  27  30
HETATM   30  N5  UNL     1      18.077   3.597  51.819  1.00  0.00    -0.225 NA
HETATM   31  H20 UNL     1      17.219   2.992  51.619  1.00  0.00     0.136 HD
HETATM   32  H21 UNL     1      17.941   3.937  52.800  1.00  0.00     0.136 HD
ENDBRANCH  27  30
ENDBRANCH   9  27
TORSDOF 5
ENDMDL
MODEL 7
REMARK VINA RESULT:      -7.0      1.691      2.342
REMARK  5 active torsions:
REMARK  status: ('A' for Active; 'I' for Inactive)
REMARK    1  A    between atoms: C6_8  and  C7_9 
REMARK    2  A    between atoms: C7_9  and  N3_10 
REMARK    3  A    between atoms: N3_10  and  C9_12 
REMARK    4  A    between atoms: C16_20  and  S1_21 
REMARK    5  A    between atoms: S1_21  and  N5_22 
ROOT
HETATM    1  C9  UNL     1      21.589   3.157  50.300  1.00  0.00     0.121 C 
HETATM    2  N4  UNL     1      21.927   2.259  49.457  1.00  0.00    -0.268 NA
HETATM    3  C10 UNL     1      22.533   2.503  48.143  1.00  0.00     0.191 C 
HETATM    4  C11 UNL     1      22.897   3.977  48.099  1.00  0.00    -0.015 A 
HETATM    5  C12 UNL     1      23.717   4.148  49.178  1.00  0.00     0.012 A 
HETATM    6  C13 UNL     1      23.948   5.466  49.431  1.00  0.00     0.030 A 
HETATM    7  C14 UNL     1      23.317   6.360  48.552  1.00  0.00     0.034 A 
HETATM    8  C15 UNL     1      22.488   6.093  47.446  1.00  0.00     0.054 A 
HETATM    9  C16 UNL     1      22.262   4.761  47.204  1.00  0.00     0.084 A 
HETATM   10  N6  UNL     1      23.491   7.754  48.979  1.00  0.00    -0.351 N 
HETATM   11  C17 UNL     1      22.159   7.442  49.517  1.00  0.00     0.207 C 
HETATM   12  N7  UNL     1      21.191   6.862  50.096  1.00  0.00    -0.256 NA
HETATM   13  C18 UNL     1      21.171   5.631  50.748  1.00  0.00     0.122 C 
HETATM   14  C19 UNL     1      21.243   4.355  51.071  1.00  0.00     0.069 C 
HETATM   15  H22 UNL     1      23.922   8.644  49.111  1.00  0.00     0.166 HD
ENDROOT
BRANCH   1  16
HETATM   16  N3  UNL     1      21.170   1.978  51.102  1.00  0.00    -0.366 N 
HETATM   17  C8  UNL     1      20.426   0.762  50.792  1.00  0.00     0.151 C 
BRANCH  16  18
HETATM   18  C7  UNL     1      21.449   1.857  52.530  1.00  0.00     0.166 C 
BRANCH  18  19
HETATM   19  C6  UNL     1      22.796   1.372  52.866  1.00  0.00     0.009 A 
HETATM   20  C2  UNL     1      23.911   2.199  53.011  1.00  0.00     0.061 A 
HETATM   21  C1  UNL     1      24.149   3.655  52.822  1.00  0.00     0.073 C 
HETATM   22  N1  UNL     1      24.966   1.449  53.360  1.00  0.00    -0.177 NA
HETATM   23  N2  UNL     1      24.599   0.179  53.446  1.00  0.00    -0.278 N 
HETATM   24  C3  UNL     1      25.569  -0.867  53.810  1.00  0.00     0.179 C 
HETATM   25  C4  UNL     1      23.274   0.106  53.145  1.00  0.00     0.036 A 
HETATM   26  C5  UNL     1      22.509  -1.149  53.151  1.00  0.00     0.070 C 
ENDBRANCH  18  19
ENDBRANCH  16  18
ENDBRANCH   1  16
BRANCH   9  27
HETATM   27  S1  UNL     1      21.336   4.253  45.818  1.00  0.00     0.240 S 
HETATM   28  O1  UNL     1      22.071   3.381  44.860  1.00  0.00    -0.206 OA
HETATM   29  O2  UNL     1      20.096   3.565  46.278  1.00  0.00    -0.206 OA
BRANCH  27  30
HETATM   30  N5  UNL     1      20.835   5.667  44.901  1.00  0.00    -0.225 NA
HETATM   31  H20 UNL     1      21.062   6.548  45.462  1.00  0.00     0.136 HD
HETATM   32  H21 UNL     1      21.434   5.735  44.044  1.00  0.00     0.136 HD
ENDBRANCH  27  30
ENDBRANCH   9  27
TORSDOF 5
ENDMDL
MODEL 8
REMARK VINA RESULT:      -6.9      2.922      6.942
REMARK  5 active torsions:
REMARK  status: ('A' for Active; 'I' for Inactive)
REMARK    1  A    between atoms: C6_8  and  C7_9 
REMARK    2  A    between atoms: C7_9  and  N3_10 
REMARK    3  A    between atoms: N3_10  and  C9_12 
REMARK    4  A    between atoms: C16_20  and  S1_21 
REMARK    5  A    between atoms: S1_21  and  N5_22 
ROOT
HETATM    1  C9  UNL     1      23.101   3.895  49.903  1.00  0.00     0.121 C 
HETATM    2  N4  UNL     1      21.866   3.846  50.225  1.00  0.00    -0.268 NA
HETATM    3  C10 UNL     1      21.322   3.232  51.441  1.00  0.00     0.191 C 
HETATM    4  C11 UNL     1      22.509   2.903  52.330  1.00  0.00    -0.015 A 
HETATM    5  C12 UNL     1      23.141   4.103  52.496  1.00  0.00     0.012 A 
HETATM    6  C13 UNL     1      24.365   3.952  53.073  1.00  0.00     0.030 A 
HETATM    7  C14 UNL     1      24.720   2.629  53.378  1.00  0.00     0.034 A 
HETATM    8  C15 UNL     1      23.994   1.439  53.180  1.00  0.00     0.054 A 
HETATM    9  C16 UNL     1      22.763   1.605  52.596  1.00  0.00     0.084 A 
HETATM   10  N6  UNL     1      26.105   2.535  53.855  1.00  0.00    -0.351 N 
HETATM   11  C17 UNL     1      26.255   2.181  52.436  1.00  0.00     0.207 C 
HETATM   12  N7  UNL     1      26.163   2.180  51.171  1.00  0.00    -0.256 NA
HETATM   13  C18 UNL     1      25.468   3.058  50.342  1.00  0.00     0.122 C 
HETATM   14  C19 UNL     1      24.553   3.783  49.731  1.00  0.00     0.069 C 
HETATM   15  H22 UNL     1      26.885   2.579  54.476  1.00  0.00     0.166 HD
ENDROOT
BRANCH   1  16
HETATM   16  N3  UNL     1      22.567   4.607  48.713  1.00  0.00    -0.366 N 
HETATM   17  C8  UNL     1      22.332   4.217  47.327  1.00  0.00     0.151 C 
BRANCH  16  18
HETATM   18  C7  UNL     1      22.173   6.013  48.747  1.00  0.00     0.166 C 
BRANCH  18  19
HETATM   19  C6  UNL     1      23.280   6.976  48.648  1.00  0.00     0.009 A 
HETATM   20  C2  UNL     1      23.691   7.574  47.455  1.00  0.00     0.061 A 
HETATM   21  C1  UNL     1      23.291   7.422  46.031  1.00  0.00     0.073 C 
HETATM   22  N1  UNL     1      24.689   8.429  47.720  1.00  0.00    -0.177 NA
HETATM   23  N2  UNL     1      24.951   8.417  49.018  1.00  0.00    -0.278 N 
HETATM   24  C3  UNL     1      26.014   9.265  49.584  1.00  0.00     0.179 C 
HETATM   25  C4  UNL     1      24.103   7.533  49.608  1.00  0.00     0.036 A 
HETATM   26  C5  UNL     1      24.088   7.262  51.052  1.00  0.00     0.070 C 
ENDBRANCH  18  19
ENDBRANCH  16  18
ENDBRANCH   1  16
BRANCH   9  27
HETATM   27  S1  UNL     1      21.695   0.248  52.367  1.00  0.00     0.240 S 
HETATM   28  O1  UNL     1      20.377   0.366  53.049  1.00  0.00    -0.206 OA
HETATM   29  O2  UNL     1      21.490   0.022  50.908  1.00  0.00    -0.206 OA
BRANCH  27  30
HETATM   30  N5  UNL     1      22.449  -1.203  53.015  1.00  0.00    -0.225 NA
HETATM   31  H20 UNL     1      23.485  -1.208  52.751  1.00  0.00     0.136 HD
HETATM   32  H21 UNL     1      22.441  -1.142  54.061  1.00  0.00     0.136 HD
ENDBRANCH  27  30
ENDBRANCH   9  27
TORSDOF 5
ENDMDL
MODEL 9
REMARK VINA RESULT:      -6.9      7.096      9.994
REMARK  5 active torsions:
REMARK  status: ('A' for Active; 'I' for Inactive)
REMARK    1  A    between atoms: C6_8  and  C7_9 
REMARK    2  A    between atoms: C7_9  and  N3_10 
REMARK    3  A    between atoms: N3_10  and  C9_12 
REMARK    4  A    between atoms: C16_20  and  S1_21 
REMARK    5  A    between atoms: S1_21  and  N5_22 
ROOT
HETATM    1  C9  UNL     1      29.978   8.372  47.662  1.00  0.00     0.121 C 
HETATM    2  N4  UNL     1      30.371   8.073  48.840  1.00  0.00    -0.268 NA
HETATM    3  C10 UNL     1      31.725   7.646  49.210  1.00  0.00     0.191 C 
HETATM    4  C11 UNL     1      32.599   7.870  47.988  1.00  0.00    -0.015 A 
HETATM    5  C12 UNL     1      32.445   9.198  47.709  1.00  0.00     0.012 A 
HETATM    6  C13 UNL     1      32.973   9.523  46.496  1.00  0.00     0.030 A 
HETATM    7  C14 UNL     1      33.559   8.455  45.798  1.00  0.00     0.034 A 
HETATM    8  C15 UNL     1      33.684   7.103  46.169  1.00  0.00     0.054 A 
HETATM    9  C16 UNL     1      33.146   6.790  47.392  1.00  0.00     0.084 A 
HETATM   10  N6  UNL     1      33.967   8.852  44.444  1.00  0.00    -0.351 N 
HETATM   11  C17 UNL     1      32.663   8.223  44.188  1.00  0.00     0.207 C 
HETATM   12  N7  UNL     1      31.441   7.894  44.262  1.00  0.00    -0.256 NA
HETATM   13  C18 UNL     1      30.470   8.330  45.161  1.00  0.00     0.122 C 
HETATM   14  C19 UNL     1      29.758   8.614  46.233  1.00  0.00     0.069 C 
HETATM   15  H22 UNL     1      34.517   9.251  43.713  1.00  0.00     0.166 HD
ENDROOT
BRANCH   1  16
HETATM   16  N3  UNL     1      28.686   8.609  48.357  1.00  0.00    -0.366 N 
HETATM   17  C8  UNL     1      28.322   9.249  49.617  1.00  0.00     0.151 C 
BRANCH  16  18
HETATM   18  C7  UNL     1      27.409   8.142  47.826  1.00  0.00     0.166 C 
BRANCH  18  19
HETATM   19  C6  UNL     1      26.817   6.997  48.533  1.00  0.00     0.009 A 
HETATM   20  C2  UNL     1      25.565   7.020  49.148  1.00  0.00     0.061 A 
HETATM   21  C1  UNL     1      24.542   8.075  49.371  1.00  0.00     0.073 C 
HETATM   22  N1  UNL     1      25.309   5.807  49.659  1.00  0.00    -0.177 NA
HETATM   23  N2  UNL     1      26.329   4.998  49.413  1.00  0.00    -0.278 N 
HETATM   24  C3  UNL     1      26.314   3.598  49.872  1.00  0.00     0.179 C 
HETATM   25  C4  UNL     1      27.267   5.704  48.727  1.00  0.00     0.036 A 
HETATM   26  C5  UNL     1      28.538   5.130  48.265  1.00  0.00     0.070 C 
ENDBRANCH  18  19
ENDBRANCH  16  18
ENDBRANCH   1  16
BRANCH   9  27
HETATM   27  S1  UNL     1      33.299   5.183  48.046  1.00  0.00     0.240 S 
HETATM   28  O1  UNL     1      32.053   4.630  48.647  1.00  0.00    -0.206 OA
HETATM   29  O2  UNL     1      33.800   4.263  46.985  1.00  0.00    -0.206 OA
BRANCH  27  30
HETATM   30  N5  UNL     1      34.496   5.189  49.335  1.00  0.00    -0.225 NA
HETATM   31  H20 UNL     1      34.104   5.721  50.176  1.00  0.00     0.136 HD
HETATM   32  H21 UNL     1      34.623   4.207  49.675  1.00  0.00     0.136 HD
ENDBRANCH  27  30
ENDBRANCH   9  27
TORSDOF 5
ENDMDL
