MODEL 1
REMARK VINA RESULT:      -9.4      0.000      0.000
REMARK  4 active torsions:
REMARK  status: ('A' for Active; 'I' for Inactive)
REMARK    1  A    between atoms: C9_11  and  N3_12 
REMARK    2  A    between atoms: N3_12  and  C10_13 
REMARK    3  A    between atoms: C10_13  and  C12_15 
REMARK    4  A    between atoms: C20_24  and  N4_25 
ROOT
HETATM    1  C1  UNL     1      27.159  -1.833  52.723  1.00  0.00     0.020 C 
HETATM    2  C2  UNL     1      26.771  -0.521  52.260  1.00  0.00     0.052 C 
HETATM    3  C3  UNL     1      27.140   0.641  53.263  1.00  0.00    -0.024 C 
HETATM    4  C4  UNL     1      26.817  -0.004  54.455  1.00  0.00     0.011 C 
HETATM    5  C5  UNL     1      25.357  -0.542  54.066  1.00  0.00     0.011 C 
HETATM    6  C6  UNL     1      25.388  -0.024  52.828  1.00  0.00    -0.020 C 
HETATM    7  C7  UNL     1      24.552   1.001  52.214  1.00  0.00     0.079 A 
HETATM    8  N1  UNL     1      23.297   0.590  52.205  1.00  0.00    -0.241 NA
HETATM    9  C8  UNL     1      22.504   1.635  51.719  1.00  0.00     0.236 A 
HETATM   10  N2  UNL     1      23.017   2.821  51.347  1.00  0.00    -0.224 NA
HETATM   11  C9  UNL     1      24.277   3.222  51.358  1.00  0.00     0.138 A 
HETATM   12  C18 UNL     1      25.121   2.278  51.815  1.00  0.00     0.041 A 
HETATM   13  C19 UNL     1      26.593   2.663  51.988  1.00  0.00     0.047 C 
HETATM   14  C20 UNL     1      27.421   2.041  52.922  1.00  0.00     0.033 C 
ENDROOT
BRANCH  11  15
HETATM   15  N3  UNL     1      24.905   4.415  51.052  1.00  0.00    -0.366 N 
HETATM   16  H8  UNL     1      25.403   5.133  51.558  1.00  0.00     0.161 HD
BRANCH  15  17
HETATM   17  C10 UNL     1      24.798   4.665  49.635  1.00  0.00     0.112 C 
HETATM   18  C11 UNL     1      23.850   5.884  49.475  1.00  0.00     0.037 C 
BRANCH  17  19
HETATM   19  C12 UNL     1      26.132   5.134  49.102  1.00  0.00    -0.036 A 
HETATM   20  C13 UNL     1      26.229   6.499  48.776  1.00  0.00     0.012 A 
HETATM   21  C14 UNL     1      27.340   7.158  48.288  1.00  0.00     0.043 A 
HETATM   22  C15 UNL     1      28.464   6.389  48.106  1.00  0.00     0.116 A 
HETATM   23  F1  UNL     1      29.580   6.976  47.631  1.00  0.00    -0.206 F 
HETATM   24  C16 UNL     1      28.436   5.052  48.405  1.00  0.00     0.043 A 
HETATM   25  C17 UNL     1      27.311   4.464  48.881  1.00  0.00     0.012 A 
ENDBRANCH  17  19
ENDBRANCH  15  17
ENDBRANCH  11  15
BRANCH  14  26
HETATM   26  N4  UNL     1      28.445   2.503  53.691  1.00  0.00    -0.399 N 
HETATM   27  H18 UNL     1      29.437   2.249  53.634  1.00  0.00     0.156 HD
HETATM   28  H19 UNL     1      27.906   3.165  54.317  1.00  0.00     0.156 HD
ENDBRANCH  14  26
TORSDOF 4
ENDMDL
MODEL 2
REMARK VINA RESULT:      -9.0      4.574      6.782
REMARK  4 active torsions:
REMARK  status: ('A' for Active; 'I' for Inactive)
REMARK    1  A    between atoms: C9_11  and  N3_12 
REMARK    2  A    between atoms: N3_12  and  C10_13 
REMARK    3  A    between atoms: C10_13  and  C12_15 
REMARK    4  A    between atoms: C20_24  and  N4_25 
ROOT
HETATM    1  C1  UNL     1      29.461  -0.835  53.404  1.00  0.00     0.020 C 
HETATM    2  C2  UNL     1      28.079  -0.602  53.053  1.00  0.00     0.052 C 
HETATM    3  C3  UNL     1      27.694   0.927  52.971  1.00  0.00    -0.024 C 
HETATM    4  C4  UNL     1      28.410   1.380  54.077  1.00  0.00     0.011 C 
HETATM    5  C5  UNL     1      27.924   0.298  55.157  1.00  0.00     0.011 C 
HETATM    6  C6  UNL     1      27.135  -0.357  54.290  1.00  0.00    -0.020 C 
HETATM    7  C7  UNL     1      25.689  -0.548  54.289  1.00  0.00     0.079 A 
HETATM    8  N1  UNL     1      25.336  -1.200  55.380  1.00  0.00    -0.241 NA
HETATM    9  C8  UNL     1      23.939  -1.267  55.411  1.00  0.00     0.236 A 
HETATM   10  N2  UNL     1      23.168  -0.731  54.449  1.00  0.00    -0.224 NA
HETATM   11  C9  UNL     1      23.531  -0.081  53.357  1.00  0.00     0.138 A 
HETATM   12  C18 UNL     1      24.867   0.036  53.241  1.00  0.00     0.041 A 
HETATM   13  C19 UNL     1      25.410   0.873  52.079  1.00  0.00     0.047 C 
HETATM   14  C20 UNL     1      26.641   1.527  52.142  1.00  0.00     0.033 C 
ENDROOT
BRANCH  11  15
HETATM   15  N3  UNL     1      22.837   0.548  52.340  1.00  0.00    -0.366 N 
HETATM   16  H8  UNL     1      22.897   0.597  51.333  1.00  0.00     0.161 HD
BRANCH  15  17
HETATM   17  C10 UNL     1      21.761   1.328  52.902  1.00  0.00     0.112 C 
HETATM   18  C11 UNL     1      21.681   2.632  52.064  1.00  0.00     0.037 C 
BRANCH  17  19
HETATM   19  C12 UNL     1      20.446   0.623  52.658  1.00  0.00    -0.036 A 
HETATM   20  C13 UNL     1      19.809   0.899  51.435  1.00  0.00     0.012 A 
HETATM   21  C14 UNL     1      18.616   0.371  50.984  1.00  0.00     0.043 A 
HETATM   22  C15 UNL     1      17.993  -0.516  51.828  1.00  0.00     0.116 A 
HETATM   23  F1  UNL     1      16.824  -1.065  51.444  1.00  0.00    -0.206 F 
HETATM   24  C16 UNL     1      18.562  -0.828  53.036  1.00  0.00     0.043 A 
HETATM   25  C17 UNL     1      19.738  -0.274  53.420  1.00  0.00     0.012 A 
ENDBRANCH  17  19
ENDBRANCH  15  17
ENDBRANCH  11  15
BRANCH  14  26
HETATM   26  N4  UNL     1      27.076   2.712  51.635  1.00  0.00    -0.399 N 
HETATM   27  H18 UNL     1      27.891   2.877  51.036  1.00  0.00     0.156 HD
HETATM   28  H19 UNL     1      26.338   3.355  52.040  1.00  0.00     0.156 HD
ENDBRANCH  14  26
TORSDOF 4
ENDMDL
MODEL 3
REMARK VINA RESULT:      -8.4      3.938      5.376
REMARK  4 active torsions:
REMARK  status: ('A' for Active; 'I' for Inactive)
REMARK    1  A    between atoms: C9_11  and  N3_12 
REMARK    2  A    between atoms: N3_12  and  C10_13 
REMARK    3  A    between atoms: C10_13  and  C12_15 
REMARK    4  A    between atoms: C20_24  and  N4_25 
ROOT
HETATM    1  C1  UNL     1      27.833  -0.793  52.855  1.00  0.00     0.020 C 
HETATM    2  C2  UNL     1      26.450  -0.435  52.641  1.00  0.00     0.052 C 
HETATM    3  C3  UNL     1      26.157   1.105  52.829  1.00  0.00    -0.024 C 
HETATM    4  C4  UNL     1      26.964   1.336  53.940  1.00  0.00     0.011 C 
HETATM    5  C5  UNL     1      26.477   0.120  54.867  1.00  0.00     0.011 C 
HETATM    6  C6  UNL     1      25.599  -0.344  53.963  1.00  0.00    -0.020 C 
HETATM    7  C7  UNL     1      24.146  -0.457  54.032  1.00  0.00     0.079 A 
HETATM    8  N1  UNL     1      23.818  -1.257  55.029  1.00  0.00    -0.241 NA
HETATM    9  C8  UNL     1      22.425  -1.255  55.145  1.00  0.00     0.236 A 
HETATM   10  N2  UNL     1      21.632  -0.532  54.335  1.00  0.00    -0.224 NA
HETATM   11  C9  UNL     1      21.970   0.267  53.337  1.00  0.00     0.138 A 
HETATM   12  C18 UNL     1      23.301   0.331  53.148  1.00  0.00     0.041 A 
HETATM   13  C19 UNL     1      23.825   1.314  52.098  1.00  0.00     0.047 C 
HETATM   14  C20 UNL     1      25.096   1.885  52.179  1.00  0.00     0.033 C 
ENDROOT
BRANCH  11  15
HETATM   15  N3  UNL     1      21.257   1.086  52.482  1.00  0.00    -0.366 N 
HETATM   16  H8  UNL     1      21.060   2.074  52.407  1.00  0.00     0.161 HD
BRANCH  15  17
HETATM   17  C10 UNL     1      20.650   0.288  51.444  1.00  0.00     0.112 C 
HETATM   18  C11 UNL     1      19.139   0.199  51.787  1.00  0.00     0.037 C 
BRANCH  17  19
HETATM   19  C12 UNL     1      20.711   1.035  50.132  1.00  0.00    -0.036 A 
HETATM   20  C13 UNL     1      19.633   1.893  49.852  1.00  0.00     0.012 A 
HETATM   21  C14 UNL     1      19.471   2.684  48.732  1.00  0.00     0.043 A 
HETATM   22  C15 UNL     1      20.477   2.617  47.798  1.00  0.00     0.116 A 
HETATM   23  F1  UNL     1      20.376   3.366  46.682  1.00  0.00    -0.206 F 
HETATM   24  C16 UNL     1      21.556   1.799  48.010  1.00  0.00     0.043 A 
HETATM   25  C17 UNL     1      21.655   1.046  49.133  1.00  0.00     0.012 A 
ENDBRANCH  17  19
ENDBRANCH  15  17
ENDBRANCH  11  15
BRANCH  14  26
HETATM   26  N4  UNL     1      25.573   3.112  51.836  1.00  0.00    -0.399 N 
HETATM   27  H18 UNL     1      25.252   4.027  52.169  1.00  0.00     0.156 HD
HETATM   28  H19 UNL     1      26.333   2.819  51.159  1.00  0.00     0.156 HD
ENDBRANCH  14  26
TORSDOF 4
ENDMDL
MODEL 4
REMARK VINA RESULT:      -8.4      4.105      6.627
REMARK  4 active torsions:
REMARK  status: ('A' for Active; 'I' for Inactive)
REMARK    1  A    between atoms: C9_11  and  N3_12 
REMARK    2  A    between atoms: N3_12  and  C10_13 
REMARK    3  A    between atoms: C10_13  and  C12_15 
REMARK    4  A    between atoms: C20_24  and  N4_25 
ROOT
HETATM    1  C1  UNL     1      18.441   2.710  51.591  1.00  0.00     0.020 C 
HETATM    2  C2  UNL     1      19.814   2.308  51.794  1.00  0.00     0.052 C 
HETATM    3  C3  UNL     1      20.400   1.432  50.619  1.00  0.00    -0.024 C 
HETATM    4  C4  UNL     1      19.279   0.642  50.370  1.00  0.00     0.011 C 
HETATM    5  C5  UNL     1      18.952   0.184  51.872  1.00  0.00     0.011 C 
HETATM    6  C6  UNL     1      19.976   0.867  52.408  1.00  0.00    -0.020 C 
HETATM    7  C7  UNL     1      21.155   0.391  53.124  1.00  0.00     0.079 A 
HETATM    8  N1  UNL     1      20.772  -0.245  54.216  1.00  0.00    -0.241 NA
HETATM    9  C8  UNL     1      21.911  -0.789  54.819  1.00  0.00     0.236 A 
HETATM   10  N2  UNL     1      23.144  -0.639  54.307  1.00  0.00    -0.224 NA
HETATM   11  C9  UNL     1      23.517   0.002  53.212  1.00  0.00     0.138 A 
HETATM   12  C18 UNL     1      22.483   0.562  52.557  1.00  0.00     0.041 A 
HETATM   13  C19 UNL     1      22.771   1.232  51.211  1.00  0.00     0.047 C 
HETATM   14  C20 UNL     1      21.806   1.337  50.209  1.00  0.00     0.033 C 
ENDROOT
BRANCH  11  15
HETATM   15  N3  UNL     1      24.729   0.177  52.571  1.00  0.00    -0.366 N 
HETATM   16  H8  UNL     1      25.058   0.652  51.743  1.00  0.00     0.161 HD
BRANCH  15  17
HETATM   17  C10 UNL     1      25.765  -0.514  53.300  1.00  0.00     0.112 C 
HETATM   18  C11 UNL     1      26.382  -1.543  52.317  1.00  0.00     0.037 C 
BRANCH  17  19
HETATM   19  C12 UNL     1      26.887   0.448  53.617  1.00  0.00    -0.036 A 
HETATM   20  C13 UNL     1      27.954  -0.066  54.376  1.00  0.00     0.012 A 
HETATM   21  C14 UNL     1      29.089   0.611  54.775  1.00  0.00     0.043 A 
HETATM   22  C15 UNL     1      29.174   1.925  54.385  1.00  0.00     0.116 A 
HETATM   23  F1  UNL     1      30.259   2.639  54.745  1.00  0.00    -0.206 F 
HETATM   24  C16 UNL     1      28.168   2.487  53.643  1.00  0.00     0.043 A 
HETATM   25  C17 UNL     1      27.078   1.767  53.283  1.00  0.00     0.012 A 
ENDBRANCH  17  19
ENDBRANCH  15  17
ENDBRANCH  11  15
BRANCH  14  26
HETATM   26  N4  UNL     1      21.886   1.287  48.851  1.00  0.00    -0.399 N 
HETATM   27  H18 UNL     1      21.730   0.477  48.242  1.00  0.00     0.156 HD
HETATM   28  H19 UNL     1      22.144   2.296  48.657  1.00  0.00     0.156 HD
ENDBRANCH  14  26
TORSDOF 4
ENDMDL
MODEL 5
REMARK VINA RESULT:      -8.1      1.751      3.588
REMARK  4 active torsions:
REMARK  status: ('A' for Active; 'I' for Inactive)
REMARK    1  A    between atoms: C9_11  and  N3_12 
REMARK    2  A    between atoms: N3_12  and  C10_13 
REMARK    3  A    between atoms: C10_13  and  C12_15 
REMARK    4  A    between atoms: C20_24  and  N4_25 
ROOT
HETATM    1  C1  UNL     1      21.540  -0.526  54.955  1.00  0.00     0.020 C 
HETATM    2  C2  UNL     1      22.308   0.465  54.238  1.00  0.00     0.052 C 
HETATM    3  C3  UNL     1      21.725   0.810  52.812  1.00  0.00    -0.024 C 
HETATM    4  C4  UNL     1      21.363  -0.477  52.419  1.00  0.00     0.011 C 
HETATM    5  C5  UNL     1      22.728  -1.244  52.766  1.00  0.00     0.011 C 
HETATM    6  C6  UNL     1      23.346  -0.142  53.220  1.00  0.00    -0.020 C 
HETATM    7  C7  UNL     1      24.528   0.552  52.719  1.00  0.00     0.079 A 
HETATM    8  N1  UNL     1      25.563  -0.266  52.764  1.00  0.00    -0.241 NA
HETATM    9  C8  UNL     1      26.651   0.383  52.171  1.00  0.00     0.236 A 
HETATM   10  N2  UNL     1      26.567   1.627  51.670  1.00  0.00    -0.224 NA
HETATM   11  C9  UNL     1      25.525   2.439  51.631  1.00  0.00     0.138 A 
HETATM   12  C18 UNL     1      24.421   1.898  52.180  1.00  0.00     0.041 A 
HETATM   13  C19 UNL     1      23.117   2.695  52.090  1.00  0.00     0.047 C 
HETATM   14  C20 UNL     1      21.865   2.079  52.087  1.00  0.00     0.033 C 
ENDROOT
BRANCH  11  15
HETATM   15  N3  UNL     1      25.311   3.699  51.104  1.00  0.00    -0.366 N 
HETATM   16  H8  UNL     1      25.027   4.603  51.455  1.00  0.00     0.161 HD
BRANCH  15  17
HETATM   17  C10 UNL     1      25.564   3.676  49.683  1.00  0.00     0.112 C 
HETATM   18  C11 UNL     1      24.185   3.836  48.989  1.00  0.00     0.037 C 
BRANCH  17  19
HETATM   19  C12 UNL     1      26.345   4.909  49.290  1.00  0.00    -0.036 A 
HETATM   20  C13 UNL     1      27.597   4.689  48.688  1.00  0.00     0.012 A 
HETATM   21  C14 UNL     1      28.480   5.648  48.235  1.00  0.00     0.043 A 
HETATM   22  C15 UNL     1      28.084   6.954  48.395  1.00  0.00     0.116 A 
HETATM   23  F1  UNL     1      28.904   7.936  47.973  1.00  0.00    -0.206 F 
HETATM   24  C16 UNL     1      26.875   7.237  48.974  1.00  0.00     0.043 A 
HETATM   25  C17 UNL     1      26.052   6.247  49.399  1.00  0.00     0.012 A 
ENDBRANCH  17  19
ENDBRANCH  15  17
ENDBRANCH  11  15
BRANCH  14  26
HETATM   26  N4  UNL     1      20.698   2.377  51.454  1.00  0.00    -0.399 N 
HETATM   27  H18 UNL     1      19.895   1.760  51.293  1.00  0.00     0.156 HD
HETATM   28  H19 UNL     1      20.890   3.389  51.206  1.00  0.00     0.156 HD
ENDBRANCH  14  26
TORSDOF 4
ENDMDL
MODEL 6
REMARK VINA RESULT:      -8.0      3.467      6.396
REMARK  4 active torsions:
REMARK  status: ('A' for Active; 'I' for Inactive)
REMARK    1  A    between atoms: C9_11  and  N3_12 
REMARK    2  A    between atoms: N3_12  and  C10_13 
REMARK    3  A    between atoms: C10_13  and  C12_15 
REMARK    4  A    between atoms: C20_24  and  N4_25 
ROOT
HETATM    1  C1  UNL     1      18.217   2.344  51.597  1.00  0.00     0.020 C 
HETATM    2  C2  UNL     1      19.625   2.381  51.916  1.00  0.00     0.052 C 
HETATM    3  C3  UNL     1      20.563   2.432  50.647  1.00  0.00    -0.024 C 
HETATM    4  C4  UNL     1      19.866   1.536  49.839  1.00  0.00     0.011 C 
HETATM    5  C5  UNL     1      19.689   0.333  50.885  1.00  0.00     0.011 C 
HETATM    6  C6  UNL     1      20.329   0.972  51.877  1.00  0.00    -0.020 C 
HETATM    7  C7  UNL     1      21.568   0.637  52.570  1.00  0.00     0.079 A 
HETATM    8  N1  UNL     1      21.429  -0.531  53.169  1.00  0.00    -0.241 NA
HETATM    9  C8  UNL     1      22.664  -0.881  53.724  1.00  0.00     0.236 A 
HETATM   10  N2  UNL     1      23.753  -0.100  53.619  1.00  0.00    -0.224 NA
HETATM   11  C9  UNL     1      23.882   1.071  53.018  1.00  0.00     0.138 A 
HETATM   12  C18 UNL     1      22.738   1.492  52.448  1.00  0.00     0.041 A 
HETATM   13  C19 UNL     1      22.787   2.779  51.619  1.00  0.00     0.047 C 
HETATM   14  C20 UNL     1      21.904   3.023  50.567  1.00  0.00     0.033 C 
ENDROOT
BRANCH  11  15
HETATM   15  N3  UNL     1      24.946   1.927  52.806  1.00  0.00    -0.366 N 
HETATM   16  H8  UNL     1      25.245   2.826  53.156  1.00  0.00     0.161 HD
BRANCH  15  17
HETATM   17  C10 UNL     1      25.833   1.357  51.822  1.00  0.00     0.112 C 
HETATM   18  C11 UNL     1      26.342   2.538  50.953  1.00  0.00     0.037 C 
BRANCH  17  19
HETATM   19  C12 UNL     1      27.067   0.816  52.508  1.00  0.00    -0.036 A 
HETATM   20  C13 UNL     1      27.207  -0.583  52.528  1.00  0.00     0.012 A 
HETATM   21  C14 UNL     1      28.246  -1.305  53.079  1.00  0.00     0.043 A 
HETATM   22  C15 UNL     1      29.244  -0.568  53.669  1.00  0.00     0.116 A 
HETATM   23  F1  UNL     1      30.286  -1.216  54.226  1.00  0.00    -0.206 F 
HETATM   24  C16 UNL     1      29.169   0.800  53.684  1.00  0.00     0.043 A 
HETATM   25  C17 UNL     1      28.119   1.450  53.123  1.00  0.00     0.012 A 
ENDBRANCH  17  19
ENDBRANCH  15  17
ENDBRANCH  11  15
BRANCH  14  26
HETATM   26  N4  UNL     1      22.054   3.662  49.374  1.00  0.00    -0.399 N 
HETATM   27  H18 UNL     1      21.932   4.660  49.177  1.00  0.00     0.156 HD
HETATM   28  H19 UNL     1      22.319   2.835  48.768  1.00  0.00     0.156 HD
ENDBRANCH  14  26
TORSDOF 4
ENDMDL
MODEL 7
REMARK VINA RESULT:      -8.0      2.878      6.544
REMARK  4 active torsions:
REMARK  status: ('A' for Active; 'I' for Inactive)
REMARK    1  A    between atoms: C9_11  and  N3_12 
REMARK    2  A    between atoms: N3_12  and  C10_13 
REMARK    3  A    between atoms: C10_13  and  C12_15 
REMARK    4  A    between atoms: C20_24  and  N4_25 
ROOT
HETATM    1  C1  UNL     1      23.947   7.731  50.819  1.00  0.00     0.020 C 
HETATM    2  C2  UNL     1      24.110   6.334  51.149  1.00  0.00     0.052 C 
HETATM    3  C3  UNL     1      24.889   5.510  50.051  1.00  0.00    -0.024 C 
HETATM    4  C4  UNL     1      24.321   6.086  48.917  1.00  0.00     0.011 C 
HETATM    5  C5  UNL     1      22.772   5.972  49.321  1.00  0.00     0.011 C 
HETATM    6  C6  UNL     1      23.024   5.392  50.506  1.00  0.00    -0.020 C 
HETATM    7  C7  UNL     1      22.665   4.069  51.004  1.00  0.00     0.079 A 
HETATM    8  N1  UNL     1      21.351   3.953  51.023  1.00  0.00    -0.241 NA
HETATM    9  C8  UNL     1      21.038   2.640  51.391  1.00  0.00     0.236 A 
HETATM   10  N2  UNL     1      21.980   1.721  51.662  1.00  0.00    -0.224 NA
HETATM   11  C9  UNL     1      23.296   1.846  51.642  1.00  0.00     0.138 A 
HETATM   12  C18 UNL     1      23.695   3.084  51.294  1.00  0.00     0.041 A 
HETATM   13  C19 UNL     1      25.197   3.324  51.119  1.00  0.00     0.047 C 
HETATM   14  C20 UNL     1      25.701   4.306  50.265  1.00  0.00     0.033 C 
ENDROOT
BRANCH  11  15
HETATM   15  N3  UNL     1      24.345   0.972  51.849  1.00  0.00    -0.366 N 
HETATM   16  H8  UNL     1      25.046   0.519  51.280  1.00  0.00     0.161 HD
BRANCH  15  17
HETATM   17  C10 UNL     1      24.426   0.641  53.252  1.00  0.00     0.112 C 
HETATM   18  C11 UNL     1      23.616  -0.670  53.441  1.00  0.00     0.037 C 
BRANCH  17  19
HETATM   19  C12 UNL     1      25.850   0.276  53.603  1.00  0.00    -0.036 A 
HETATM   20  C13 UNL     1      26.502  -0.610  52.726  1.00  0.00     0.012 A 
HETATM   21  C14 UNL     1      27.797  -1.075  52.829  1.00  0.00     0.043 A 
HETATM   22  C15 UNL     1      28.517  -0.619  53.907  1.00  0.00     0.116 A 
HETATM   23  F1  UNL     1      29.788  -1.038  54.063  1.00  0.00    -0.206 F 
HETATM   24  C16 UNL     1      27.940   0.246  54.800  1.00  0.00     0.043 A 
HETATM   25  C17 UNL     1      26.661   0.667  54.642  1.00  0.00     0.012 A 
ENDBRANCH  17  19
ENDBRANCH  15  17
ENDBRANCH  11  15
BRANCH  14  26
HETATM   26  N4  UNL     1      26.812   4.355  49.480  1.00  0.00    -0.399 N 
HETATM   27  H18 UNL     1      26.883   4.691  48.514  1.00  0.00     0.156 HD
HETATM   28  H19 UNL     1      27.521   3.960  50.159  1.00  0.00     0.156 HD
ENDBRANCH  14  26
TORSDOF 4
ENDMDL
MODEL 8
REMARK VINA RESULT:      -8.0      3.037      6.817
REMARK  4 active torsions:
REMARK  status: ('A' for Active; 'I' for Inactive)
REMARK    1  A    between atoms: C9_11  and  N3_12 
REMARK    2  A    between atoms: N3_12  and  C10_13 
REMARK    3  A    between atoms: C10_13  and  C12_15 
REMARK    4  A    between atoms: C20_24  and  N4_25 
ROOT
HETATM    1  C1  UNL     1      20.719   4.206  48.272  1.00  0.00     0.020 C 
HETATM    2  C2  UNL     1      21.830   3.531  48.901  1.00  0.00     0.052 C 
HETATM    3  C3  UNL     1      21.756   3.518  50.478  1.00  0.00    -0.024 C 
HETATM    4  C4  UNL     1      21.290   4.816  50.674  1.00  0.00     0.011 C 
HETATM    5  C5  UNL     1      22.331   5.605  49.743  1.00  0.00     0.011 C 
HETATM    6  C6  UNL     1      22.986   4.494  49.367  1.00  0.00    -0.020 C 
HETATM    7  C7  UNL     1      24.369   4.091  49.597  1.00  0.00     0.079 A 
HETATM    8  N1  UNL     1      25.177   4.973  49.041  1.00  0.00    -0.241 NA
HETATM    9  C8  UNL     1      26.490   4.627  49.375  1.00  0.00     0.236 A 
HETATM   10  N2  UNL     1      26.786   3.560  50.138  1.00  0.00    -0.224 NA
HETATM   11  C9  UNL     1      25.968   2.681  50.690  1.00  0.00     0.138 A 
HETATM   12  C18 UNL     1      24.673   2.934  50.424  1.00  0.00     0.041 A 
HETATM   13  C19 UNL     1      23.621   2.055  51.105  1.00  0.00     0.047 C 
HETATM   14  C20 UNL     1      22.331   2.511  51.378  1.00  0.00     0.033 C 
ENDROOT
BRANCH  11  15
HETATM   15  N3  UNL     1      26.152   1.592  51.521  1.00  0.00    -0.366 N 
HETATM   16  H8  UNL     1      25.812   0.642  51.572  1.00  0.00     0.161 HD
BRANCH  15  17
HETATM   17  C10 UNL     1      27.070   1.942  52.578  1.00  0.00     0.112 C 
HETATM   18  C11 UNL     1      26.204   2.222  53.836  1.00  0.00     0.037 C 
BRANCH  17  19
HETATM   19  C12 UNL     1      27.907   0.737  52.940  1.00  0.00    -0.036 A 
HETATM   20  C13 UNL     1      27.319  -0.521  52.717  1.00  0.00     0.012 A 
HETATM   21  C14 UNL     1      27.888  -1.757  52.954  1.00  0.00     0.043 A 
HETATM   22  C15 UNL     1      29.164  -1.743  53.464  1.00  0.00     0.116 A 
HETATM   23  F1  UNL     1      29.773  -2.918  53.718  1.00  0.00    -0.206 F 
HETATM   24  C16 UNL     1      29.794  -0.550  53.705  1.00  0.00     0.043 A 
HETATM   25  C17 UNL     1      29.179   0.631  53.449  1.00  0.00     0.012 A 
ENDBRANCH  17  19
ENDBRANCH  15  17
ENDBRANCH  11  15
BRANCH  14  26
HETATM   26  N4  UNL     1      21.471   2.269  52.405  1.00  0.00    -0.399 N 
HETATM   27  H18 UNL     1      20.447   2.308  52.388  1.00  0.00     0.156 HD
HETATM   28  H19 UNL     1      22.171   2.042  53.166  1.00  0.00     0.156 HD
ENDBRANCH  14  26
TORSDOF 4
ENDMDL
MODEL 9
REMARK VINA RESULT:      -7.9      3.654      6.615
REMARK  4 active torsions:
REMARK  status: ('A' for Active; 'I' for Inactive)
REMARK    1  A    between atoms: C9_11  and  N3_12 
REMARK    2  A    between atoms: N3_12  and  C10_13 
REMARK    3  A    between atoms: C10_13  and  C12_15 
REMARK    4  A    between atoms: C20_24  and  N4_25 
ROOT
HETATM    1  C1  UNL     1      21.811   5.779  51.543  1.00  0.00     0.020 C 
HETATM    2  C2  UNL     1      22.395   4.517  51.935  1.00  0.00     0.052 C 
HETATM    3  C3  UNL     1      22.992   3.692  50.729  1.00  0.00    -0.024 C 
HETATM    4  C4  UNL     1      21.996   3.947  49.789  1.00  0.00     0.011 C 
HETATM    5  C5  UNL     1      20.709   3.597  50.681  1.00  0.00     0.011 C 
HETATM    6  C6  UNL     1      21.428   3.285  51.771  1.00  0.00    -0.020 C 
HETATM    7  C7  UNL     1      21.560   2.018  52.483  1.00  0.00     0.079 A 
HETATM    8  N1  UNL     1      20.376   1.649  52.936  1.00  0.00    -0.241 NA
HETATM    9  C8  UNL     1      20.510   0.380  53.510  1.00  0.00     0.236 A 
HETATM   10  N2  UNL     1      21.683  -0.276  53.550  1.00  0.00    -0.224 NA
HETATM   11  C9  UNL     1      22.864   0.103  53.094  1.00  0.00     0.138 A 
HETATM   12  C18 UNL     1      22.835   1.320  52.518  1.00  0.00     0.041 A 
HETATM   13  C19 UNL     1      24.116   1.820  51.845  1.00  0.00     0.047 C 
HETATM   14  C20 UNL     1      24.096   2.726  50.784  1.00  0.00     0.033 C 
ENDROOT
BRANCH  11  15
HETATM   15  N3  UNL     1      24.107  -0.499  53.035  1.00  0.00    -0.366 N 
HETATM   16  H8  UNL     1      24.601  -1.100  52.391  1.00  0.00     0.161 HD
BRANCH  15  17
HETATM   17  C10 UNL     1      24.862  -0.161  54.217  1.00  0.00     0.112 C 
HETATM   18  C11 UNL     1      24.464  -1.195  55.303  1.00  0.00     0.037 C 
BRANCH  17  19
HETATM   19  C12 UNL     1      26.332  -0.405  53.964  1.00  0.00    -0.036 A 
HETATM   20  C13 UNL     1      27.232   0.264  54.813  1.00  0.00     0.012 A 
HETATM   21  C14 UNL     1      28.610   0.189  54.787  1.00  0.00     0.043 A 
HETATM   22  C15 UNL     1      29.149  -0.627  53.822  1.00  0.00     0.116 A 
HETATM   23  F1  UNL     1      30.490  -0.741  53.745  1.00  0.00    -0.206 F 
HETATM   24  C16 UNL     1      28.328  -1.308  52.962  1.00  0.00     0.043 A 
HETATM   25  C17 UNL     1      26.980  -1.191  53.041  1.00  0.00     0.012 A 
ENDBRANCH  17  19
ENDBRANCH  15  17
ENDBRANCH  11  15
BRANCH  14  26
HETATM   26  N4  UNL     1      24.882   2.864  49.682  1.00  0.00    -0.399 N 
HETATM   27  H18 UNL     1      25.906   2.903  49.641  1.00  0.00     0.156 HD
HETATM   28  H19 UNL     1      24.130   2.911  48.938  1.00  0.00     0.156 HD
ENDBRANCH  14  26
TORSDOF 4
ENDMDL
