MODEL 1
REMARK VINA RESULT:      -8.1      0.000      0.000
REMARK  5 active torsions:
REMARK  status: ('A' for Active; 'I' for Inactive)
REMARK    1  A    between atoms: C10_10  and  C11_11 
REMARK    2  A    between atoms: C11_11  and  C12_12 
REMARK    3  A    between atoms: C12_12  and  C13_13 
REMARK    4  A    between atoms: C13_13  and  N1_14 
REMARK    5  A    between atoms: C13_13  and  C14_15 
ROOT
HETATM    1  C1  UNL     1      28.622   2.111  53.820  1.00  0.00     0.013 C 
HETATM    2  C2  UNL     1      27.584   1.778  53.355  1.00  0.00    -0.101 C 
HETATM    3  C3  UNL     1      26.324   1.357  52.810  1.00  0.00     0.062 A 
HETATM    4  C4  UNL     1      25.731   1.495  51.662  1.00  0.00    -0.016 A 
HETATM    5  C5  UNL     1      24.818   0.735  52.587  1.00  0.00     0.019 A 
HETATM    6  C6  UNL     1      25.716  -0.501  53.138  1.00  0.00     0.048 A 
HETATM    7  C7  UNL     1      25.400   0.035  54.558  1.00  0.00     0.087 A 
HETATM    8  C8  UNL     1      25.042   0.574  53.314  1.00  0.00     0.033 A 
HETATM    9  C9  UNL     1      23.824  -0.014  53.377  1.00  0.00     0.022 A 
HETATM   10  C10 UNL     1      22.685  -0.062  52.731  1.00  0.00    -0.067 C 
HETATM   11  C16 UNL     1      22.009  -0.827  53.802  1.00  0.00     0.022 C 
HETATM   12  C17 UNL     1      22.483  -1.242  54.962  1.00  0.00     0.103 C 
HETATM   13  N2  UNL     1      23.632  -1.236  55.752  1.00  0.00    -0.315 N 
HETATM   14  N3  UNL     1      24.916  -1.622  56.094  1.00  0.00    -0.153 NA
HETATM   15  N4  UNL     1      25.914  -0.795  55.543  1.00  0.00    -0.325 N 
HETATM   16  H18 UNL     1      23.765  -0.651  56.634  1.00  0.00     0.181 HD
HETATM   17  H19 UNL     1      25.092  -2.616  55.847  1.00  0.00     0.172 HD
HETATM   18  H20 UNL     1      26.933  -0.702  55.729  1.00  0.00     0.176 HD
ENDROOT
BRANCH  10  19
HETATM   19  C11 UNL     1      21.746   0.225  51.573  1.00  0.00     0.037 C 
BRANCH  19  20
HETATM   20  C12 UNL     1      22.024   1.667  51.208  1.00  0.00     0.039 C 
BRANCH  20  21
HETATM   21  C13 UNL     1      21.516   2.617  52.272  1.00  0.00     0.217 C 
BRANCH  21  22
HETATM   22  N1  UNL     1      20.097   2.637  52.411  1.00  0.00     0.082 N 
HETATM   23  H9  UNL     1      19.739   3.559  52.719  1.00  0.00     0.313 HD
HETATM   24  H10 UNL     1      19.700   1.826  52.933  1.00  0.00     0.313 HD
ENDBRANCH  21  22
BRANCH  21  25
HETATM   25  C14 UNL     1      22.108   3.975  51.959  1.00  0.00     0.031 C 
HETATM   26  C15 UNL     1      23.418   4.131  52.699  1.00  0.00     0.007 C 
ENDBRANCH  21  25
ENDBRANCH  20  21
ENDBRANCH  19  20
ENDBRANCH  10  19
TORSDOF 5
ENDMDL
MODEL 2
REMARK VINA RESULT:      -8.0      2.711      4.159
REMARK  5 active torsions:
REMARK  status: ('A' for Active; 'I' for Inactive)
REMARK    1  A    between atoms: C10_10  and  C11_11 
REMARK    2  A    between atoms: C11_11  and  C12_12 
REMARK    3  A    between atoms: C12_12  and  C13_13 
REMARK    4  A    between atoms: C13_13  and  N1_14 
REMARK    5  A    between atoms: C13_13  and  C14_15 
ROOT
HETATM    1  C1  UNL     1      29.109  -0.312  53.514  1.00  0.00     0.013 C 
HETATM    2  C2  UNL     1      27.940  -0.199  53.353  1.00  0.00    -0.101 C 
HETATM    3  C3  UNL     1      26.528  -0.039  53.147  1.00  0.00     0.062 A 
HETATM    4  C4  UNL     1      25.462  -0.607  53.626  1.00  0.00    -0.016 A 
HETATM    5  C5  UNL     1      25.043   0.423  52.613  1.00  0.00     0.019 A 
HETATM    6  C6  UNL     1      25.775   1.795  53.082  1.00  0.00     0.048 A 
HETATM    7  C7  UNL     1      26.410   1.820  51.668  1.00  0.00     0.087 A 
HETATM    8  C8  UNL     1      25.577   0.848  52.241  1.00  0.00     0.033 A 
HETATM    9  C9  UNL     1      24.488   1.391  51.649  1.00  0.00     0.022 A 
HETATM   10  C10 UNL     1      23.207   1.171  51.482  1.00  0.00    -0.067 C 
HETATM   11  C16 UNL     1      23.056   2.265  50.498  1.00  0.00     0.022 C 
HETATM   12  C17 UNL     1      23.967   3.094  50.021  1.00  0.00     0.103 C 
HETATM   13  N2  UNL     1      25.323   3.406  50.097  1.00  0.00    -0.315 N 
HETATM   14  N3  UNL     1      26.456   3.920  50.704  1.00  0.00    -0.153 NA
HETATM   15  N4  UNL     1      27.162   2.968  51.466  1.00  0.00    -0.325 N 
HETATM   16  H18 UNL     1      26.043   3.196  49.338  1.00  0.00     0.181 HD
HETATM   17  H19 UNL     1      26.232   4.754  51.283  1.00  0.00     0.172 HD
HETATM   18  H20 UNL     1      28.108   2.974  51.897  1.00  0.00     0.176 HD
ENDROOT
BRANCH  10  19
HETATM   19  C11 UNL     1      21.891   0.452  51.723  1.00  0.00     0.037 C 
BRANCH  19  20
HETATM   20  C12 UNL     1      21.364   1.047  53.010  1.00  0.00     0.039 C 
BRANCH  20  21
HETATM   21  C13 UNL     1      20.732  -0.008  53.893  1.00  0.00     0.217 C 
BRANCH  21  22
HETATM   22  N1  UNL     1      20.563   0.391  55.252  1.00  0.00     0.082 N 
HETATM   23  H9  UNL     1      20.092   1.310  55.342  1.00  0.00     0.313 HD
HETATM   24  H10 UNL     1      21.415   0.285  55.844  1.00  0.00     0.313 HD
ENDBRANCH  21  22
BRANCH  21  25
HETATM   25  C14 UNL     1      21.564  -1.262  53.734  1.00  0.00     0.031 C 
HETATM   26  C15 UNL     1      22.370  -1.489  54.994  1.00  0.00     0.007 C 
ENDBRANCH  21  25
ENDBRANCH  20  21
ENDBRANCH  19  20
ENDBRANCH  10  19
TORSDOF 5
ENDMDL
MODEL 3
REMARK VINA RESULT:      -8.0      2.050      5.525
REMARK  5 active torsions:
REMARK  status: ('A' for Active; 'I' for Inactive)
REMARK    1  A    between atoms: C10_10  and  C11_11 
REMARK    2  A    between atoms: C11_11  and  C12_12 
REMARK    3  A    between atoms: C12_12  and  C13_13 
REMARK    4  A    between atoms: C13_13  and  N1_14 
REMARK    5  A    between atoms: C13_13  and  C14_15 
ROOT
HETATM    1  C1  UNL     1      20.162   0.990  49.732  1.00  0.00     0.013 C 
HETATM    2  C2  UNL     1      21.170   1.091  50.347  1.00  0.00    -0.101 C 
HETATM    3  C3  UNL     1      22.380   1.202  51.113  1.00  0.00     0.062 A 
HETATM    4  C4  UNL     1      23.463   1.913  51.015  1.00  0.00    -0.016 A 
HETATM    5  C5  UNL     1      23.589   1.005  52.209  1.00  0.00     0.019 A 
HETATM    6  C6  UNL     1      22.253   1.282  53.090  1.00  0.00     0.048 A 
HETATM    7  C7  UNL     1      21.977  -0.238  52.963  1.00  0.00     0.087 A 
HETATM    8  C8  UNL     1      23.012   0.519  52.395  1.00  0.00     0.033 A 
HETATM    9  C9  UNL     1      23.852   0.177  53.400  1.00  0.00     0.022 A 
HETATM   10  C10 UNL     1      25.105   0.302  53.763  1.00  0.00    -0.067 C 
HETATM   11  C16 UNL     1      24.962  -0.638  54.897  1.00  0.00     0.022 C 
HETATM   12  C17 UNL     1      23.901  -1.316  55.294  1.00  0.00     0.103 C 
HETATM   13  N2  UNL     1      22.561  -1.548  54.989  1.00  0.00    -0.315 N 
HETATM   14  N3  UNL     1      21.220  -1.214  54.915  1.00  0.00    -0.153 NA
HETATM   15  N4  UNL     1      20.859  -0.616  53.692  1.00  0.00    -0.325 N 
HETATM   16  H18 UNL     1      22.178  -2.445  54.557  1.00  0.00     0.181 HD
HETATM   17  H19 UNL     1      20.934  -0.610  55.712  1.00  0.00     0.172 HD
HETATM   18  H20 UNL     1      19.939  -0.406  53.255  1.00  0.00     0.176 HD
ENDROOT
BRANCH  10  19
HETATM   19  C11 UNL     1      26.522   0.838  53.658  1.00  0.00     0.037 C 
BRANCH  19  20
HETATM   20  C12 UNL     1      27.399  -0.391  53.741  1.00  0.00     0.039 C 
BRANCH  20  21
HETATM   21  C13 UNL     1      28.680  -0.111  54.499  1.00  0.00     0.217 C 
BRANCH  21  22
HETATM   22  N1  UNL     1      28.890   1.267  54.802  1.00  0.00     0.082 N 
HETATM   23  H9  UNL     1      28.378   1.571  55.650  1.00  0.00     0.313 HD
HETATM   24  H10 UNL     1      28.794   1.911  53.988  1.00  0.00     0.313 HD
ENDBRANCH  21  22
BRANCH  21  25
HETATM   25  C14 UNL     1      29.804  -0.727  53.694  1.00  0.00     0.031 C 
HETATM   26  C15 UNL     1      29.402  -2.119  53.259  1.00  0.00     0.007 C 
ENDBRANCH  21  25
ENDBRANCH  20  21
ENDBRANCH  19  20
ENDBRANCH  10  19
TORSDOF 5
ENDMDL
MODEL 4
REMARK VINA RESULT:      -7.8      1.867      5.110
REMARK  5 active torsions:
REMARK  status: ('A' for Active; 'I' for Inactive)
REMARK    1  A    between atoms: C10_10  and  C11_11 
REMARK    2  A    between atoms: C11_11  and  C12_12 
REMARK    3  A    between atoms: C12_12  and  C13_13 
REMARK    4  A    between atoms: C13_13  and  N1_14 
REMARK    5  A    between atoms: C13_13  and  C14_15 
ROOT
HETATM    1  C1  UNL     1      20.803   1.851  48.868  1.00  0.00     0.013 C 
HETATM    2  C2  UNL     1      21.552   1.625  49.758  1.00  0.00    -0.101 C 
HETATM    3  C3  UNL     1      22.440   1.343  50.851  1.00  0.00     0.062 A 
HETATM    4  C4  UNL     1      23.653   1.692  51.159  1.00  0.00    -0.016 A 
HETATM    5  C5  UNL     1      23.138   0.760  52.221  1.00  0.00     0.019 A 
HETATM    6  C6  UNL     1      21.728   1.408  52.700  1.00  0.00     0.048 A 
HETATM    7  C7  UNL     1      21.089   0.048  52.319  1.00  0.00     0.087 A 
HETATM    8  C8  UNL     1      22.419   0.467  52.172  1.00  0.00     0.033 A 
HETATM    9  C9  UNL     1      22.769  -0.139  53.330  1.00  0.00     0.022 A 
HETATM   10  C10 UNL     1      23.825  -0.411  54.055  1.00  0.00    -0.067 C 
HETATM   11  C16 UNL     1      23.076  -1.291  54.978  1.00  0.00     0.022 C 
HETATM   12  C17 UNL     1      21.798  -1.624  54.965  1.00  0.00     0.103 C 
HETATM   13  N2  UNL     1      20.613  -1.429  54.257  1.00  0.00    -0.315 N 
HETATM   14  N3  UNL     1      19.514  -0.701  53.835  1.00  0.00    -0.153 NA
HETATM   15  N4  UNL     1      19.740   0.010  52.640  1.00  0.00    -0.325 N 
HETATM   16  H18 UNL     1      20.149  -2.155  53.629  1.00  0.00     0.181 HD
HETATM   17  H19 UNL     1      19.175  -0.059  54.580  1.00  0.00     0.172 HD
HETATM   18  H20 UNL     1      19.101   0.501  51.982  1.00  0.00     0.176 HD
ENDROOT
BRANCH  10  19
HETATM   19  C11 UNL     1      25.294  -0.329  54.433  1.00  0.00     0.037 C 
BRANCH  19  20
HETATM   20  C12 UNL     1      26.021  -0.967  53.269  1.00  0.00     0.039 C 
BRANCH  20  21
HETATM   21  C13 UNL     1      27.406  -0.382  53.089  1.00  0.00     0.217 C 
BRANCH  21  22
HETATM   22  N1  UNL     1      28.234  -0.472  54.247  1.00  0.00     0.082 N 
HETATM   23  H9  UNL     1      28.971   0.256  54.267  1.00  0.00     0.313 HD
HETATM   24  H10 UNL     1      28.574  -1.434  54.464  1.00  0.00     0.313 HD
ENDBRANCH  21  22
BRANCH  21  25
HETATM   25  C14 UNL     1      27.217   1.036  52.595  1.00  0.00     0.031 C 
HETATM   26  C15 UNL     1      28.075   1.971  53.418  1.00  0.00     0.007 C 
ENDBRANCH  21  25
ENDBRANCH  20  21
ENDBRANCH  19  20
ENDBRANCH  10  19
TORSDOF 5
ENDMDL
MODEL 5
REMARK VINA RESULT:      -7.7      2.151      6.179
REMARK  5 active torsions:
REMARK  status: ('A' for Active; 'I' for Inactive)
REMARK    1  A    between atoms: C10_10  and  C11_11 
REMARK    2  A    between atoms: C11_11  and  C12_12 
REMARK    3  A    between atoms: C12_12  and  C13_13 
REMARK    4  A    between atoms: C13_13  and  N1_14 
REMARK    5  A    between atoms: C13_13  and  C14_15 
ROOT
HETATM    1  C1  UNL     1      18.483  -0.952  53.429  1.00  0.00     0.013 C 
HETATM    2  C2  UNL     1      19.667  -0.900  53.446  1.00  0.00    -0.101 C 
HETATM    3  C3  UNL     1      21.100  -0.814  53.453  1.00  0.00     0.062 A 
HETATM    4  C4  UNL     1      22.067  -1.654  53.670  1.00  0.00    -0.016 A 
HETATM    5  C5  UNL     1      22.661  -0.299  53.396  1.00  0.00     0.019 A 
HETATM    6  C6  UNL     1      22.004   0.171  51.988  1.00  0.00     0.048 A 
HETATM    7  C7  UNL     1      21.506   1.423  52.753  1.00  0.00     0.087 A 
HETATM    8  C8  UNL     1      22.200   0.309  53.246  1.00  0.00     0.033 A 
HETATM    9  C9  UNL     1      23.380   0.964  53.149  1.00  0.00     0.022 A 
HETATM   10  C10 UNL     1      24.648   0.822  53.446  1.00  0.00    -0.067 C 
HETATM   11  C16 UNL     1      24.978   2.222  53.100  1.00  0.00     0.022 C 
HETATM   12  C17 UNL     1      24.187   3.187  52.670  1.00  0.00     0.103 C 
HETATM   13  N2  UNL     1      22.859   3.465  52.347  1.00  0.00    -0.315 N 
HETATM   14  N3  UNL     1      21.722   3.392  51.562  1.00  0.00    -0.153 NA
HETATM   15  N4  UNL     1      20.873   2.321  51.906  1.00  0.00    -0.325 N 
HETATM   16  H18 UNL     1      22.197   4.058  52.936  1.00  0.00     0.181 HD
HETATM   17  H19 UNL     1      21.960   3.354  50.551  1.00  0.00     0.172 HD
HETATM   18  H20 UNL     1      19.894   2.086  51.644  1.00  0.00     0.176 HD
ENDROOT
BRANCH  10  19
HETATM   19  C11 UNL     1      25.873   0.062  53.926  1.00  0.00     0.037 C 
BRANCH  19  20
HETATM   20  C12 UNL     1      26.106  -0.989  52.863  1.00  0.00     0.039 C 
BRANCH  20  21
HETATM   21  C13 UNL     1      27.563  -1.399  52.797  1.00  0.00     0.217 C 
BRANCH  21  22
HETATM   22  N1  UNL     1      27.792  -2.785  53.045  1.00  0.00     0.082 N 
HETATM   23  H9  UNL     1      28.374  -3.230  52.312  1.00  0.00     0.313 HD
HETATM   24  H10 UNL     1      26.940  -3.326  53.304  1.00  0.00     0.313 HD
ENDBRANCH  21  22
BRANCH  21  25
HETATM   25  C14 UNL     1      28.313  -0.487  53.743  1.00  0.00     0.031 C 
HETATM   26  C15 UNL     1      29.798  -0.754  53.622  1.00  0.00     0.007 C 
ENDBRANCH  21  25
ENDBRANCH  20  21
ENDBRANCH  19  20
ENDBRANCH  10  19
TORSDOF 5
ENDMDL
MODEL 6
REMARK VINA RESULT:      -7.6      2.004      5.004
REMARK  5 active torsions:
REMARK  status: ('A' for Active; 'I' for Inactive)
REMARK    1  A    between atoms: C10_10  and  C11_11 
REMARK    2  A    between atoms: C11_11  and  C12_12 
REMARK    3  A    between atoms: C12_12  and  C13_13 
REMARK    4  A    between atoms: C13_13  and  N1_14 
REMARK    5  A    between atoms: C13_13  and  C14_15 
ROOT
HETATM    1  C1  UNL     1      23.201   4.285  48.799  1.00  0.00     0.013 C 
HETATM    2  C2  UNL     1      23.706   3.587  49.613  1.00  0.00    -0.101 C 
HETATM    3  C3  UNL     1      24.295   2.739  50.611  1.00  0.00     0.062 A 
HETATM    4  C4  UNL     1      25.511   2.460  50.974  1.00  0.00    -0.016 A 
HETATM    5  C5  UNL     1      24.561   1.654  51.818  1.00  0.00     0.019 A 
HETATM    6  C6  UNL     1      23.526   2.741  52.439  1.00  0.00     0.048 A 
HETATM    7  C7  UNL     1      22.404   1.898  51.783  1.00  0.00     0.087 A 
HETATM    8  C8  UNL     1      23.793   1.718  51.715  1.00  0.00     0.033 A 
HETATM    9  C9  UNL     1      23.753   0.806  52.714  1.00  0.00     0.022 A 
HETATM   10  C10 UNL     1      24.529  -0.034  53.353  1.00  0.00    -0.067 C 
HETATM   11  C16 UNL     1      23.402  -0.664  54.075  1.00  0.00     0.022 C 
HETATM   12  C17 UNL     1      22.110  -0.401  54.005  1.00  0.00     0.103 C 
HETATM   13  N2  UNL     1      21.185   0.424  53.367  1.00  0.00    -0.315 N 
HETATM   14  N3  UNL     1      20.540   1.624  53.121  1.00  0.00    -0.153 NA
HETATM   15  N4  UNL     1      21.145   2.386  52.103  1.00  0.00    -0.325 N 
HETATM   16  H18 UNL     1      20.510   0.110  52.603  1.00  0.00     0.181 HD
HETATM   17  H19 UNL     1      20.445   2.189  53.989  1.00  0.00     0.172 HD
HETATM   18  H20 UNL     1      20.834   3.224  51.571  1.00  0.00     0.176 HD
ENDROOT
BRANCH  10  19
HETATM   19  C11 UNL     1      25.856  -0.673  53.724  1.00  0.00     0.037 C 
BRANCH  19  20
HETATM   20  C12 UNL     1      26.412   0.214  54.816  1.00  0.00     0.039 C 
BRANCH  20  21
HETATM   21  C13 UNL     1      27.671   0.926  54.368  1.00  0.00     0.217 C 
BRANCH  21  22
HETATM   22  N1  UNL     1      27.482   2.303  54.046  1.00  0.00     0.082 N 
HETATM   23  H9  UNL     1      27.781   2.935  54.811  1.00  0.00     0.313 HD
HETATM   24  H10 UNL     1      26.549   2.530  53.641  1.00  0.00     0.313 HD
ENDBRANCH  21  22
BRANCH  21  25
HETATM   25  C14 UNL     1      28.244   0.115  53.226  1.00  0.00     0.031 C 
HETATM   26  C15 UNL     1      29.660  -0.297  53.567  1.00  0.00     0.007 C 
ENDBRANCH  21  25
ENDBRANCH  20  21
ENDBRANCH  19  20
ENDBRANCH  10  19
TORSDOF 5
ENDMDL
MODEL 7
REMARK VINA RESULT:      -7.5      2.019      4.677
REMARK  5 active torsions:
REMARK  status: ('A' for Active; 'I' for Inactive)
REMARK    1  A    between atoms: C10_10  and  C11_11 
REMARK    2  A    between atoms: C11_11  and  C12_12 
REMARK    3  A    between atoms: C12_12  and  C13_13 
REMARK    4  A    between atoms: C13_13  and  N1_14 
REMARK    5  A    between atoms: C13_13  and  C14_15 
ROOT
HETATM    1  C1  UNL     1      17.933  -1.813  53.434  1.00  0.00     0.013 C 
HETATM    2  C2  UNL     1      18.803  -1.066  53.136  1.00  0.00    -0.101 C 
HETATM    3  C3  UNL     1      19.872  -0.169  52.795  1.00  0.00     0.062 A 
HETATM    4  C4  UNL     1      19.967   0.914  52.085  1.00  0.00    -0.016 A 
HETATM    5  C5  UNL     1      21.332   0.567  52.617  1.00  0.00     0.019 A 
HETATM    6  C6  UNL     1      21.128   0.403  54.220  1.00  0.00     0.048 A 
HETATM    7  C7  UNL     1      21.707  -1.024  54.045  1.00  0.00     0.087 A 
HETATM    8  C8  UNL     1      21.430  -0.061  53.064  1.00  0.00     0.033 A 
HETATM    9  C9  UNL     1      22.720   0.350  53.064  1.00  0.00     0.022 A 
HETATM   10  C10 UNL     1      23.526   1.163  52.427  1.00  0.00    -0.067 C 
HETATM   11  C16 UNL     1      24.732   0.642  53.107  1.00  0.00     0.022 C 
HETATM   12  C17 UNL     1      24.838  -0.318  54.007  1.00  0.00     0.103 C 
HETATM   13  N2  UNL     1      24.084  -1.244  54.726  1.00  0.00    -0.315 N 
HETATM   14  N3  UNL     1      23.191  -1.638  55.707  1.00  0.00    -0.153 NA
HETATM   15  N4  UNL     1      21.853  -1.668  55.265  1.00  0.00    -0.325 N 
HETATM   16  H18 UNL     1      24.071  -2.295  54.544  1.00  0.00     0.181 HD
HETATM   17  H19 UNL     1      23.277  -1.048  56.559  1.00  0.00     0.172 HD
HETATM   18  H20 UNL     1      20.985  -2.065  55.677  1.00  0.00     0.176 HD
ENDROOT
BRANCH  10  19
HETATM   19  C11 UNL     1      23.874   2.262  51.438  1.00  0.00     0.037 C 
BRANCH  19  20
HETATM   20  C12 UNL     1      24.158   3.472  52.300  1.00  0.00     0.039 C 
BRANCH  20  21
HETATM   21  C13 UNL     1      23.366   4.679  51.843  1.00  0.00     0.217 C 
BRANCH  21  22
HETATM   22  N1  UNL     1      23.962   5.931  52.178  1.00  0.00     0.082 N 
HETATM   23  H9  UNL     1      24.641   6.252  51.464  1.00  0.00     0.313 HD
HETATM   24  H10 UNL     1      24.307   5.999  53.159  1.00  0.00     0.313 HD
ENDBRANCH  21  22
BRANCH  21  25
HETATM   25  C14 UNL     1      21.967   4.513  52.396  1.00  0.00     0.031 C 
HETATM   26  C15 UNL     1      20.986   4.403  51.248  1.00  0.00     0.007 C 
ENDBRANCH  21  25
ENDBRANCH  20  21
ENDBRANCH  19  20
ENDBRANCH  10  19
TORSDOF 5
ENDMDL
MODEL 8
REMARK VINA RESULT:      -7.5      2.896      4.823
REMARK  5 active torsions:
REMARK  status: ('A' for Active; 'I' for Inactive)
REMARK    1  A    between atoms: C10_10  and  C11_11 
REMARK    2  A    between atoms: C11_11  and  C12_12 
REMARK    3  A    between atoms: C12_12  and  C13_13 
REMARK    4  A    between atoms: C13_13  and  N1_14 
REMARK    5  A    between atoms: C13_13  and  C14_15 
ROOT
HETATM    1  C1  UNL     1      21.432  -1.954  54.195  1.00  0.00     0.013 C 
HETATM    2  C2  UNL     1      21.954  -1.064  53.611  1.00  0.00    -0.101 C 
HETATM    3  C3  UNL     1      22.607   0.011  52.918  1.00  0.00     0.062 A 
HETATM    4  C4  UNL     1      22.209   0.983  52.154  1.00  0.00    -0.016 A 
HETATM    5  C5  UNL     1      23.708   1.047  52.271  1.00  0.00     0.019 A 
HETATM    6  C6  UNL     1      24.003   1.049  53.868  1.00  0.00     0.048 A 
HETATM    7  C7  UNL     1      24.873  -0.207  53.606  1.00  0.00     0.087 A 
HETATM    8  C8  UNL     1      24.090   0.525  52.702  1.00  0.00     0.033 A 
HETATM    9  C9  UNL     1      25.170   1.232  52.294  1.00  0.00     0.022 A 
HETATM   10  C10 UNL     1      25.522   2.124  51.402  1.00  0.00    -0.067 C 
HETATM   11  C16 UNL     1      26.962   2.002  51.716  1.00  0.00     0.022 C 
HETATM   12  C17 UNL     1      27.564   1.222  52.595  1.00  0.00     0.103 C 
HETATM   13  N2  UNL     1      27.315   0.243  53.555  1.00  0.00    -0.315 N 
HETATM   14  N3  UNL     1      26.865  -0.223  54.778  1.00  0.00    -0.153 NA
HETATM   15  N4  UNL     1      25.516  -0.632  54.759  1.00  0.00    -0.325 N 
HETATM   16  H18 UNL     1      27.534  -0.795  53.443  1.00  0.00     0.181 HD
HETATM   17  H19 UNL     1      27.020   0.476  55.532  1.00  0.00     0.172 HD
HETATM   18  H20 UNL     1      24.934  -1.169  55.433  1.00  0.00     0.176 HD
ENDROOT
BRANCH  10  19
HETATM   19  C11 UNL     1      25.276   3.136  50.296  1.00  0.00     0.037 C 
BRANCH  19  20
HETATM   20  C12 UNL     1      26.635   3.345  49.665  1.00  0.00     0.039 C 
BRANCH  20  21
HETATM   21  C13 UNL     1      26.730   4.693  48.982  1.00  0.00     0.217 C 
BRANCH  21  22
HETATM   22  N1  UNL     1      28.017   5.303  49.067  1.00  0.00     0.082 N 
HETATM   23  H9  UNL     1      28.336   5.688  48.159  1.00  0.00     0.313 HD
HETATM   24  H10 UNL     1      28.734   4.736  49.569  1.00  0.00     0.313 HD
ENDBRANCH  21  22
BRANCH  21  25
HETATM   25  C14 UNL     1      25.621   5.549  49.554  1.00  0.00     0.031 C 
HETATM   26  C15 UNL     1      25.191   6.566  48.521  1.00  0.00     0.007 C 
ENDBRANCH  21  25
ENDBRANCH  20  21
ENDBRANCH  19  20
ENDBRANCH  10  19
TORSDOF 5
ENDMDL
MODEL 9
REMARK VINA RESULT:      -7.4      2.034      3.362
REMARK  5 active torsions:
REMARK  status: ('A' for Active; 'I' for Inactive)
REMARK    1  A    between atoms: C10_10  and  C11_11 
REMARK    2  A    between atoms: C11_11  and  C12_12 
REMARK    3  A    between atoms: C12_12  and  C13_13 
REMARK    4  A    between atoms: C13_13  and  N1_14 
REMARK    5  A    between atoms: C13_13  and  C14_15 
ROOT
HETATM    1  C1  UNL     1      25.299   5.069  50.229  1.00  0.00     0.013 C 
HETATM    2  C2  UNL     1      24.914   4.015  50.611  1.00  0.00    -0.101 C 
HETATM    3  C3  UNL     1      24.469   2.735  51.087  1.00  0.00     0.062 A 
HETATM    4  C4  UNL     1      23.552   1.891  50.722  1.00  0.00    -0.016 A 
HETATM    5  C5  UNL     1      24.245   1.349  51.943  1.00  0.00     0.019 A 
HETATM    6  C6  UNL     1      25.826   1.374  51.572  1.00  0.00     0.048 A 
HETATM    7  C7  UNL     1      26.006   2.251  52.837  1.00  0.00     0.087 A 
HETATM    8  C8  UNL     1      24.823   1.748  52.276  1.00  0.00     0.033 A 
HETATM    9  C9  UNL     1      24.830   0.698  53.130  1.00  0.00     0.022 A 
HETATM   10  C10 UNL     1      24.095  -0.326  53.485  1.00  0.00    -0.067 C 
HETATM   11  C16 UNL     1      24.958  -0.659  54.639  1.00  0.00     0.022 C 
HETATM   12  C17 UNL     1      26.049  -0.053  55.071  1.00  0.00     0.103 C 
HETATM   13  N2  UNL     1      26.892   1.025  54.806  1.00  0.00    -0.315 N 
HETATM   14  N3  UNL     1      27.865   1.705  54.095  1.00  0.00    -0.153 NA
HETATM   15  N4  UNL     1      27.343   2.530  53.080  1.00  0.00    -0.325 N 
HETATM   16  H18 UNL     1      26.939   1.921  55.381  1.00  0.00     0.181 HD
HETATM   17  H19 UNL     1      28.575   1.054  53.703  1.00  0.00     0.172 HD
HETATM   18  H20 UNL     1      27.765   3.279  52.494  1.00  0.00     0.176 HD
ENDROOT
BRANCH  10  19
HETATM   19  C11 UNL     1      22.922  -1.284  53.372  1.00  0.00     0.037 C 
BRANCH  19  20
HETATM   20  C12 UNL     1      21.809  -0.451  52.773  1.00  0.00     0.039 C 
BRANCH  20  21
HETATM   21  C13 UNL     1      21.264   0.549  53.771  1.00  0.00     0.217 C 
BRANCH  21  22
HETATM   22  N1  UNL     1      20.516  -0.036  54.835  1.00  0.00     0.082 N 
HETATM   23  H9  UNL     1      20.285   0.646  55.581  1.00  0.00     0.313 HD
HETATM   24  H10 UNL     1      20.893  -0.943  55.184  1.00  0.00     0.313 HD
ENDBRANCH  21  22
BRANCH  21  25
HETATM   25  C14 UNL     1      20.480   1.571  52.976  1.00  0.00     0.031 C 
HETATM   26  C15 UNL     1      20.030   0.951  51.672  1.00  0.00     0.007 C 
ENDBRANCH  21  25
ENDBRANCH  20  21
ENDBRANCH  19  20
ENDBRANCH  10  19
TORSDOF 5
ENDMDL
