MODEL 1
REMARK VINA RESULT:      -8.4      0.000      0.000
REMARK  4 active torsions:
REMARK  status: ('A' for Active; 'I' for Inactive)
REMARK    1  A    between atoms: C2_2  and  C3_3 
REMARK       I    between atoms: C3_3  and  N1_5 
REMARK    2  A    between atoms: N1_5  and  C4_6 
REMARK    3  A    between atoms: C9_12  and  N3_13 
REMARK    4  A    between atoms: C14_19  and  N4_20 
ROOT
HETATM    1  C4  UNL     1      26.168   0.286  54.464  1.00  0.00     0.092 C 
HETATM    2  C5  UNL     1      25.019  -0.645  54.436  1.00  0.00     0.055 C 
HETATM    3  C6  UNL     1      23.844  -0.196  53.656  1.00  0.00     0.007 C 
HETATM    4  C7  UNL     1      23.694   0.890  52.916  1.00  0.00     0.058 A 
HETATM    5  N2  UNL     1      22.519   1.218  52.213  1.00  0.00    -0.263 NA
HETATM    6  C8  UNL     1      22.520   2.325  51.524  1.00  0.00     0.119 A 
HETATM    7  C9  UNL     1      23.648   3.272  51.414  1.00  0.00     0.146 A 
HETATM    8  C15 UNL     1      24.839   2.865  52.175  1.00  0.00     0.013 A 
HETATM    9  C16 UNL     1      24.862   1.733  52.889  1.00  0.00    -0.029 A 
HETATM   10  C17 UNL     1      26.123   1.475  53.585  1.00  0.00     0.066 C 
ENDROOT
BRANCH   7  11
HETATM   11  N3  UNL     1      23.281   4.612  51.818  1.00  0.00    -0.369 N 
HETATM   12  C10 UNL     1      21.885   4.810  51.957  1.00  0.00     0.148 C 
HETATM   13  C11 UNL     1      21.271   5.608  50.863  1.00  0.00     0.007 C 
HETATM   14  C12 UNL     1      21.983   6.266  49.984  1.00  0.00    -0.010 C 
HETATM   15 BR1  UNL     1      21.134   7.274  48.599  1.00  0.00    -0.056 Br
HETATM   16  C13 UNL     1      23.452   6.276  49.999  1.00  0.00     0.102 C 
HETATM   17  C14 UNL     1      24.034   5.658  51.224  1.00  0.00     0.320 C 
BRANCH  17  18
HETATM   18  N4  UNL     1      24.214   6.702  52.232  1.00  0.00     0.101 N 
HETATM   19  H19 UNL     1      23.625   6.443  53.077  1.00  0.00     0.315 HD
HETATM   20  H20 UNL     1      23.732   7.541  51.833  1.00  0.00     0.315 HD
ENDBRANCH  17  18
ENDBRANCH   7  11
BRANCH   1  21
HETATM   21  N1  UNL     1      27.361  -0.484  54.073  1.00  0.00    -0.356 N 
HETATM   22  C3  UNL     1      28.670  -0.076  54.371  1.00  0.00     0.217 C 
HETATM   23  O1  UNL     1      28.997   0.969  54.991  1.00  0.00    -0.274 OA
HETATM   24  H6  UNL     1      27.166  -1.355  53.560  1.00  0.00     0.162 HD
BRANCH  22  25
HETATM   25  C2  UNL     1      29.792  -0.958  53.912  1.00  0.00     0.098 C 
HETATM   26  C1  UNL     1      29.271  -2.198  53.238  1.00  0.00     0.014 C 
ENDBRANCH  22  25
ENDBRANCH   1  21
TORSDOF 4
ENDMDL
MODEL 2
REMARK VINA RESULT:      -8.1      1.833      2.209
REMARK  4 active torsions:
REMARK  status: ('A' for Active; 'I' for Inactive)
REMARK    1  A    between atoms: C2_2  and  C3_3 
REMARK       I    between atoms: C3_3  and  N1_5 
REMARK    2  A    between atoms: N1_5  and  C4_6 
REMARK    3  A    between atoms: C9_12  and  N3_13 
REMARK    4  A    between atoms: C14_19  and  N4_20 
ROOT
HETATM    1  C4  UNL     1      26.395   1.063  53.411  1.00  0.00     0.092 C 
HETATM    2  C5  UNL     1      25.172   0.234  53.353  1.00  0.00     0.055 C 
HETATM    3  C6  UNL     1      24.136   0.677  52.392  1.00  0.00     0.007 C 
HETATM    4  C7  UNL     1      24.173   1.672  51.521  1.00  0.00     0.058 A 
HETATM    5  N2  UNL     1      23.118   2.005  50.649  1.00  0.00    -0.263 NA
HETATM    6  C8  UNL     1      23.300   3.015  49.844  1.00  0.00     0.119 A 
HETATM    7  C9  UNL     1      24.520   3.845  49.762  1.00  0.00     0.146 A 
HETATM    8  C15 UNL     1      25.577   3.439  50.701  1.00  0.00     0.013 A 
HETATM    9  C16 UNL     1      25.412   2.406  51.538  1.00  0.00    -0.029 A 
HETATM   10  C17 UNL     1      26.560   2.133  52.404  1.00  0.00     0.066 C 
ENDROOT
BRANCH   7  11
HETATM   11  N3  UNL     1      24.241   5.250  49.964  1.00  0.00    -0.369 N 
HETATM   12  C10 UNL     1      23.259   5.775  49.087  1.00  0.00     0.148 C 
HETATM   13  C11 UNL     1      23.805   6.644  48.013  1.00  0.00     0.007 C 
HETATM   14  C12 UNL     1      25.041   7.078  48.013  1.00  0.00    -0.010 C 
HETATM   15 BR1  UNL     1      25.684   8.193  46.601  1.00  0.00    -0.056 Br
HETATM   16  C13 UNL     1      25.998   6.745  49.077  1.00  0.00     0.102 C 
HETATM   17  C14 UNL     1      25.370   6.063  50.244  1.00  0.00     0.320 C 
BRANCH  17  18
HETATM   18  N4  UNL     1      24.954   7.080  51.210  1.00  0.00     0.101 N 
HETATM   19  H19 UNL     1      25.791   7.704  51.404  1.00  0.00     0.315 HD
HETATM   20  H20 UNL     1      24.814   6.555  52.104  1.00  0.00     0.315 HD
ENDBRANCH  17  18
ENDBRANCH   7  11
BRANCH   1  21
HETATM   21  N1  UNL     1      27.543   0.155  53.256  1.00  0.00    -0.356 N 
HETATM   22  C3  UNL     1      28.680   0.207  54.077  1.00  0.00     0.217 C 
HETATM   23  O1  UNL     1      28.871   1.010  55.027  1.00  0.00    -0.274 OA
HETATM   24  H6  UNL     1      27.453  -0.532  52.494  1.00  0.00     0.162 HD
BRANCH  22  25
HETATM   25  C2  UNL     1      29.776  -0.779  53.806  1.00  0.00     0.098 C 
HETATM   26  C1  UNL     1      29.230  -2.058  53.231  1.00  0.00     0.014 C 
ENDBRANCH  22  25
ENDBRANCH   1  21
TORSDOF 4
ENDMDL
MODEL 3
REMARK VINA RESULT:      -7.9      2.367      3.066
REMARK  4 active torsions:
REMARK  status: ('A' for Active; 'I' for Inactive)
REMARK    1  A    between atoms: C2_2  and  C3_3 
REMARK       I    between atoms: C3_3  and  N1_5 
REMARK    2  A    between atoms: N1_5  and  C4_6 
REMARK    3  A    between atoms: C9_12  and  N3_13 
REMARK    4  A    between atoms: C14_19  and  N4_20 
ROOT
HETATM    1  C4  UNL     1      25.892  -0.010  54.847  1.00  0.00     0.092 C 
HETATM    2  C5  UNL     1      25.261  -0.979  55.770  1.00  0.00     0.055 C 
HETATM    3  C6  UNL     1      23.839  -1.293  55.503  1.00  0.00     0.007 C 
HETATM    4  C7  UNL     1      23.063  -0.886  54.512  1.00  0.00     0.058 A 
HETATM    5  N2  UNL     1      21.712  -1.252  54.358  1.00  0.00    -0.263 NA
HETATM    6  C8  UNL     1      21.073  -0.771  53.328  1.00  0.00     0.119 A 
HETATM    7  C9  UNL     1      21.641   0.127  52.302  1.00  0.00     0.146 A 
HETATM    8  C15 UNL     1      23.055   0.465  52.528  1.00  0.00     0.013 A 
HETATM    9  C16 UNL     1      23.731  -0.016  53.579  1.00  0.00    -0.029 A 
HETATM   10  C17 UNL     1      25.127   0.417  53.656  1.00  0.00     0.066 C 
ENDROOT
BRANCH   7  11
HETATM   11  N3  UNL     1      20.889   1.357  52.172  1.00  0.00    -0.369 N 
HETATM   12  C10 UNL     1      19.578   1.180  51.665  1.00  0.00     0.148 C 
HETATM   13  C11 UNL     1      19.406   1.619  50.256  1.00  0.00     0.007 C 
HETATM   14  C12 UNL     1      20.310   2.321  49.619  1.00  0.00    -0.010 C 
HETATM   15 BR1  UNL     1      20.030   2.856  47.806  1.00  0.00    -0.056 Br
HETATM   16  C13 UNL     1      21.575   2.737  50.240  1.00  0.00     0.102 C 
HETATM   17  C14 UNL     1      21.626   2.476  51.707  1.00  0.00     0.320 C 
BRANCH  17  18
HETATM   18  N4  UNL     1      21.123   3.659  52.407  1.00  0.00     0.101 N 
HETATM   19  H19 UNL     1      20.999   3.402  53.430  1.00  0.00     0.315 HD
HETATM   20  H20 UNL     1      20.145   3.779  52.054  1.00  0.00     0.315 HD
ENDBRANCH  17  18
ENDBRANCH   7  11
BRANCH   1  21
HETATM   21  N1  UNL     1      27.135  -0.626  54.354  1.00  0.00    -0.356 N 
HETATM   22  C3  UNL     1      28.393  -0.017  54.471  1.00  0.00     0.217 C 
HETATM   23  O1  UNL     1      28.627   1.104  54.994  1.00  0.00    -0.274 OA
HETATM   24  H6  UNL     1      27.017  -1.549  53.913  1.00  0.00     0.162 HD
BRANCH  22  25
HETATM   25  C2  UNL     1      29.576  -0.758  53.924  1.00  0.00     0.098 C 
HETATM   26  C1  UNL     1      29.152  -2.013  53.211  1.00  0.00     0.014 C 
ENDBRANCH  22  25
ENDBRANCH   1  21
TORSDOF 4
ENDMDL
MODEL 4
REMARK VINA RESULT:      -7.5      4.452      7.957
REMARK  4 active torsions:
REMARK  status: ('A' for Active; 'I' for Inactive)
REMARK    1  A    between atoms: C2_2  and  C3_3 
REMARK       I    between atoms: C3_3  and  N1_5 
REMARK    2  A    between atoms: N1_5  and  C4_6 
REMARK    3  A    between atoms: C9_12  and  N3_13 
REMARK    4  A    between atoms: C14_19  and  N4_20 
ROOT
HETATM    1  C4  UNL     1      19.849   2.009  52.193  1.00  0.00     0.092 C 
HETATM    2  C5  UNL     1      20.136   3.433  51.914  1.00  0.00     0.055 C 
HETATM    3  C6  UNL     1      21.565   3.819  51.932  1.00  0.00     0.007 C 
HETATM    4  C7  UNL     1      22.636   3.059  52.092  1.00  0.00     0.058 A 
HETATM    5  N2  UNL     1      23.960   3.540  52.092  1.00  0.00    -0.263 NA
HETATM    6  C8  UNL     1      24.915   2.669  52.261  1.00  0.00     0.119 A 
HETATM    7  C9  UNL     1      24.734   1.215  52.454  1.00  0.00     0.146 A 
HETATM    8  C15 UNL     1      23.327   0.787  52.443  1.00  0.00     0.013 A 
HETATM    9  C16 UNL     1      22.329   1.663  52.271  1.00  0.00    -0.029 A 
HETATM   10  C17 UNL     1      20.990   1.073  52.285  1.00  0.00     0.066 C 
ENDROOT
BRANCH   7  11
HETATM   11  N3  UNL     1      25.349   0.743  53.676  1.00  0.00    -0.369 N 
HETATM   12  C10 UNL     1      26.398   1.569  54.150  1.00  0.00     0.148 C 
HETATM   13  C11 UNL     1      27.757   1.004  53.946  1.00  0.00     0.007 C 
HETATM   14  C12 UNL     1      27.959  -0.238  53.583  1.00  0.00    -0.010 C 
HETATM   15 BR1  UNL     1      29.732  -0.906  53.336  1.00  0.00    -0.056 Br
HETATM   16  C13 UNL     1      26.860  -1.183  53.344  1.00  0.00     0.102 C 
HETATM   17  C14 UNL     1      25.529  -0.661  53.766  1.00  0.00     0.320 C 
BRANCH  17  18
HETATM   18  N4  UNL     1      25.297  -1.049  55.157  1.00  0.00     0.101 N 
HETATM   19  H19 UNL     1      25.670  -0.273  55.778  1.00  0.00     0.315 HD
HETATM   20  H20 UNL     1      25.954  -1.846  55.323  1.00  0.00     0.315 HD
ENDBRANCH  17  18
ENDBRANCH   7  11
BRANCH   1  21
HETATM   21  N1  UNL     1      18.985   1.519  51.106  1.00  0.00    -0.356 N 
HETATM   22  C3  UNL     1      18.202   0.360  51.211  1.00  0.00     0.217 C 
HETATM   23  O1  UNL     1      18.131  -0.398  52.213  1.00  0.00    -0.274 OA
HETATM   24  H6  UNL     1      18.994   2.094  50.252  1.00  0.00     0.162 HD
BRANCH  22  25
HETATM   25  C2  UNL     1      17.369  -0.023  50.024  1.00  0.00     0.098 C 
HETATM   26  C1  UNL     1      16.039  -0.584  50.450  1.00  0.00     0.014 C 
ENDBRANCH  22  25
ENDBRANCH   1  21
TORSDOF 4
ENDMDL
MODEL 5
REMARK VINA RESULT:      -7.3      1.615      1.858
REMARK  4 active torsions:
REMARK  status: ('A' for Active; 'I' for Inactive)
REMARK    1  A    between atoms: C2_2  and  C3_3 
REMARK       I    between atoms: C3_3  and  N1_5 
REMARK    2  A    between atoms: N1_5  and  C4_6 
REMARK    3  A    between atoms: C9_12  and  N3_13 
REMARK    4  A    between atoms: C14_19  and  N4_20 
ROOT
HETATM    1  C4  UNL     1      25.265   0.392  53.684  1.00  0.00     0.092 C 
HETATM    2  C5  UNL     1      24.174  -0.546  54.023  1.00  0.00     0.055 C 
HETATM    3  C6  UNL     1      22.918  -0.380  53.256  1.00  0.00     0.007 C 
HETATM    4  C7  UNL     1      22.650   0.442  52.256  1.00  0.00     0.058 A 
HETATM    5  N2  UNL     1      21.408   0.514  51.596  1.00  0.00    -0.263 NA
HETATM    6  C8  UNL     1      21.292   1.377  50.625  1.00  0.00     0.119 A 
HETATM    7  C9  UNL     1      22.352   2.291  50.151  1.00  0.00     0.146 A 
HETATM    8  C15 UNL     1      23.619   2.160  50.887  1.00  0.00     0.013 A 
HETATM    9  C16 UNL     1      23.761   1.282  51.888  1.00  0.00    -0.029 A 
HETATM   10  C17 UNL     1      25.084   1.277  52.513  1.00  0.00     0.066 C 
ENDROOT
BRANCH   7  11
HETATM   11  N3  UNL     1      21.939   3.677  50.191  1.00  0.00    -0.369 N 
HETATM   12  C10 UNL     1      20.732   3.939  49.496  1.00  0.00     0.148 C 
HETATM   13  C11 UNL     1      20.917   4.646  48.202  1.00  0.00     0.007 C 
HETATM   14  C12 UNL     1      22.055   5.187  47.847  1.00  0.00    -0.010 C 
HETATM   15 BR1  UNL     1      22.229   6.082  46.168  1.00  0.00    -0.056 Br
HETATM   16  C13 UNL     1      23.253   5.144  48.697  1.00  0.00     0.102 C 
HETATM   17  C14 UNL     1      22.984   4.629  50.070  1.00  0.00     0.320 C 
BRANCH  17  18
HETATM   18  N4  UNL     1      22.653   5.762  50.935  1.00  0.00     0.101 N 
HETATM   19  H19 UNL     1      21.758   5.523  51.455  1.00  0.00     0.315 HD
HETATM   20  H20 UNL     1      22.370   6.524  50.277  1.00  0.00     0.315 HD
ENDBRANCH  17  18
ENDBRANCH   7  11
BRANCH   1  21
HETATM   21  N1  UNL     1      26.467  -0.416  53.423  1.00  0.00    -0.356 N 
HETATM   22  C3  UNL     1      27.735  -0.095  53.931  1.00  0.00     0.217 C 
HETATM   23  O1  UNL     1      28.012   0.896  54.655  1.00  0.00    -0.274 OA
HETATM   24  H6  UNL     1      26.312  -1.247  52.834  1.00  0.00     0.162 HD
BRANCH  22  25
HETATM   25  C2  UNL     1      28.873  -1.007  53.585  1.00  0.00     0.098 C 
HETATM   26  C1  UNL     1      30.180  -0.263  53.557  1.00  0.00     0.014 C 
ENDBRANCH  22  25
ENDBRANCH   1  21
TORSDOF 4
ENDMDL
MODEL 6
REMARK VINA RESULT:      -7.2      4.577      6.510
REMARK  4 active torsions:
REMARK  status: ('A' for Active; 'I' for Inactive)
REMARK    1  A    between atoms: C2_2  and  C3_3 
REMARK       I    between atoms: C3_3  and  N1_5 
REMARK    2  A    between atoms: N1_5  and  C4_6 
REMARK    3  A    between atoms: C9_12  and  N3_13 
REMARK    4  A    between atoms: C14_19  and  N4_20 
ROOT
HETATM    1  C4  UNL     1      27.173   5.575  48.591  1.00  0.00     0.092 C 
HETATM    2  C5  UNL     1      26.795   6.946  48.997  1.00  0.00     0.055 C 
HETATM    3  C6  UNL     1      25.642   7.051  49.921  1.00  0.00     0.007 C 
HETATM    4  C7  UNL     1      24.939   6.090  50.496  1.00  0.00     0.058 A 
HETATM    5  N2  UNL     1      23.852   6.309  51.364  1.00  0.00    -0.263 NA
HETATM    6  C8  UNL     1      23.255   5.260  51.857  1.00  0.00     0.119 A 
HETATM    7  C9  UNL     1      23.617   3.854  51.585  1.00  0.00     0.146 A 
HETATM    8  C15 UNL     1      24.759   3.702  50.671  1.00  0.00     0.013 A 
HETATM    9  C16 UNL     1      25.388   4.765  50.153  1.00  0.00    -0.029 A 
HETATM   10  C17 UNL     1      26.504   4.440  49.264  1.00  0.00     0.066 C 
ENDROOT
BRANCH   7  11
HETATM   11  N3  UNL     1      22.504   3.092  51.060  1.00  0.00    -0.369 N 
HETATM   12  C10 UNL     1      21.255   3.421  51.642  1.00  0.00     0.148 C 
HETATM   13  C11 UNL     1      20.740   2.400  52.592  1.00  0.00     0.007 C 
HETATM   14  C12 UNL     1      21.266   1.206  52.701  1.00  0.00    -0.010 C 
HETATM   15 BR1  UNL     1      20.557  -0.062  53.942  1.00  0.00    -0.056 Br
HETATM   16  C13 UNL     1      22.413   0.768  51.895  1.00  0.00     0.102 C 
HETATM   17  C14 UNL     1      22.768   1.722  50.806  1.00  0.00     0.320 C 
BRANCH  17  18
HETATM   18  N4  UNL     1      22.030   1.345  49.600  1.00  0.00     0.101 N 
HETATM   19  H19 UNL     1      22.415   0.416  49.260  1.00  0.00     0.315 HD
HETATM   20  H20 UNL     1      22.342   2.032  48.874  1.00  0.00     0.315 HD
ENDBRANCH  17  18
ENDBRANCH   7  11
BRANCH   1  21
HETATM   21  N1  UNL     1      28.615   5.428  48.846  1.00  0.00    -0.356 N 
HETATM   22  C3  UNL     1      29.601   6.046  48.062  1.00  0.00     0.217 C 
HETATM   23  O1  UNL     1      29.396   6.786  47.064  1.00  0.00    -0.274 OA
HETATM   24  H6  UNL     1      28.855   4.834  49.652  1.00  0.00     0.162 HD
BRANCH  22  25
HETATM   25  C2  UNL     1      31.033   5.810  48.435  1.00  0.00     0.098 C 
HETATM   26  C1  UNL     1      31.666   4.776  47.544  1.00  0.00     0.014 C 
ENDBRANCH  22  25
ENDBRANCH   1  21
TORSDOF 4
ENDMDL
MODEL 7
REMARK VINA RESULT:      -7.1      3.093      4.085
REMARK  4 active torsions:
REMARK  status: ('A' for Active; 'I' for Inactive)
REMARK    1  A    between atoms: C2_2  and  C3_3 
REMARK       I    between atoms: C3_3  and  N1_5 
REMARK    2  A    between atoms: N1_5  and  C4_6 
REMARK    3  A    between atoms: C9_12  and  N3_13 
REMARK    4  A    between atoms: C14_19  and  N4_20 
ROOT
HETATM    1  C4  UNL     1      23.493  -0.018  53.681  1.00  0.00     0.092 C 
HETATM    2  C5  UNL     1      22.682  -0.714  54.704  1.00  0.00     0.055 C 
HETATM    3  C6  UNL     1      21.235  -0.827  54.413  1.00  0.00     0.007 C 
HETATM    4  C7  UNL     1      20.566  -0.458  53.334  1.00  0.00     0.058 A 
HETATM    5  N2  UNL     1      19.176  -0.615  53.166  1.00  0.00    -0.263 NA
HETATM    6  C8  UNL     1      18.656  -0.202  52.044  1.00  0.00     0.119 A 
HETATM    7  C9  UNL     1      19.396   0.419  50.926  1.00  0.00     0.146 A 
HETATM    8  C15 UNL     1      20.840   0.551  51.172  1.00  0.00     0.013 A 
HETATM    9  C16 UNL     1      21.396   0.135  52.317  1.00  0.00    -0.029 A 
HETATM   10  C17 UNL     1      22.843   0.338  52.401  1.00  0.00     0.066 C 
ENDROOT
BRANCH   7  11
HETATM   11  N3  UNL     1      18.868   1.720  50.575  1.00  0.00    -0.369 N 
HETATM   12  C10 UNL     1      19.426   2.270  49.395  1.00  0.00     0.148 C 
HETATM   13  C11 UNL     1      20.386   3.378  49.634  1.00  0.00     0.007 C 
HETATM   14  C12 UNL     1      20.525   3.954  50.802  1.00  0.00    -0.010 C 
HETATM   15 BR1  UNL     1      21.778   5.376  51.047  1.00  0.00    -0.056 Br
HETATM   16  C13 UNL     1      19.744   3.554  51.981  1.00  0.00     0.102 C 
HETATM   17  C14 UNL     1      18.643   2.601  51.664  1.00  0.00     0.320 C 
BRANCH  17  18
HETATM   18  N4  UNL     1      17.433   3.369  51.369  1.00  0.00     0.101 N 
HETATM   19  H19 UNL     1      16.967   2.929  50.522  1.00  0.00     0.315 HD
HETATM   20  H20 UNL     1      17.783   4.290  51.017  1.00  0.00     0.315 HD
ENDBRANCH  17  18
ENDBRANCH   7  11
BRANCH   1  21
HETATM   21  N1  UNL     1      24.625  -0.900  53.351  1.00  0.00    -0.356 N 
HETATM   22  C3  UNL     1      25.907  -0.421  53.043  1.00  0.00     0.217 C 
HETATM   23  O1  UNL     1      26.256   0.787  53.005  1.00  0.00    -0.274 OA
HETATM   24  H6  UNL     1      24.408  -1.907  53.363  1.00  0.00     0.162 HD
BRANCH  22  25
HETATM   25  C2  UNL     1      26.967  -1.432  52.725  1.00  0.00     0.098 C 
HETATM   26  C1  UNL     1      28.312  -0.991  53.235  1.00  0.00     0.014 C 
ENDBRANCH  22  25
ENDBRANCH   1  21
TORSDOF 4
ENDMDL
MODEL 8
REMARK VINA RESULT:      -7.0      3.845      4.675
REMARK  4 active torsions:
REMARK  status: ('A' for Active; 'I' for Inactive)
REMARK    1  A    between atoms: C2_2  and  C3_3 
REMARK       I    between atoms: C3_3  and  N1_5 
REMARK    2  A    between atoms: N1_5  and  C4_6 
REMARK    3  A    between atoms: C9_12  and  N3_13 
REMARK    4  A    between atoms: C14_19  and  N4_20 
ROOT
HETATM    1  C4  UNL     1      23.389  -0.167  53.882  1.00  0.00     0.092 C 
HETATM    2  C5  UNL     1      22.721  -1.113  54.802  1.00  0.00     0.055 C 
HETATM    3  C6  UNL     1      21.272  -1.319  54.576  1.00  0.00     0.007 C 
HETATM    4  C7  UNL     1      20.496  -0.832  53.622  1.00  0.00     0.058 A 
HETATM    5  N2  UNL     1      19.118  -1.097  53.505  1.00  0.00    -0.263 NA
HETATM    6  C8  UNL     1      18.482  -0.546  52.508  1.00  0.00     0.119 A 
HETATM    7  C9  UNL     1      19.080   0.337  51.486  1.00  0.00     0.146 A 
HETATM    8  C15 UNL     1      20.521   0.569  51.672  1.00  0.00     0.013 A 
HETATM    9  C16 UNL     1      21.194   0.013  52.688  1.00  0.00    -0.029 A 
HETATM   10  C17 UNL     1      22.619   0.344  52.728  1.00  0.00     0.066 C 
ENDROOT
BRANCH   7  11
HETATM   11  N3  UNL     1      18.414   1.620  51.411  1.00  0.00    -0.369 N 
HETATM   12  C10 UNL     1      17.004   1.532  51.302  1.00  0.00     0.148 C 
HETATM   13  C11 UNL     1      16.479   1.844  49.947  1.00  0.00     0.007 C 
HETATM   14  C12 UNL     1      17.217   2.380  49.008  1.00  0.00    -0.010 C 
HETATM   15 BR1  UNL     1      16.482   2.759  47.285  1.00  0.00    -0.056 Br
HETATM   16  C13 UNL     1      18.632   2.721  49.209  1.00  0.00     0.102 C 
HETATM   17  C14 UNL     1      19.071   2.604  50.629  1.00  0.00     0.320 C 
BRANCH  17  18
HETATM   18  N4  UNL     1      18.872   3.896  51.286  1.00  0.00     0.101 N 
HETATM   19  H19 UNL     1      19.102   3.777  52.315  1.00  0.00     0.315 HD
HETATM   20  H20 UNL     1      17.836   4.044  51.271  1.00  0.00     0.315 HD
ENDBRANCH  17  18
ENDBRANCH   7  11
BRANCH   1  21
HETATM   21  N1  UNL     1      24.569  -0.857  53.333  1.00  0.00    -0.356 N 
HETATM   22  C3  UNL     1      25.823  -0.242  53.196  1.00  0.00     0.217 C 
HETATM   23  O1  UNL     1      26.105   0.943  53.511  1.00  0.00    -0.274 OA
HETATM   24  H6  UNL     1      24.409  -1.835  53.054  1.00  0.00     0.162 HD
BRANCH  22  25
HETATM   25  C2  UNL     1      26.938  -1.062  52.620  1.00  0.00     0.098 C 
HETATM   26  C1  UNL     1      28.248  -0.746  53.287  1.00  0.00     0.014 C 
ENDBRANCH  22  25
ENDBRANCH   1  21
TORSDOF 4
ENDMDL
MODEL 9
REMARK VINA RESULT:      -6.9      4.772      8.099
REMARK  4 active torsions:
REMARK  status: ('A' for Active; 'I' for Inactive)
REMARK    1  A    between atoms: C2_2  and  C3_3 
REMARK       I    between atoms: C3_3  and  N1_5 
REMARK    2  A    between atoms: N1_5  and  C4_6 
REMARK    3  A    between atoms: C9_12  and  N3_13 
REMARK    4  A    between atoms: C14_19  and  N4_20 
ROOT
HETATM    1  C4  UNL     1      26.847   7.663  47.844  1.00  0.00     0.092 C 
HETATM    2  C5  UNL     1      28.094   6.871  47.779  1.00  0.00     0.055 C 
HETATM    3  C6  UNL     1      28.044   5.535  48.415  1.00  0.00     0.007 C 
HETATM    4  C7  UNL     1      27.020   4.912  48.975  1.00  0.00     0.058 A 
HETATM    5  N2  UNL     1      27.090   3.630  49.555  1.00  0.00    -0.263 NA
HETATM    6  C8  UNL     1      25.995   3.143  50.070  1.00  0.00     0.119 A 
HETATM    7  C9  UNL     1      24.681   3.818  50.099  1.00  0.00     0.146 A 
HETATM    8  C15 UNL     1      24.685   5.150  49.477  1.00  0.00     0.013 A 
HETATM    9  C16 UNL     1      25.797   5.671  48.943  1.00  0.00    -0.029 A 
HETATM   10  C17 UNL     1      25.629   7.004  48.363  1.00  0.00     0.066 C 
ENDROOT
BRANCH   7  11
HETATM   11  N3  UNL     1      24.157   3.940  51.443  1.00  0.00    -0.369 N 
HETATM   12  C10 UNL     1      24.602   2.928  52.329  1.00  0.00     0.148 C 
HETATM   13  C11 UNL     1      23.572   1.907  52.654  1.00  0.00     0.007 C 
HETATM   14  C12 UNL     1      22.308   2.056  52.346  1.00  0.00    -0.010 C 
HETATM   15 BR1  UNL     1      21.030   0.706  52.792  1.00  0.00    -0.056 Br
HETATM   16  C13 UNL     1      21.795   3.244  51.651  1.00  0.00     0.102 C 
HETATM   17  C14 UNL     1      22.799   4.340  51.535  1.00  0.00     0.320 C 
BRANCH  17  18
HETATM   18  N4  UNL     1      22.673   5.212  52.702  1.00  0.00     0.101 N 
HETATM   19  H19 UNL     1      22.654   6.216  52.357  1.00  0.00     0.315 HD
HETATM   20  H20 UNL     1      23.592   5.129  53.195  1.00  0.00     0.315 HD
ENDBRANCH  17  18
ENDBRANCH   7  11
BRANCH   1  21
HETATM   21  N1  UNL     1      26.540   8.102  46.473  1.00  0.00    -0.356 N 
HETATM   22  C3  UNL     1      26.005   9.363  46.172  1.00  0.00     0.217 C 
HETATM   23  O1  UNL     1      25.721  10.265  47.003  1.00  0.00    -0.274 OA
HETATM   24  H6  UNL     1      26.748   7.410  45.739  1.00  0.00     0.162 HD
BRANCH  22  25
HETATM   25  C2  UNL     1      25.740   9.678  44.730  1.00  0.00     0.098 C 
HETATM   26  C1  UNL     1      25.845   8.445  43.874  1.00  0.00     0.014 C 
ENDBRANCH  22  25
ENDBRANCH   1  21
TORSDOF 4
ENDMDL
