MODEL 1
REMARK VINA RESULT:      -8.6      0.000      0.000
REMARK  0 active torsions:
REMARK  status: ('A' for Active; 'I' for Inactive)
ROOT
HETATM    1  F1  UNL     1      21.775  -0.673  53.663  1.00  0.00    -0.210 F 
HETATM    2  C1  UNL     1      22.835   0.050  53.115  1.00  0.00     0.108 C 
HETATM    3  C2  UNL     1      24.051  -0.522  53.325  1.00  0.00     0.040 C 
HETATM    4  C3  UNL     1      25.486  -0.626  53.232  1.00  0.00     0.019 C 
HETATM    5  C4  UNL     1      26.622  -0.102  52.795  1.00  0.00     0.085 C 
HETATM    6  N1  UNL     1      26.941   1.128  52.022  1.00  0.00    -0.374 N 
HETATM    7  C5  UNL     1      25.789   1.775  51.745  1.00  0.00     0.230 C 
HETATM    8  C6  UNL     1      25.110   2.663  50.869  1.00  0.00     0.030 C 
HETATM    9  C7  UNL     1      23.803   2.215  50.993  1.00  0.00    -0.031 C 
HETATM   10  C8  UNL     1      23.606   2.269  52.449  1.00  0.00    -0.003 C 
HETATM   11  C9  UNL     1      24.364   3.034  53.197  1.00  0.00     0.091 C 
HETATM   12  N2  UNL     1      25.450   2.316  53.069  1.00  0.00    -0.257 NA
HETATM   13  C10 UNL     1      22.525   1.241  52.497  1.00  0.00     0.065 C 
HETATM   14  C11 UNL     1      21.250   1.870  53.076  1.00  0.00     0.070 C 
HETATM   15  C12 UNL     1      20.311   2.508  51.916  1.00  0.00     0.110 A 
HETATM   16  C13 UNL     1      20.159   4.141  51.559  1.00  0.00     0.123 A 
HETATM   17  C14 UNL     1      20.946   3.388  51.396  1.00  0.00    -0.001 A 
HETATM   18  C15 UNL     1      21.564   2.772  51.258  1.00  0.00    -0.016 C 
HETATM   19  C16 UNL     1      22.523   1.767  51.043  1.00  0.00     0.061 C 
HETATM   20  C17 UNL     1      21.712   0.952  50.040  1.00  0.00     0.164 C 
HETATM   21  C18 UNL     1      20.562   0.257  50.780  1.00  0.00     0.203 C 
HETATM   22  O1  UNL     1      19.753   1.217  51.427  1.00  0.00    -0.369 OA
HETATM   23  O2  UNL     1      21.057   1.950  49.271  1.00  0.00    -0.381 OA
HETATM   24  C19 UNL     1      19.803   2.318  49.388  1.00  0.00     0.187 C 
HETATM   25  C20 UNL     1      18.956   3.267  50.097  1.00  0.00     0.141 C 
HETATM   26  N3  UNL     1      18.859   3.484  51.538  1.00  0.00    -0.402 N 
HETATM   27  H4  UNL     1      27.829   1.515  51.703  1.00  0.00     0.161 HD
HETATM   28  H16 UNL     1      17.992   3.165  52.104  1.00  0.00     0.154 HD
ENDROOT
TORSDOF 0
ENDMDL
MODEL 2
REMARK VINA RESULT:      -8.6      2.023      2.527
REMARK  0 active torsions:
REMARK  status: ('A' for Active; 'I' for Inactive)
ROOT
HETATM    1  F1  UNL     1      21.756   1.210  53.422  1.00  0.00    -0.210 F 
HETATM    2  C1  UNL     1      23.102   1.153  53.059  1.00  0.00     0.108 C 
HETATM    3  C2  UNL     1      23.697  -0.032  53.357  1.00  0.00     0.040 C 
HETATM    4  C3  UNL     1      24.787  -0.976  53.418  1.00  0.00     0.019 C 
HETATM    5  C4  UNL     1      26.059  -1.237  53.158  1.00  0.00     0.085 C 
HETATM    6  N1  UNL     1      27.150  -0.444  52.532  1.00  0.00    -0.374 N 
HETATM    7  C5  UNL     1      26.660   0.764  52.181  1.00  0.00     0.230 C 
HETATM    8  C6  UNL     1      26.771   1.881  51.311  1.00  0.00     0.030 C 
HETATM    9  C7  UNL     1      25.451   2.306  51.249  1.00  0.00    -0.031 C 
HETATM   10  C8  UNL     1      25.123   2.468  52.672  1.00  0.00    -0.003 C 
HETATM   11  C9  UNL     1      26.072   2.627  53.562  1.00  0.00     0.091 C 
HETATM   12  N2  UNL     1      26.526   1.401  53.499  1.00  0.00    -0.257 NA
HETATM   13  C10 UNL     1      23.650   2.292  52.512  1.00  0.00     0.065 C 
HETATM   14  C11 UNL     1      22.930   3.560  52.993  1.00  0.00     0.070 C 
HETATM   15  C12 UNL     1      22.728   4.633  51.792  1.00  0.00     0.110 A 
HETATM   16  C13 UNL     1      23.626   6.031  51.558  1.00  0.00     0.123 A 
HETATM   17  C14 UNL     1      23.826   4.957  51.422  1.00  0.00    -0.001 A 
HETATM   18  C15 UNL     1      23.970   4.092  51.304  1.00  0.00    -0.016 C 
HETATM   19  C16 UNL     1      24.164   2.713  51.116  1.00  0.00     0.061 C 
HETATM   20  C17 UNL     1      23.179   2.546  49.963  1.00  0.00     0.164 C 
HETATM   21  C18 UNL     1      21.751   2.678  50.508  1.00  0.00     0.203 C 
HETATM   22  O1  UNL     1      21.588   3.932  51.137  1.00  0.00    -0.369 OA
HETATM   23  O2  UNL     1      23.359   3.736  49.211  1.00  0.00    -0.381 OA
HETATM   24  C19 UNL     1      22.567   4.783  49.216  1.00  0.00     0.187 C 
HETATM   25  C20 UNL     1      22.359   6.050  49.901  1.00  0.00     0.141 C 
HETATM   26  N3  UNL     1      22.208   6.283  51.335  1.00  0.00    -0.402 N 
HETATM   27  H4  UNL     1      28.129  -0.666  52.348  1.00  0.00     0.161 HD
HETATM   28  H16 UNL     1      21.252   6.548  51.771  1.00  0.00     0.154 HD
ENDROOT
TORSDOF 0
ENDMDL
MODEL 3
REMARK VINA RESULT:      -8.6      2.790      5.975
REMARK  0 active torsions:
REMARK  status: ('A' for Active; 'I' for Inactive)
ROOT
HETATM    1  F1  UNL     1      22.542  -1.485  53.912  1.00  0.00    -0.210 F 
HETATM    2  C1  UNL     1      22.655  -0.179  53.433  1.00  0.00     0.108 C 
HETATM    3  C2  UNL     1      21.472   0.489  53.387  1.00  0.00     0.040 C 
HETATM    4  C3  UNL     1      20.609   1.616  53.127  1.00  0.00     0.019 C 
HETATM    5  C4  UNL     1      20.495   2.866  52.703  1.00  0.00     0.085 C 
HETATM    6  N1  UNL     1      21.479   3.859  52.197  1.00  0.00    -0.374 N 
HETATM    7  C5  UNL     1      22.707   3.298  52.212  1.00  0.00     0.230 C 
HETATM    8  C6  UNL     1      24.108   3.515  52.295  1.00  0.00     0.030 C 
HETATM    9  C7  UNL     1      24.526   2.340  52.905  1.00  0.00    -0.031 C 
HETATM   10  C8  UNL     1      23.956   1.322  52.012  1.00  0.00    -0.003 C 
HETATM   11  C9  UNL     1      23.632   1.622  50.778  1.00  0.00     0.091 C 
HETATM   12  N2  UNL     1      22.597   2.362  51.084  1.00  0.00    -0.257 NA
HETATM   13  C10 UNL     1      23.907   0.233  53.032  1.00  0.00     0.065 C 
HETATM   14  C11 UNL     1      24.771  -0.945  52.561  1.00  0.00     0.070 C 
HETATM   15  C12 UNL     1      26.305  -0.811  53.074  1.00  0.00     0.110 A 
HETATM   16  C13 UNL     1      27.618  -0.336  52.143  1.00  0.00     0.123 A 
HETATM   17  C14 UNL     1      26.755   0.190  52.580  1.00  0.00    -0.001 A 
HETATM   18  C15 UNL     1      26.065   0.602  52.947  1.00  0.00    -0.016 C 
HETATM   19  C16 UNL     1      24.965   1.232  53.553  1.00  0.00     0.061 C 
HETATM   20  C17 UNL     1      25.414   1.035  54.998  1.00  0.00     0.164 C 
HETATM   21  C18 UNL     1      25.276  -0.449  55.362  1.00  0.00     0.203 C 
HETATM   22  O1  UNL     1      26.046  -1.237  54.478  1.00  0.00    -0.369 OA
HETATM   23  O2  UNL     1      26.818   1.230  54.927  1.00  0.00    -0.381 OA
HETATM   24  C19 UNL     1      27.732   0.289  54.929  1.00  0.00     0.187 C 
HETATM   25  C20 UNL     1      28.487  -0.568  54.026  1.00  0.00     0.141 C 
HETATM   26  N3  UNL     1      27.969  -1.465  52.995  1.00  0.00    -0.402 N 
HETATM   27  H4  UNL     1      21.364   4.818  51.869  1.00  0.00     0.161 HD
HETATM   28  H16 UNL     1      27.993  -2.542  53.114  1.00  0.00     0.154 HD
ENDROOT
TORSDOF 0
ENDMDL
MODEL 4
REMARK VINA RESULT:      -8.4      2.770      4.143
REMARK  0 active torsions:
REMARK  status: ('A' for Active; 'I' for Inactive)
ROOT
HETATM    1  F1  UNL     1      25.320   1.355  51.576  1.00  0.00    -0.210 F 
HETATM    2  C1  UNL     1      24.029   1.186  52.079  1.00  0.00     0.108 C 
HETATM    3  C2  UNL     1      23.950   0.268  53.079  1.00  0.00     0.040 C 
HETATM    4  C3  UNL     1      23.285  -0.522  54.087  1.00  0.00     0.019 C 
HETATM    5  C4  UNL     1      22.154  -0.833  54.701  1.00  0.00     0.085 C 
HETATM    6  N1  UNL     1      20.752  -0.359  54.547  1.00  0.00    -0.374 N 
HETATM    7  C5  UNL     1      20.717   0.577  53.575  1.00  0.00     0.230 C 
HETATM    8  C6  UNL     1      20.052   1.719  53.053  1.00  0.00     0.030 C 
HETATM    9  C7  UNL     1      21.104   2.385  52.441  1.00  0.00    -0.031 C 
HETATM   10  C8  UNL     1      21.648   1.341  51.561  1.00  0.00    -0.003 C 
HETATM   11  C9  UNL     1      20.910   0.318  51.205  1.00  0.00     0.091 C 
HETATM   12  N2  UNL     1      20.898  -0.258  52.379  1.00  0.00    -0.257 NA
HETATM   13  C10 UNL     1      23.025   1.911  51.478  1.00  0.00     0.065 C 
HETATM   14  C11 UNL     1      23.353   2.236  50.014  1.00  0.00     0.070 C 
HETATM   15  C12 UNL     1      22.922   3.750  49.619  1.00  0.00     0.110 A 
HETATM   16  C13 UNL     1      21.573   4.188  48.722  1.00  0.00     0.123 A 
HETATM   17  C14 UNL     1      21.727   3.819  49.748  1.00  0.00    -0.001 A 
HETATM   18  C15 UNL     1      21.866   3.535  50.573  1.00  0.00    -0.016 C 
HETATM   19  C16 UNL     1      22.117   3.095  51.884  1.00  0.00     0.061 C 
HETATM   20  C17 UNL     1      22.836   4.352  52.364  1.00  0.00     0.164 C 
HETATM   21  C18 UNL     1      24.214   4.423  51.693  1.00  0.00     0.203 C 
HETATM   22  O1  UNL     1      24.068   4.426  50.288  1.00  0.00    -0.369 OA
HETATM   23  O2  UNL     1      22.109   5.398  51.738  1.00  0.00    -0.381 OA
HETATM   24  C19 UNL     1      22.479   6.069  50.673  1.00  0.00     0.187 C 
HETATM   25  C20 UNL     1      22.382   6.046  49.221  1.00  0.00     0.141 C 
HETATM   26  N3  UNL     1      22.740   4.959  48.313  1.00  0.00    -0.402 N 
HETATM   27  H4  UNL     1      19.893  -0.621  55.030  1.00  0.00     0.161 HD
HETATM   28  H16 UNL     1      23.618   5.014  47.679  1.00  0.00     0.154 HD
ENDROOT
TORSDOF 0
ENDMDL
MODEL 5
REMARK VINA RESULT:      -8.1     10.194     12.406
REMARK  0 active torsions:
REMARK  status: ('A' for Active; 'I' for Inactive)
ROOT
HETATM    1  F1  UNL     1      32.043   8.399  50.497  1.00  0.00    -0.210 F 
HETATM    2  C1  UNL     1      31.287   8.540  49.332  1.00  0.00     0.108 C 
HETATM    3  C2  UNL     1      30.615   9.719  49.258  1.00  0.00     0.040 C 
HETATM    4  C3  UNL     1      29.742  10.697  48.656  1.00  0.00     0.019 C 
HETATM    5  C4  UNL     1      28.966  11.030  47.635  1.00  0.00     0.085 C 
HETATM    6  N1  UNL     1      28.599  10.336  46.372  1.00  0.00    -0.374 N 
HETATM    7  C5  UNL     1      29.229   9.143  46.335  1.00  0.00     0.230 C 
HETATM    8  C6  UNL     1      29.760   8.108  45.521  1.00  0.00     0.030 C 
HETATM    9  C7  UNL     1      30.790   7.637  46.322  1.00  0.00    -0.031 C 
HETATM   10  C8  UNL     1      30.083   7.343  47.576  1.00  0.00    -0.003 C 
HETATM   11  C9  UNL     1      28.787   7.150  47.582  1.00  0.00     0.091 C 
HETATM   12  N2  UNL     1      28.461   8.393  47.340  1.00  0.00    -0.257 NA
HETATM   13  C10 UNL     1      31.278   7.473  48.461  1.00  0.00     0.065 C 
HETATM   14  C11 UNL     1      31.521   6.142  49.186  1.00  0.00     0.070 C 
HETATM   15  C12 UNL     1      32.505   5.165  48.342  1.00  0.00     0.110 A 
HETATM   16  C13 UNL     1      32.033   3.828  47.444  1.00  0.00     0.123 A 
HETATM   17  C14 UNL     1      31.948   4.918  47.304  1.00  0.00    -0.001 A 
HETATM   18  C15 UNL     1      31.898   5.794  47.198  1.00  0.00    -0.016 C 
HETATM   19  C16 UNL     1      31.844   7.190  47.051  1.00  0.00     0.061 C 
HETATM   20  C17 UNL     1      33.343   7.413  46.876  1.00  0.00     0.164 C 
HETATM   21  C18 UNL     1      34.040   7.179  48.223  1.00  0.00     0.203 C 
HETATM   22  O1  UNL     1      33.770   5.872  48.685  1.00  0.00    -0.369 OA
HETATM   23  O2  UNL     1      33.745   6.298  46.096  1.00  0.00    -0.381 OA
HETATM   24  C19 UNL     1      34.356   5.223  46.538  1.00  0.00     0.187 C 
HETATM   25  C20 UNL     1      34.084   3.896  47.070  1.00  0.00     0.141 C 
HETATM   26  N3  UNL     1      33.239   3.539  48.207  1.00  0.00    -0.402 N 
HETATM   27  H4  UNL     1      27.991  10.612  45.600  1.00  0.00     0.161 HD
HETATM   28  H16 UNL     1      33.663   3.201  49.146  1.00  0.00     0.154 HD
ENDROOT
TORSDOF 0
ENDMDL
MODEL 6
REMARK VINA RESULT:      -8.1      2.372      3.674
REMARK  0 active torsions:
REMARK  status: ('A' for Active; 'I' for Inactive)
ROOT
HETATM    1  F1  UNL     1      22.358   1.438  48.156  1.00  0.00    -0.210 F 
HETATM    2  C1  UNL     1      22.629   2.308  49.213  1.00  0.00     0.108 C 
HETATM    3  C2  UNL     1      23.645   3.174  48.960  1.00  0.00     0.040 C 
HETATM    4  C3  UNL     1      24.559   4.250  49.257  1.00  0.00     0.019 C 
HETATM    5  C4  UNL     1      24.976   5.158  50.127  1.00  0.00     0.085 C 
HETATM    6  N1  UNL     1      24.546   5.514  51.506  1.00  0.00    -0.374 N 
HETATM    7  C5  UNL     1      23.519   4.713  51.859  1.00  0.00     0.230 C 
HETATM    8  C6  UNL     1      22.358   4.560  52.663  1.00  0.00     0.030 C 
HETATM    9  C7  UNL     1      21.591   3.718  51.870  1.00  0.00    -0.031 C 
HETATM   10  C8  UNL     1      22.518   2.602  51.635  1.00  0.00    -0.003 C 
HETATM   11  C9  UNL     1      23.529   2.393  52.442  1.00  0.00     0.091 C 
HETATM   12  N2  UNL     1      24.221   3.439  52.070  1.00  0.00    -0.257 NA
HETATM   13  C10 UNL     1      21.888   2.143  50.362  1.00  0.00     0.065 C 
HETATM   14  C11 UNL     1      21.404   0.696  50.528  1.00  0.00     0.070 C 
HETATM   15  C12 UNL     1      19.876   0.628  51.072  1.00  0.00     0.110 A 
HETATM   16  C13 UNL     1      19.404   0.265  52.641  1.00  0.00     0.123 A 
HETATM   17  C14 UNL     1      19.868   1.140  52.161  1.00  0.00    -0.001 A 
HETATM   18  C15 UNL     1      20.228   1.842  51.761  1.00  0.00    -0.016 C 
HETATM   19  C16 UNL     1      20.789   2.946  51.096  1.00  0.00     0.061 C 
HETATM   20  C17 UNL     1      19.559   3.303  50.268  1.00  0.00     0.164 C 
HETATM   21  C18 UNL     1      19.364   2.237  49.182  1.00  0.00     0.203 C 
HETATM   22  O1  UNL     1      19.225   0.963  49.775  1.00  0.00    -0.369 OA
HETATM   23  O2  UNL     1      18.485   3.061  51.165  1.00  0.00    -0.381 OA
HETATM   24  C19 UNL     1      17.695   2.014  51.163  1.00  0.00     0.187 C 
HETATM   25  C20 UNL     1      17.575   0.676  51.725  1.00  0.00     0.141 C 
HETATM   26  N3  UNL     1      18.550  -0.412  51.674  1.00  0.00    -0.402 N 
HETATM   27  H4  UNL     1      24.890   6.217  52.161  1.00  0.00     0.161 HD
HETATM   28  H16 UNL     1      18.396  -1.283  51.049  1.00  0.00     0.154 HD
ENDROOT
TORSDOF 0
ENDMDL
MODEL 7
REMARK VINA RESULT:      -8.0      2.707      5.177
REMARK  0 active torsions:
REMARK  status: ('A' for Active; 'I' for Inactive)
ROOT
HETATM    1  F1  UNL     1      23.330   1.389  53.005  1.00  0.00    -0.210 F 
HETATM    2  C1  UNL     1      22.374   1.578  52.006  1.00  0.00     0.108 C 
HETATM    3  C2  UNL     1      21.288   0.770  52.131  1.00  0.00     0.040 C 
HETATM    4  C3  UNL     1      20.001   0.234  51.760  1.00  0.00     0.019 C 
HETATM    5  C4  UNL     1      18.979   0.252  50.918  1.00  0.00     0.085 C 
HETATM    6  N1  UNL     1      18.685   1.051  49.698  1.00  0.00    -0.374 N 
HETATM    7  C5  UNL     1      19.706   1.906  49.485  1.00  0.00     0.230 C 
HETATM    8  C6  UNL     1      20.118   3.145  48.923  1.00  0.00     0.030 C 
HETATM    9  C7  UNL     1      21.162   3.490  49.769  1.00  0.00    -0.031 C 
HETATM   10  C8  UNL     1      22.011   2.292  49.699  1.00  0.00    -0.003 C 
HETATM   11  C9  UNL     1      21.918   1.467  48.685  1.00  0.00     0.091 C 
HETATM   12  N2  UNL     1      20.747   0.982  49.010  1.00  0.00    -0.257 NA
HETATM   13  C10 UNL     1      22.672   2.494  51.022  1.00  0.00     0.065 C 
HETATM   14  C11 UNL     1      24.187   2.639  50.817  1.00  0.00     0.070 C 
HETATM   15  C12 UNL     1      24.621   4.186  50.592  1.00  0.00     0.110 A 
HETATM   16  C13 UNL     1      25.024   4.894  49.124  1.00  0.00     0.123 A 
HETATM   17  C14 UNL     1      24.081   4.560  49.583  1.00  0.00    -0.001 A 
HETATM   18  C15 UNL     1      23.329   4.300  49.968  1.00  0.00    -0.016 C 
HETATM   19  C16 UNL     1      22.148   3.889  50.611  1.00  0.00     0.061 C 
HETATM   20  C17 UNL     1      22.155   4.953  51.704  1.00  0.00     0.164 C 
HETATM   21  C18 UNL     1      23.283   4.637  52.696  1.00  0.00     0.203 C 
HETATM   22  O1  UNL     1      24.522   4.593  52.021  1.00  0.00    -0.369 OA
HETATM   23  O2  UNL     1      22.625   6.108  51.026  1.00  0.00    -0.381 OA
HETATM   24  C19 UNL     1      23.840   6.602  51.085  1.00  0.00     0.187 C 
HETATM   25  C20 UNL     1      25.137   6.517  50.430  1.00  0.00     0.141 C 
HETATM   26  N3  UNL     1      25.939   5.322  50.174  1.00  0.00    -0.402 N 
HETATM   27  H4  UNL     1      17.889   1.041  49.059  1.00  0.00     0.161 HD
HETATM   28  H16 UNL     1      26.848   5.118  50.728  1.00  0.00     0.154 HD
ENDROOT
TORSDOF 0
ENDMDL
MODEL 8
REMARK VINA RESULT:      -8.0     10.167     11.495
REMARK  0 active torsions:
REMARK  status: ('A' for Active; 'I' for Inactive)
ROOT
HETATM    1  F1  UNL     1      29.557   4.682  47.860  1.00  0.00    -0.210 F 
HETATM    2  C1  UNL     1      30.847   5.083  47.507  1.00  0.00     0.108 C 
HETATM    3  C2  UNL     1      31.573   4.108  46.900  1.00  0.00     0.040 C 
HETATM    4  C3  UNL     1      32.738   3.541  46.265  1.00  0.00     0.019 C 
HETATM    5  C4  UNL     1      33.984   3.713  45.851  1.00  0.00     0.085 C 
HETATM    6  N1  UNL     1      34.915   4.872  45.890  1.00  0.00    -0.374 N 
HETATM    7  C5  UNL     1      34.284   5.914  46.470  1.00  0.00     0.230 C 
HETATM    8  C6  UNL     1      34.188   7.326  46.586  1.00  0.00     0.030 C 
HETATM    9  C7  UNL     1      32.840   7.482  46.876  1.00  0.00    -0.031 C 
HETATM   10  C8  UNL     1      32.683   6.601  48.043  1.00  0.00    -0.003 C 
HETATM   11  C9  UNL     1      33.721   6.264  48.769  1.00  0.00     0.091 C 
HETATM   12  N2  UNL     1      34.265   5.479  47.875  1.00  0.00    -0.257 NA
HETATM   13  C10 UNL     1      31.221   6.361  47.859  1.00  0.00     0.065 C 
HETATM   14  C11 UNL     1      30.464   6.858  49.098  1.00  0.00     0.070 C 
HETATM   15  C12 UNL     1      30.020   8.412  48.953  1.00  0.00     0.110 A 
HETATM   16  C13 UNL     1      30.760   9.722  49.697  1.00  0.00     0.123 A 
HETATM   17  C14 UNL     1      31.031   9.059  48.861  1.00  0.00    -0.001 A 
HETATM   18  C15 UNL     1      31.231   8.528  48.183  1.00  0.00    -0.016 C 
HETATM   19  C16 UNL     1      31.517   7.677  47.102  1.00  0.00     0.061 C 
HETATM   20  C17 UNL     1      30.411   8.177  46.178  1.00  0.00     0.164 C 
HETATM   21  C18 UNL     1      29.057   7.699  46.719  1.00  0.00     0.203 C 
HETATM   22  O1  UNL     1      28.870   8.169  48.038  1.00  0.00    -0.369 OA
HETATM   23  O2  UNL     1      30.392   9.575  46.428  1.00  0.00    -0.381 OA
HETATM   24  C19 UNL     1      29.521  10.218  47.170  1.00  0.00     0.187 C 
HETATM   25  C20 UNL     1      29.295  10.654  48.540  1.00  0.00     0.141 C 
HETATM   26  N3  UNL     1      29.309   9.844  49.756  1.00  0.00    -0.402 N 
HETATM   27  H4  UNL     1      35.878   4.977  45.569  1.00  0.00     0.161 HD
HETATM   28  H16 UNL     1      28.397   9.604  50.290  1.00  0.00     0.154 HD
ENDROOT
TORSDOF 0
ENDMDL
MODEL 9
REMARK VINA RESULT:      -7.9      2.569      4.403
REMARK  0 active torsions:
REMARK  status: ('A' for Active; 'I' for Inactive)
ROOT
HETATM    1  F1  UNL     1      21.913   1.271  48.688  1.00  0.00    -0.210 F 
HETATM    2  C1  UNL     1      22.389   2.336  49.454  1.00  0.00     0.108 C 
HETATM    3  C2  UNL     1      22.581   3.478  48.741  1.00  0.00     0.040 C 
HETATM    4  C3  UNL     1      22.952   4.858  48.548  1.00  0.00     0.019 C 
HETATM    5  C4  UNL     1      23.400   5.984  49.082  1.00  0.00     0.085 C 
HETATM    6  N1  UNL     1      23.798   6.362  50.465  1.00  0.00    -0.374 N 
HETATM    7  C5  UNL     1      23.633   5.292  51.270  1.00  0.00     0.230 C 
HETATM    8  C6  UNL     1      23.389   4.829  52.591  1.00  0.00     0.030 C 
HETATM    9  C7  UNL     1      22.722   3.638  52.339  1.00  0.00    -0.031 C 
HETATM   10  C8  UNL     1      23.665   2.952  51.444  1.00  0.00    -0.003 C 
HETATM   11  C9  UNL     1      24.931   3.289  51.424  1.00  0.00     0.091 C 
HETATM   12  N2  UNL     1      24.756   4.447  50.841  1.00  0.00    -0.257 NA
HETATM   13  C10 UNL     1      22.646   2.083  50.784  1.00  0.00     0.065 C 
HETATM   14  C11 UNL     1      23.000   0.610  51.027  1.00  0.00     0.070 C 
HETATM   15  C12 UNL     1      22.312   0.039  52.381  1.00  0.00     0.110 A 
HETATM   16  C13 UNL     1      23.088  -0.222  53.847  1.00  0.00     0.123 A 
HETATM   17  C14 UNL     1      22.761   0.676  53.298  1.00  0.00    -0.001 A 
HETATM   18  C15 UNL     1      22.481   1.387  52.855  1.00  0.00    -0.016 C 
HETATM   19  C16 UNL     1      22.015   2.499  52.133  1.00  0.00     0.061 C 
HETATM   20  C17 UNL     1      20.526   2.208  52.290  1.00  0.00     0.164 C 
HETATM   21  C18 UNL     1      20.164   0.990  51.429  1.00  0.00     0.203 C 
HETATM   22  O1  UNL     1      20.944  -0.123  51.815  1.00  0.00    -0.369 OA
HETATM   23  O2  UNL     1      20.433   1.714  53.618  1.00  0.00    -0.381 OA
HETATM   24  C19 UNL     1      20.315   0.455  53.970  1.00  0.00     0.187 C 
HETATM   25  C20 UNL     1      21.114  -0.712  54.311  1.00  0.00     0.141 C 
HETATM   26  N3  UNL     1      22.189  -1.325  53.534  1.00  0.00    -0.402 N 
HETATM   27  H4  UNL     1      24.147   7.239  50.852  1.00  0.00     0.161 HD
HETATM   28  H16 UNL     1      22.057  -2.276  53.032  1.00  0.00     0.154 HD
ENDROOT
TORSDOF 0
ENDMDL
