MODEL 1
REMARK VINA RESULT:      -7.9      0.000      0.000
REMARK  10 active torsions:
REMARK  status: ('A' for Active; 'I' for Inactive)
REMARK    1  A    between atoms: C2_2  and  N1_3 
REMARK    2  A    between atoms: N1_3  and  C3_4 
REMARK    3  A    between atoms: N1_3  and  C5_6 
REMARK    4  A    between atoms: C5_6  and  C6_7 
REMARK    5  A    between atoms: C7_8  and  C8_9 
REMARK       I    between atoms: C8_9  and  N2_11 
REMARK    6  A    between atoms: N2_11  and  C9_12 
REMARK    7  A    between atoms: C13_16  and  C15_18 
REMARK    8  A    between atoms: C15_18  and  N3_19 
REMARK    9  A    between atoms: N3_19  and  C16_20 
REMARK   10  A    between atoms: C22_29  and  S1_30 
ROOT
HETATM    1  C9  UNL     1      25.283   5.929  50.132  1.00  0.00     0.033 A 
HETATM    2  C10 UNL     1      23.924   5.985  49.960  1.00  0.00     0.027 A 
HETATM    3  C11 UNL     1      23.480   7.115  49.233  1.00  0.00    -0.001 A 
HETATM    4  C12 UNL     1      23.826   8.293  48.558  1.00  0.00     0.070 A 
HETATM    5  C13 UNL     1      25.542   8.122  48.832  1.00  0.00     0.100 A 
HETATM    6  C14 UNL     1      26.082   6.902  49.625  1.00  0.00     0.029 A 
HETATM    7  S1  UNL     1      24.939   9.129  48.168  1.00  0.00    -0.131 SA
ENDROOT
BRANCH   1   8
HETATM    8  N2  UNL     1      25.491   4.781  50.849  1.00  0.00    -0.317 N 
HETATM    9  C8  UNL     1      26.223   3.766  50.219  1.00  0.00     0.301 C 
HETATM   10  O1  UNL     1      26.682   3.848  49.052  1.00  0.00    -0.258 OA
HETATM   11  H13 UNL     1      25.080   4.779  51.805  1.00  0.00     0.170 HD
BRANCH   9  12
HETATM   12  C7  UNL     1      26.463   2.543  50.974  1.00  0.00    -0.004 C 
HETATM   13  C6  UNL     1      26.648   1.523  51.584  1.00  0.00    -0.077 C 
BRANCH  13  14
HETATM   14  C5  UNL     1      26.865   0.256  52.327  1.00  0.00     0.212 C 
BRANCH  14  15
HETATM   15  N1  UNL     1      27.453   0.594  53.573  1.00  0.00    -0.403 N 
BRANCH  15  16
HETATM   16  C2  UNL     1      26.718   0.199  54.727  1.00  0.00     0.113 C 
HETATM   17  C1  UNL     1      25.423  -0.533  54.422  1.00  0.00     0.026 C 
ENDBRANCH  15  16
BRANCH  15  18
HETATM   18  C3  UNL     1      28.871   0.532  53.663  1.00  0.00     0.113 C 
HETATM   19  C4  UNL     1      29.316  -0.907  53.465  1.00  0.00     0.026 C 
ENDBRANCH  15  18
ENDBRANCH  14  15
ENDBRANCH  13  14
ENDBRANCH   9  12
ENDBRANCH   1   8
BRANCH   5  20
HETATM   20  C15 UNL     1      27.147   8.795  48.589  1.00  0.00     0.199 A 
HETATM   21  N4  UNL     1      27.373   9.540  50.284  1.00  0.00    -0.242 NA
HETATM   22  C22 UNL     1      26.449   9.074  50.212  1.00  0.00     0.114 A 
BRANCH  20  23
HETATM   23  N3  UNL     1      27.957   8.751  47.396  1.00  0.00    -0.355 N 
HETATM   24  H17 UNL     1      27.504   9.446  46.785  1.00  0.00     0.162 HD
BRANCH  23  25
HETATM   25  C16 UNL     1      28.914   7.751  47.816  1.00  0.00     0.032 A 
HETATM   26  C17 UNL     1      28.667   6.399  47.760  1.00  0.00     0.032 A 
HETATM   27  C18 UNL     1      29.672   5.570  48.186  1.00  0.00     0.046 A 
HETATM   28  C19 UNL     1      30.834   6.134  48.628  1.00  0.00     0.138 A 
HETATM   29  F1  UNL     1      31.810   5.284  49.039  1.00  0.00    -0.204 F 
HETATM   30  C20 UNL     1      31.128   7.466  48.702  1.00  0.00     0.074 A 
HETATM   31 CL1  UNL     1      32.637   8.134  49.281  1.00  0.00    -0.081 Cl
HETATM   32  C21 UNL     1      30.112   8.315  48.272  1.00  0.00     0.056 A 
ENDBRANCH  23  25
ENDBRANCH  20  23
ENDBRANCH   5  20
TORSDOF 10
ENDMDL
MODEL 2
REMARK VINA RESULT:      -7.9      3.986      7.468
REMARK  10 active torsions:
REMARK  status: ('A' for Active; 'I' for Inactive)
REMARK    1  A    between atoms: C2_2  and  N1_3 
REMARK    2  A    between atoms: N1_3  and  C3_4 
REMARK    3  A    between atoms: N1_3  and  C5_6 
REMARK    4  A    between atoms: C5_6  and  C6_7 
REMARK    5  A    between atoms: C7_8  and  C8_9 
REMARK       I    between atoms: C8_9  and  N2_11 
REMARK    6  A    between atoms: N2_11  and  C9_12 
REMARK    7  A    between atoms: C13_16  and  C15_18 
REMARK    8  A    between atoms: C15_18  and  N3_19 
REMARK    9  A    between atoms: N3_19  and  C16_20 
REMARK   10  A    between atoms: C22_29  and  S1_30 
ROOT
HETATM    1  C9  UNL     1      26.210   6.396  49.296  1.00  0.00     0.033 A 
HETATM    2  C10 UNL     1      25.572   7.488  48.768  1.00  0.00     0.027 A 
HETATM    3  C11 UNL     1      24.187   7.541  49.051  1.00  0.00    -0.001 A 
HETATM    4  C12 UNL     1      23.086   6.936  49.674  1.00  0.00     0.070 A 
HETATM    5  C13 UNL     1      23.997   5.584  50.302  1.00  0.00     0.100 A 
HETATM    6  C14 UNL     1      25.519   5.478  50.020  1.00  0.00     0.029 A 
HETATM    7  S1  UNL     1      22.675   5.799  50.466  1.00  0.00    -0.131 SA
ENDROOT
BRANCH   1   8
HETATM    8  N2  UNL     1      27.515   6.538  48.907  1.00  0.00    -0.317 N 
HETATM    9  C8  UNL     1      28.202   5.368  48.558  1.00  0.00     0.301 C 
HETATM   10  O1  UNL     1      27.697   4.218  48.588  1.00  0.00    -0.258 OA
HETATM   11  H13 UNL     1      27.870   7.517  48.909  1.00  0.00     0.170 HD
BRANCH   9  12
HETATM   12  C7  UNL     1      29.589   5.506  48.130  1.00  0.00    -0.004 C 
HETATM   13  C6  UNL     1      30.735   5.637  47.790  1.00  0.00    -0.077 C 
BRANCH  13  14
HETATM   14  C5  UNL     1      32.151   5.814  47.381  1.00  0.00     0.212 C 
BRANCH  14  15
HETATM   15  N1  UNL     1      32.761   4.534  47.415  1.00  0.00    -0.403 N 
BRANCH  15  16
HETATM   16  C2  UNL     1      32.377   3.640  46.375  1.00  0.00     0.113 C 
HETATM   17  C1  UNL     1      32.360   2.178  46.782  1.00  0.00     0.026 C 
ENDBRANCH  15  16
BRANCH  15  18
HETATM   18  C3  UNL     1      34.114   4.468  47.850  1.00  0.00     0.113 C 
HETATM   19  C4  UNL     1      34.693   5.872  47.878  1.00  0.00     0.026 C 
ENDBRANCH  15  18
ENDBRANCH  14  15
ENDBRANCH  13  14
ENDBRANCH   9  12
ENDBRANCH   1   8
BRANCH   5  20
HETATM   20  C15 UNL     1      23.967   4.092  51.229  1.00  0.00     0.199 A 
HETATM   21  N4  UNL     1      23.568   2.927  49.827  1.00  0.00    -0.242 NA
HETATM   22  C22 UNL     1      23.633   3.903  49.482  1.00  0.00     0.114 A 
BRANCH  20  23
HETATM   23  N3  UNL     1      24.179   3.922  52.645  1.00  0.00    -0.355 N 
HETATM   24  H17 UNL     1      23.856   4.820  53.035  1.00  0.00     0.162 HD
BRANCH  23  25
HETATM   25  C16 UNL     1      24.712   2.577  52.629  1.00  0.00     0.032 A 
HETATM   26  C17 UNL     1      25.999   2.280  52.248  1.00  0.00     0.032 A 
HETATM   27  C18 UNL     1      26.366   0.960  52.290  1.00  0.00     0.046 A 
HETATM   28  C19 UNL     1      25.443   0.043  52.703  1.00  0.00     0.138 A 
HETATM   29  F1  UNL     1      25.841  -1.254  52.736  1.00  0.00    -0.204 F 
HETATM   30  C20 UNL     1      24.157   0.287  53.091  1.00  0.00     0.074 A 
HETATM   31 CL1  UNL     1      23.013  -0.930  53.610  1.00  0.00    -0.081 Cl
HETATM   32  C21 UNL     1      23.775   1.626  53.050  1.00  0.00     0.056 A 
ENDBRANCH  23  25
ENDBRANCH  20  23
ENDBRANCH   5  20
TORSDOF 10
ENDMDL
MODEL 3
REMARK VINA RESULT:      -7.9      3.835      7.606
REMARK  10 active torsions:
REMARK  status: ('A' for Active; 'I' for Inactive)
REMARK    1  A    between atoms: C2_2  and  N1_3 
REMARK    2  A    between atoms: N1_3  and  C3_4 
REMARK    3  A    between atoms: N1_3  and  C5_6 
REMARK    4  A    between atoms: C5_6  and  C6_7 
REMARK    5  A    between atoms: C7_8  and  C8_9 
REMARK       I    between atoms: C8_9  and  N2_11 
REMARK    6  A    between atoms: N2_11  and  C9_12 
REMARK    7  A    between atoms: C13_16  and  C15_18 
REMARK    8  A    between atoms: C15_18  and  N3_19 
REMARK    9  A    between atoms: N3_19  and  C16_20 
REMARK   10  A    between atoms: C22_29  and  S1_30 
ROOT
HETATM    1  C9  UNL     1      25.297   5.371  49.686  1.00  0.00     0.033 A 
HETATM    2  C10 UNL     1      24.420   6.227  49.071  1.00  0.00     0.027 A 
HETATM    3  C11 UNL     1      23.060   5.959  49.349  1.00  0.00    -0.001 A 
HETATM    4  C12 UNL     1      22.129   5.151  50.018  1.00  0.00     0.070 A 
HETATM    5  C13 UNL     1      23.331   4.120  50.753  1.00  0.00     0.100 A 
HETATM    6  C14 UNL     1      24.838   4.370  50.481  1.00  0.00     0.029 A 
HETATM    7  S1  UNL     1      21.994   4.014  50.899  1.00  0.00    -0.131 SA
ENDROOT
BRANCH   1   8
HETATM    8  N2  UNL     1      26.534   5.800  49.287  1.00  0.00    -0.317 N 
HETATM    9  C8  UNL     1      27.442   4.816  48.873  1.00  0.00     0.301 C 
HETATM   10  O1  UNL     1      27.189   3.586  48.855  1.00  0.00    -0.258 OA
HETATM   11  H13 UNL     1      26.677   6.830  49.332  1.00  0.00     0.170 HD
BRANCH   9  12
HETATM   12  C7  UNL     1      28.760   5.260  48.435  1.00  0.00    -0.004 C 
HETATM   13  C6  UNL     1      29.838   5.642  48.062  1.00  0.00    -0.077 C 
BRANCH  13  14
HETATM   14  C5  UNL     1      31.160   6.126  47.593  1.00  0.00     0.212 C 
BRANCH  14  15
HETATM   15  N1  UNL     1      32.149   5.348  48.247  1.00  0.00    -0.403 N 
BRANCH  15  16
HETATM   16  C2  UNL     1      32.404   4.069  47.674  1.00  0.00     0.113 C 
HETATM   17  C1  UNL     1      32.577   4.084  46.165  1.00  0.00     0.026 C 
ENDBRANCH  15  16
BRANCH  15  18
HETATM   18  C3  UNL     1      33.264   6.038  48.796  1.00  0.00     0.113 C 
HETATM   19  C4  UNL     1      33.057   7.533  48.618  1.00  0.00     0.026 C 
ENDBRANCH  15  18
ENDBRANCH  14  15
ENDBRANCH  13  14
ENDBRANCH   9  12
ENDBRANCH   1   8
BRANCH   5  20
HETATM   20  C15 UNL     1      23.651   2.743  51.797  1.00  0.00     0.199 A 
HETATM   21  N4  UNL     1      23.931   3.683  53.384  1.00  0.00    -0.242 NA
HETATM   22  C22 UNL     1      23.719   4.336  52.606  1.00  0.00     0.114 A 
BRANCH  20  23
HETATM   23  N3  UNL     1      23.684   1.346  51.439  1.00  0.00    -0.355 N 
HETATM   24  H17 UNL     1      22.885   1.255  50.794  1.00  0.00     0.162 HD
BRANCH  23  25
HETATM   25  C16 UNL     1      24.837   0.946  52.215  1.00  0.00     0.032 A 
HETATM   26  C17 UNL     1      26.131   1.227  51.845  1.00  0.00     0.032 A 
HETATM   27  C18 UNL     1      27.123   0.791  52.684  1.00  0.00     0.046 A 
HETATM   28  C19 UNL     1      26.763   0.117  53.816  1.00  0.00     0.138 A 
HETATM   29  F1  UNL     1      27.770  -0.298  54.627  1.00  0.00    -0.204 F 
HETATM   30  C20 UNL     1      25.497  -0.185  54.228  1.00  0.00     0.074 A 
HETATM   31 CL1  UNL     1      25.094  -1.055  55.691  1.00  0.00    -0.081 Cl
HETATM   32  C21 UNL     1      24.484   0.254  53.380  1.00  0.00     0.056 A 
ENDBRANCH  23  25
ENDBRANCH  20  23
ENDBRANCH   5  20
TORSDOF 10
ENDMDL
MODEL 4
REMARK VINA RESULT:      -7.8      3.271      7.202
REMARK  10 active torsions:
REMARK  status: ('A' for Active; 'I' for Inactive)
REMARK    1  A    between atoms: C2_2  and  N1_3 
REMARK    2  A    between atoms: N1_3  and  C3_4 
REMARK    3  A    between atoms: N1_3  and  C5_6 
REMARK    4  A    between atoms: C5_6  and  C6_7 
REMARK    5  A    between atoms: C7_8  and  C8_9 
REMARK       I    between atoms: C8_9  and  N2_11 
REMARK    6  A    between atoms: N2_11  and  C9_12 
REMARK    7  A    between atoms: C13_16  and  C15_18 
REMARK    8  A    between atoms: C15_18  and  N3_19 
REMARK    9  A    between atoms: N3_19  and  C16_20 
REMARK   10  A    between atoms: C22_29  and  S1_30 
ROOT
HETATM    1  C9  UNL     1      25.106   5.509  50.384  1.00  0.00     0.033 A 
HETATM    2  C10 UNL     1      24.309   6.609  50.200  1.00  0.00     0.027 A 
HETATM    3  C11 UNL     1      22.981   6.445  50.662  1.00  0.00    -0.001 A 
HETATM    4  C12 UNL     1      22.039   5.602  51.267  1.00  0.00     0.070 A 
HETATM    5  C13 UNL     1      23.140   4.260  51.455  1.00  0.00     0.100 A 
HETATM    6  C14 UNL     1      24.607   4.387  50.965  1.00  0.00     0.029 A 
HETATM    7  S1  UNL     1      21.844   4.285  51.830  1.00  0.00    -0.131 SA
ENDROOT
BRANCH   1   8
HETATM    8  N2  UNL     1      26.322   5.876  49.875  1.00  0.00    -0.317 N 
HETATM    9  C8  UNL     1      27.006   4.917  49.116  1.00  0.00     0.301 C 
HETATM   10  O1  UNL     1      26.574   3.760  48.889  1.00  0.00    -0.258 OA
HETATM   11  H13 UNL     1      26.620   6.847  50.106  1.00  0.00     0.170 HD
BRANCH   9  12
HETATM   12  C7  UNL     1      28.297   5.298  48.558  1.00  0.00    -0.004 C 
HETATM   13  C6  UNL     1      29.367   5.623  48.115  1.00  0.00    -0.077 C 
BRANCH  13  14
HETATM   14  C5  UNL     1      30.691   6.033  47.584  1.00  0.00     0.212 C 
BRANCH  14  15
HETATM   15  N1  UNL     1      31.655   5.141  48.121  1.00  0.00    -0.403 N 
BRANCH  15  16
HETATM   16  C2  UNL     1      31.994   4.032  47.294  1.00  0.00     0.113 C 
HETATM   17  C1  UNL     1      33.429   3.560  47.442  1.00  0.00     0.026 C 
ENDBRANCH  15  16
BRANCH  15  18
HETATM   18  C3  UNL     1      32.702   5.705  48.900  1.00  0.00     0.113 C 
HETATM   19  C4  UNL     1      32.927   7.142  48.461  1.00  0.00     0.026 C 
ENDBRANCH  15  18
ENDBRANCH  14  15
ENDBRANCH  13  14
ENDBRANCH   9  12
ENDBRANCH   1   8
BRANCH   5  20
HETATM   20  C15 UNL     1      23.371   2.612  52.019  1.00  0.00     0.199 A 
HETATM   21  N4  UNL     1      23.218   1.753  50.370  1.00  0.00    -0.242 NA
HETATM   22  C22 UNL     1      23.108   2.778  50.258  1.00  0.00     0.114 A 
BRANCH  20  23
HETATM   23  N3  UNL     1      23.586   2.157  53.371  1.00  0.00    -0.355 N 
HETATM   24  H17 UNL     1      22.770   2.537  53.873  1.00  0.00     0.162 HD
BRANCH  23  25
HETATM   25  C16 UNL     1      24.825   1.439  53.168  1.00  0.00     0.032 A 
HETATM   26  C17 UNL     1      24.879   0.132  52.743  1.00  0.00     0.032 A 
HETATM   27  C18 UNL     1      26.126  -0.416  52.589  1.00  0.00     0.046 A 
HETATM   28  C19 UNL     1      27.214   0.363  52.862  1.00  0.00     0.138 A 
HETATM   29  F1  UNL     1      28.434  -0.211  52.695  1.00  0.00    -0.204 F 
HETATM   30  C20 UNL     1      27.213   1.661  53.284  1.00  0.00     0.074 A 
HETATM   31 CL1  UNL     1      28.642   2.612  53.621  1.00  0.00    -0.081 Cl
HETATM   32  C21 UNL     1      25.950   2.225  53.444  1.00  0.00     0.056 A 
ENDBRANCH  23  25
ENDBRANCH  20  23
ENDBRANCH   5  20
TORSDOF 10
ENDMDL
MODEL 5
REMARK VINA RESULT:      -7.8      6.589      9.661
REMARK  10 active torsions:
REMARK  status: ('A' for Active; 'I' for Inactive)
REMARK    1  A    between atoms: C2_2  and  N1_3 
REMARK    2  A    between atoms: N1_3  and  C3_4 
REMARK    3  A    between atoms: N1_3  and  C5_6 
REMARK    4  A    between atoms: C5_6  and  C6_7 
REMARK    5  A    between atoms: C7_8  and  C8_9 
REMARK       I    between atoms: C8_9  and  N2_11 
REMARK    6  A    between atoms: N2_11  and  C9_12 
REMARK    7  A    between atoms: C13_16  and  C15_18 
REMARK    8  A    between atoms: C15_18  and  N3_19 
REMARK    9  A    between atoms: N3_19  and  C16_20 
REMARK   10  A    between atoms: C22_29  and  S1_30 
ROOT
HETATM    1  C9  UNL     1      22.944  -0.743  53.763  1.00  0.00     0.033 A 
HETATM    2  C10 UNL     1      23.041  -1.431  54.945  1.00  0.00     0.027 A 
HETATM    3  C11 UNL     1      24.272  -1.253  55.618  1.00  0.00    -0.001 A 
HETATM    4  C12 UNL     1      25.536  -0.648  55.624  1.00  0.00     0.070 A 
HETATM    5  C13 UNL     1      25.307   0.187  54.108  1.00  0.00     0.100 A 
HETATM    6  C14 UNL     1      23.975   0.026  53.328  1.00  0.00     0.029 A 
HETATM    7  S1  UNL     1      26.410   0.233  54.884  1.00  0.00    -0.131 SA
ENDROOT
BRANCH   1   8
HETATM    8  N2  UNL     1      21.699  -1.052  53.286  1.00  0.00    -0.317 N 
HETATM    9  C8  UNL     1      20.644  -0.221  53.686  1.00  0.00     0.301 C 
HETATM   10  O1  UNL     1      20.776   0.767  54.451  1.00  0.00    -0.258 OA
HETATM   11  H13 UNL     1      21.661  -1.885  52.662  1.00  0.00     0.170 HD
BRANCH   9  12
HETATM   12  C7  UNL     1      19.314  -0.531  53.176  1.00  0.00    -0.004 C 
HETATM   13  C6  UNL     1      18.223  -0.807  52.752  1.00  0.00    -0.077 C 
BRANCH  13  14
HETATM   14  C5  UNL     1      16.882  -1.163  52.225  1.00  0.00     0.212 C 
BRANCH  14  15
HETATM   15  N1  UNL     1      16.447  -2.317  52.928  1.00  0.00    -0.403 N 
BRANCH  15  16
HETATM   16  C2  UNL     1      15.258  -2.926  52.434  1.00  0.00     0.113 C 
HETATM   17  C1  UNL     1      14.750  -2.337  51.130  1.00  0.00     0.026 C 
ENDBRANCH  15  16
BRANCH  15  18
HETATM   18  C3  UNL     1      17.451  -3.187  53.437  1.00  0.00     0.113 C 
HETATM   19  C4  UNL     1      16.863  -4.579  53.597  1.00  0.00     0.026 C 
ENDBRANCH  15  18
ENDBRANCH  14  15
ENDBRANCH  13  14
ENDBRANCH   9  12
ENDBRANCH   1   8
BRANCH   5  20
HETATM   20  C15 UNL     1      25.992   1.267  52.903  1.00  0.00     0.199 A 
HETATM   21  N4  UNL     1      26.649  -0.032  51.737  1.00  0.00    -0.242 NA
HETATM   22  C22 UNL     1      26.187  -0.475  52.553  1.00  0.00     0.114 A 
BRANCH  20  23
HETATM   23  N3  UNL     1      26.011   2.709  52.911  1.00  0.00    -0.355 N 
HETATM   24  H17 UNL     1      26.737   2.926  53.609  1.00  0.00     0.162 HD
BRANCH  23  25
HETATM   25  C16 UNL     1      24.989   2.949  51.915  1.00  0.00     0.032 A 
HETATM   26  C17 UNL     1      25.232   2.919  50.562  1.00  0.00     0.032 A 
HETATM   27  C18 UNL     1      24.164   3.159  49.737  1.00  0.00     0.046 A 
HETATM   28  C19 UNL     1      22.948   3.406  50.308  1.00  0.00     0.138 A 
HETATM   29  F1  UNL     1      21.911   3.635  49.462  1.00  0.00    -0.204 F 
HETATM   30  C20 UNL     1      22.655   3.445  51.641  1.00  0.00     0.074 A 
HETATM   31 CL1  UNL     1      21.076   3.769  52.317  1.00  0.00    -0.081 Cl
HETATM   32  C21 UNL     1      23.736   3.204  52.485  1.00  0.00     0.056 A 
ENDBRANCH  23  25
ENDBRANCH  20  23
ENDBRANCH   5  20
TORSDOF 10
ENDMDL
MODEL 6
REMARK VINA RESULT:      -7.7      6.331      9.421
REMARK  10 active torsions:
REMARK  status: ('A' for Active; 'I' for Inactive)
REMARK    1  A    between atoms: C2_2  and  N1_3 
REMARK    2  A    between atoms: N1_3  and  C3_4 
REMARK    3  A    between atoms: N1_3  and  C5_6 
REMARK    4  A    between atoms: C5_6  and  C6_7 
REMARK    5  A    between atoms: C7_8  and  C8_9 
REMARK       I    between atoms: C8_9  and  N2_11 
REMARK    6  A    between atoms: N2_11  and  C9_12 
REMARK    7  A    between atoms: C13_16  and  C15_18 
REMARK    8  A    between atoms: C15_18  and  N3_19 
REMARK    9  A    between atoms: N3_19  and  C16_20 
REMARK   10  A    between atoms: C22_29  and  S1_30 
ROOT
HETATM    1  C9  UNL     1      22.782  -0.611  53.373  1.00  0.00     0.033 A 
HETATM    2  C10 UNL     1      22.598  -1.313  54.536  1.00  0.00     0.027 A 
HETATM    3  C11 UNL     1      23.716  -1.299  55.402  1.00  0.00    -0.001 A 
HETATM    4  C12 UNL     1      25.028  -0.861  55.628  1.00  0.00     0.070 A 
HETATM    5  C13 UNL     1      25.155   0.006  54.117  1.00  0.00     0.100 A 
HETATM    6  C14 UNL     1      23.958   0.023  53.130  1.00  0.00     0.029 A 
HETATM    7  S1  UNL     1      26.114  -0.095  55.061  1.00  0.00    -0.131 SA
ENDROOT
BRANCH   1   8
HETATM    8  N2  UNL     1      21.602  -0.754  52.694  1.00  0.00    -0.317 N 
HETATM    9  C8  UNL     1      20.734   0.346  52.695  1.00  0.00     0.301 C 
HETATM   10  O1  UNL     1      20.972   1.432  53.280  1.00  0.00    -0.258 OA
HETATM   11  H13 UNL     1      21.467  -1.680  52.237  1.00  0.00     0.170 HD
BRANCH   9  12
HETATM   12  C7  UNL     1      19.479   0.212  51.965  1.00  0.00    -0.004 C 
HETATM   13  C6  UNL     1      18.448   0.081  51.359  1.00  0.00    -0.077 C 
BRANCH  13  14
HETATM   14  C5  UNL     1      17.182  -0.097  50.606  1.00  0.00     0.212 C 
BRANCH  14  15
HETATM   15  N1  UNL     1      16.118   0.198  51.496  1.00  0.00    -0.403 N 
BRANCH  15  16
HETATM   16  C2  UNL     1      15.972  -0.694  52.597  1.00  0.00     0.113 C 
HETATM   17  C1  UNL     1      15.523  -2.092  52.212  1.00  0.00     0.026 C 
ENDBRANCH  15  16
BRANCH  15  18
HETATM   18  C3  UNL     1      15.833   1.570  51.740  1.00  0.00     0.113 C 
HETATM   19  C4  UNL     1      14.676   1.668  52.720  1.00  0.00     0.026 C 
ENDBRANCH  15  18
ENDBRANCH  14  15
ENDBRANCH  13  14
ENDBRANCH   9  12
ENDBRANCH   1   8
BRANCH   5  20
HETATM   20  C15 UNL     1      26.157   0.997  53.068  1.00  0.00     0.199 A 
HETATM   21  N4  UNL     1      26.791  -0.362  51.959  1.00  0.00    -0.242 NA
HETATM   22  C22 UNL     1      26.154  -0.749  52.681  1.00  0.00     0.114 A 
BRANCH  20  23
HETATM   23  N3  UNL     1      26.377   2.421  53.135  1.00  0.00    -0.355 N 
HETATM   24  H17 UNL     1      26.856   2.537  54.040  1.00  0.00     0.162 HD
BRANCH  23  25
HETATM   25  C16 UNL     1      25.786   2.796  51.869  1.00  0.00     0.032 A 
HETATM   26  C17 UNL     1      26.505   2.897  50.701  1.00  0.00     0.032 A 
HETATM   27  C18 UNL     1      25.808   3.256  49.576  1.00  0.00     0.046 A 
HETATM   28  C19 UNL     1      24.466   3.484  49.691  1.00  0.00     0.138 A 
HETATM   29  F1  UNL     1      23.807   3.835  48.557  1.00  0.00    -0.204 F 
HETATM   30  C20 UNL     1      23.709   3.397  50.824  1.00  0.00     0.074 A 
HETATM   31 CL1  UNL     1      21.990   3.705  50.913  1.00  0.00    -0.081 Cl
HETATM   32  C21 UNL     1      24.410   3.034  51.971  1.00  0.00     0.056 A 
ENDBRANCH  23  25
ENDBRANCH  20  23
ENDBRANCH   5  20
TORSDOF 10
ENDMDL
MODEL 7
REMARK VINA RESULT:      -7.7      3.410      7.121
REMARK  10 active torsions:
REMARK  status: ('A' for Active; 'I' for Inactive)
REMARK    1  A    between atoms: C2_2  and  N1_3 
REMARK    2  A    between atoms: N1_3  and  C3_4 
REMARK    3  A    between atoms: N1_3  and  C5_6 
REMARK    4  A    between atoms: C5_6  and  C6_7 
REMARK    5  A    between atoms: C7_8  and  C8_9 
REMARK       I    between atoms: C8_9  and  N2_11 
REMARK    6  A    between atoms: N2_11  and  C9_12 
REMARK    7  A    between atoms: C13_16  and  C15_18 
REMARK    8  A    between atoms: C15_18  and  N3_19 
REMARK    9  A    between atoms: N3_19  and  C16_20 
REMARK   10  A    between atoms: C22_29  and  S1_30 
ROOT
HETATM    1  C9  UNL     1      26.964   6.600  48.693  1.00  0.00     0.033 A 
HETATM    2  C10 UNL     1      26.565   7.550  47.789  1.00  0.00     0.027 A 
HETATM    3  C11 UNL     1      25.179   7.532  47.507  1.00  0.00    -0.001 A 
HETATM    4  C12 UNL     1      23.933   6.937  47.750  1.00  0.00     0.070 A 
HETATM    5  C13 UNL     1      24.548   5.768  48.891  1.00  0.00     0.100 A 
HETATM    6  C14 UNL     1      26.061   5.744  49.236  1.00  0.00     0.029 A 
HETATM    7  S1  UNL     1      23.264   5.897  48.498  1.00  0.00    -0.131 SA
ENDROOT
BRANCH   1   8
HETATM    8  N2  UNL     1      28.314   6.789  48.817  1.00  0.00    -0.317 N 
HETATM    9  C8  UNL     1      29.138   5.707  48.481  1.00  0.00     0.301 C 
HETATM   10  O1  UNL     1      28.713   4.592  48.088  1.00  0.00    -0.258 OA
HETATM   11  H13 UNL     1      28.597   7.734  49.152  1.00  0.00     0.170 HD
BRANCH   9  12
HETATM   12  C7  UNL     1      30.579   5.898  48.597  1.00  0.00    -0.004 C 
HETATM   13  C6  UNL     1      31.771   6.036  48.683  1.00  0.00    -0.077 C 
BRANCH  13  14
HETATM   14  C5  UNL     1      33.243   6.191  48.782  1.00  0.00     0.212 C 
BRANCH  14  15
HETATM   15  N1  UNL     1      33.811   5.539  47.657  1.00  0.00    -0.403 N 
BRANCH  15  16
HETATM   16  C2  UNL     1      33.751   6.263  46.431  1.00  0.00     0.113 C 
HETATM   17  C1  UNL     1      33.091   5.507  45.292  1.00  0.00     0.026 C 
ENDBRANCH  15  16
BRANCH  15  18
HETATM   18  C3  UNL     1      34.972   4.748  47.879  1.00  0.00     0.113 C 
HETATM   19  C4  UNL     1      34.578   3.280  47.874  1.00  0.00     0.026 C 
ENDBRANCH  15  18
ENDBRANCH  14  15
ENDBRANCH  13  14
ENDBRANCH   9  12
ENDBRANCH   1   8
BRANCH   5  20
HETATM   20  C15 UNL     1      24.185   4.427  49.966  1.00  0.00     0.199 A 
HETATM   21  N4  UNL     1      23.843   5.419  51.509  1.00  0.00    -0.242 NA
HETATM   22  C22 UNL     1      24.089   6.045  50.720  1.00  0.00     0.114 A 
BRANCH  20  23
HETATM   23  N3  UNL     1      24.193   3.017  49.662  1.00  0.00    -0.355 N 
HETATM   24  H17 UNL     1      23.952   2.997  48.661  1.00  0.00     0.162 HD
BRANCH  23  25
HETATM   25  C16 UNL     1      24.547   2.510  50.970  1.00  0.00     0.032 A 
HETATM   26  C17 UNL     1      23.635   1.958  51.838  1.00  0.00     0.032 A 
HETATM   27  C18 UNL     1      24.118   1.514  53.042  1.00  0.00     0.046 A 
HETATM   28  C19 UNL     1      25.454   1.648  53.293  1.00  0.00     0.138 A 
HETATM   29  F1  UNL     1      25.899   1.194  54.493  1.00  0.00    -0.204 F 
HETATM   30  C20 UNL     1      26.398   2.187  52.466  1.00  0.00     0.074 A 
HETATM   31 CL1  UNL     1      28.099   2.335  52.842  1.00  0.00    -0.081 Cl
HETATM   32  C21 UNL     1      25.914   2.641  51.242  1.00  0.00     0.056 A 
ENDBRANCH  23  25
ENDBRANCH  20  23
ENDBRANCH   5  20
TORSDOF 10
ENDMDL
MODEL 8
REMARK VINA RESULT:      -7.7      4.456      8.762
REMARK  10 active torsions:
REMARK  status: ('A' for Active; 'I' for Inactive)
REMARK    1  A    between atoms: C2_2  and  N1_3 
REMARK    2  A    between atoms: N1_3  and  C3_4 
REMARK    3  A    between atoms: N1_3  and  C5_6 
REMARK    4  A    between atoms: C5_6  and  C6_7 
REMARK    5  A    between atoms: C7_8  and  C8_9 
REMARK       I    between atoms: C8_9  and  N2_11 
REMARK    6  A    between atoms: N2_11  and  C9_12 
REMARK    7  A    between atoms: C13_16  and  C15_18 
REMARK    8  A    between atoms: C15_18  and  N3_19 
REMARK    9  A    between atoms: N3_19  and  C16_20 
REMARK   10  A    between atoms: C22_29  and  S1_30 
ROOT
HETATM    1  C9  UNL     1      25.284   5.045  49.486  1.00  0.00     0.033 A 
HETATM    2  C10 UNL     1      24.200   5.325  48.694  1.00  0.00     0.027 A 
HETATM    3  C11 UNL     1      23.083   4.489  48.927  1.00  0.00    -0.001 A 
HETATM    4  C12 UNL     1      22.539   3.422  49.656  1.00  0.00     0.070 A 
HETATM    5  C13 UNL     1      23.974   3.153  50.615  1.00  0.00     0.100 A 
HETATM    6  C14 UNL     1      25.228   4.040  50.399  1.00  0.00     0.029 A 
HETATM    7  S1  UNL     1      22.821   2.457  50.694  1.00  0.00    -0.131 SA
ENDROOT
BRANCH   1   8
HETATM    8  N2  UNL     1      26.234   5.951  49.102  1.00  0.00    -0.317 N 
HETATM    9  C8  UNL     1      27.472   5.435  48.695  1.00  0.00     0.301 C 
HETATM   10  O1  UNL     1      27.752   4.211  48.671  1.00  0.00    -0.258 OA
HETATM   11  H13 UNL     1      25.937   6.948  49.150  1.00  0.00     0.170 HD
BRANCH   9  12
HETATM   12  C7  UNL     1      28.491   6.388  48.271  1.00  0.00    -0.004 C 
HETATM   13  C6  UNL     1      29.326   7.170  47.901  1.00  0.00    -0.077 C 
BRANCH  13  14
HETATM   14  C5  UNL     1      30.354   8.130  47.427  1.00  0.00     0.212 C 
BRANCH  14  15
HETATM   15  N1  UNL     1      30.955   8.704  48.577  1.00  0.00    -0.403 N 
BRANCH  15  16
HETATM   16  C2  UNL     1      30.163   9.663  49.271  1.00  0.00     0.113 C 
HETATM   17  C1  UNL     1      30.640  11.096  49.117  1.00  0.00     0.026 C 
ENDBRANCH  15  16
BRANCH  15  18
HETATM   18  C3  UNL     1      31.784   7.862  49.368  1.00  0.00     0.113 C 
HETATM   19  C4  UNL     1      33.121   7.688  48.670  1.00  0.00     0.026 C 
ENDBRANCH  15  18
ENDBRANCH  14  15
ENDBRANCH  13  14
ENDBRANCH   9  12
ENDBRANCH   1   8
BRANCH   5  20
HETATM   20  C15 UNL     1      24.744   2.205  51.877  1.00  0.00     0.199 A 
HETATM   21  N4  UNL     1      24.293   3.291  53.325  1.00  0.00    -0.242 NA
HETATM   22  C22 UNL     1      23.919   3.687  52.443  1.00  0.00     0.114 A 
BRANCH  20  23
HETATM   23  N3  UNL     1      25.494   0.981  51.737  1.00  0.00    -0.355 N 
HETATM   24  H17 UNL     1      26.032   1.139  50.872  1.00  0.00     0.162 HD
BRANCH  23  25
HETATM   25  C16 UNL     1      25.020   0.294  52.918  1.00  0.00     0.032 A 
HETATM   26  C17 UNL     1      25.816   0.028  54.007  1.00  0.00     0.032 A 
HETATM   27  C18 UNL     1      25.226  -0.625  55.058  1.00  0.00     0.046 A 
HETATM   28  C19 UNL     1      23.907  -0.960  54.955  1.00  0.00     0.138 A 
HETATM   29  F1  UNL     1      23.354  -1.603  56.015  1.00  0.00    -0.204 F 
HETATM   30  C20 UNL     1      23.076  -0.718  53.899  1.00  0.00     0.074 A 
HETATM   31 CL1  UNL     1      21.389  -1.173  53.819  1.00  0.00    -0.081 Cl
HETATM   32  C21 UNL     1      23.668  -0.056  52.827  1.00  0.00     0.056 A 
ENDBRANCH  23  25
ENDBRANCH  20  23
ENDBRANCH   5  20
TORSDOF 10
ENDMDL
MODEL 9
REMARK VINA RESULT:      -7.6      5.787      7.788
REMARK  10 active torsions:
REMARK  status: ('A' for Active; 'I' for Inactive)
REMARK    1  A    between atoms: C2_2  and  N1_3 
REMARK    2  A    between atoms: N1_3  and  C3_4 
REMARK    3  A    between atoms: N1_3  and  C5_6 
REMARK    4  A    between atoms: C5_6  and  C6_7 
REMARK    5  A    between atoms: C7_8  and  C8_9 
REMARK       I    between atoms: C8_9  and  N2_11 
REMARK    6  A    between atoms: N2_11  and  C9_12 
REMARK    7  A    between atoms: C13_16  and  C15_18 
REMARK    8  A    between atoms: C15_18  and  N3_19 
REMARK    9  A    between atoms: N3_19  and  C16_20 
REMARK   10  A    between atoms: C22_29  and  S1_30 
ROOT
HETATM    1  C9  UNL     1      21.669  -0.118  53.209  1.00  0.00     0.033 A 
HETATM    2  C10 UNL     1      20.816  -0.914  53.928  1.00  0.00     0.027 A 
HETATM    3  C11 UNL     1      19.490  -0.932  53.436  1.00  0.00    -0.001 A 
HETATM    4  C12 UNL     1      18.583  -0.470  52.472  1.00  0.00     0.070 A 
HETATM    5  C13 UNL     1      19.754   0.512  51.627  1.00  0.00     0.100 A 
HETATM    6  C14 UNL     1      21.222   0.569  52.126  1.00  0.00     0.029 A 
HETATM    7  S1  UNL     1      18.450   0.375  51.307  1.00  0.00    -0.131 SA
ENDROOT
BRANCH   1   8
HETATM    8  N2  UNL     1      22.874  -0.241  53.847  1.00  0.00    -0.317 N 
HETATM    9  C8  UNL     1      23.993   0.291  53.192  1.00  0.00     0.301 C 
HETATM   10  O1  UNL     1      23.952   0.856  52.071  1.00  0.00    -0.258 OA
HETATM   11  H13 UNL     1      22.837  -0.723  54.769  1.00  0.00     0.170 HD
BRANCH   9  12
HETATM   12  C7  UNL     1      25.282   0.178  53.864  1.00  0.00    -0.004 C 
HETATM   13  C6  UNL     1      26.348   0.065  54.409  1.00  0.00    -0.077 C 
BRANCH  13  14
HETATM   14  C5  UNL     1      27.666  -0.090  55.074  1.00  0.00     0.212 C 
BRANCH  14  15
HETATM   15  N1  UNL     1      28.660   0.250  54.121  1.00  0.00    -0.403 N 
BRANCH  15  16
HETATM   16  C2  UNL     1      29.058   1.617  54.107  1.00  0.00     0.113 C 
HETATM   17  C1  UNL     1      28.310   2.474  53.102  1.00  0.00     0.026 C 
ENDBRANCH  15  16
BRANCH  15  18
HETATM   18  C3  UNL     1      29.673  -0.716  53.864  1.00  0.00     0.113 C 
HETATM   19  C4  UNL     1      29.052  -1.904  53.149  1.00  0.00     0.026 C 
ENDBRANCH  15  18
ENDBRANCH  14  15
ENDBRANCH  13  14
ENDBRANCH   9  12
ENDBRANCH   1   8
BRANCH   5  20
HETATM   20  C15 UNL     1      20.064   1.613  50.294  1.00  0.00     0.199 A 
HETATM   21  N4  UNL     1      19.737   3.212  51.198  1.00  0.00    -0.242 NA
HETATM   22  C22 UNL     1      19.603   2.401  51.831  1.00  0.00     0.114 A 
BRANCH  20  23
HETATM   23  N3  UNL     1      20.435   1.285  48.939  1.00  0.00    -0.355 N 
HETATM   24  H17 UNL     1      19.939   0.397  48.774  1.00  0.00     0.162 HD
BRANCH  23  25
HETATM   25  C16 UNL     1      21.276   2.428  48.657  1.00  0.00     0.032 A 
HETATM   26  C17 UNL     1      20.856   3.512  47.923  1.00  0.00     0.032 A 
HETATM   27  C18 UNL     1      21.762   4.524  47.743  1.00  0.00     0.046 A 
HETATM   28  C19 UNL     1      23.003   4.390  48.298  1.00  0.00     0.138 A 
HETATM   29  F1  UNL     1      23.874   5.413  48.104  1.00  0.00    -0.204 F 
HETATM   30  C20 UNL     1      23.466   3.338  49.034  1.00  0.00     0.074 A 
HETATM   31 CL1  UNL     1      25.070   3.218  49.721  1.00  0.00    -0.081 Cl
HETATM   32  C21 UNL     1      22.552   2.304  49.220  1.00  0.00     0.056 A 
ENDBRANCH  23  25
ENDBRANCH  20  23
ENDBRANCH   5  20
TORSDOF 10
ENDMDL
