MODEL 1
REMARK VINA RESULT:      -9.5      0.000      0.000
REMARK  2 active torsions:
REMARK  status: ('A' for Active; 'I' for Inactive)
REMARK    1  A    between atoms: C14_17  and  C15_18 
REMARK    2  A    between atoms: C15_18  and  N3_19 
ROOT
HETATM    1  C1  UNL     1      22.361  -0.833  54.453  1.00  0.00     0.044 C 
HETATM    2  C2  UNL     1      22.371   0.070  53.280  1.00  0.00    -0.072 C 
HETATM    3  C3  UNL     1      21.468  -0.406  52.441  1.00  0.00     0.054 C 
HETATM    4  C4  UNL     1      21.196   0.183  51.220  1.00  0.00    -0.148 C 
HETATM    5  C5  UNL     1      20.972   0.703  50.190  1.00  0.00     0.022 C 
HETATM    6  C6  UNL     1      20.703   1.348  48.968  1.00  0.00     0.068 C 
HETATM    7  C7  UNL     1      21.827   1.765  48.308  1.00  0.00     0.022 C 
HETATM    8  C8  UNL     1      21.707   2.496  46.975  1.00  0.00     0.173 C 
HETATM    9  O1  UNL     1      22.331   3.782  47.236  1.00  0.00    -0.383 OA
HETATM   10  C9  UNL     1      21.504   4.372  48.236  1.00  0.00     0.255 C 
HETATM   11  C10 UNL     1      22.282   5.414  48.921  1.00  0.00     0.184 C 
HETATM   12  N1  UNL     1      22.398   4.538  49.863  1.00  0.00    -0.150 NA
HETATM   13  N2  UNL     1      23.007   4.542  51.057  1.00  0.00    -0.261 N 
HETATM   14  C11 UNL     1      23.686   4.483  52.281  1.00  0.00     0.114 C 
HETATM   15  C12 UNL     1      24.016   3.436  52.981  1.00  0.00     0.028 C 
HETATM   16  C13 UNL     1      23.622   2.090  52.418  1.00  0.00     0.026 C 
HETATM   17  C14 UNL     1      24.920   1.295  52.157  1.00  0.00     0.023 C 
HETATM   18  C19 UNL     1      24.783   0.568  53.426  1.00  0.00     0.016 C 
HETATM   19  C20 UNL     1      23.350   1.125  53.510  1.00  0.00     0.023 C 
HETATM   20  N4  UNL     1      23.783   5.885  52.317  1.00  0.00    -0.375 N 
HETATM   21  C21 UNL     1      24.438   6.961  51.514  1.00  0.00     0.123 C 
HETATM   22  C22 UNL     1      23.736   6.844  50.277  1.00  0.00     0.051 C 
HETATM   23  C23 UNL     1      23.621   7.494  49.004  1.00  0.00     0.128 C 
HETATM   24  C24 UNL     1      23.105   8.902  49.141  1.00  0.00     0.040 C 
HETATM   25  O2  UNL     1      22.550   6.708  48.390  1.00  0.00    -0.330 OA
HETATM   26  H11 UNL     1      23.408   3.742  50.475  1.00  0.00     0.191 HD
HETATM   27  H26 UNL     1      23.207   6.008  53.184  1.00  0.00     0.161 HD
ENDROOT
BRANCH  17  28
HETATM   28  C15 UNL     1      26.105   2.138  51.916  1.00  0.00     0.277 C 
BRANCH  28  29
HETATM   29  N3  UNL     1      27.383   1.578  52.147  1.00  0.00     0.088 N 
HETATM   30  C16 UNL     1      28.117   1.923  53.311  1.00  0.00     0.274 C 
HETATM   31  C17 UNL     1      28.529   0.453  53.498  1.00  0.00     0.060 C 
HETATM   32  C18 UNL     1      27.374   0.195  52.560  1.00  0.00     0.274 C 
ENDBRANCH  28  29
ENDBRANCH  17  28
TORSDOF 2
ENDMDL
MODEL 2
REMARK VINA RESULT:      -9.5      2.393      3.561
REMARK  2 active torsions:
REMARK  status: ('A' for Active; 'I' for Inactive)
REMARK    1  A    between atoms: C14_17  and  C15_18 
REMARK    2  A    between atoms: C15_18  and  N3_19 
ROOT
HETATM    1  C1  UNL     1      22.747  -0.556  54.255  1.00  0.00     0.044 C 
HETATM    2  C2  UNL     1      22.046   0.318  53.288  1.00  0.00    -0.072 C 
HETATM    3  C3  UNL     1      20.880  -0.258  53.049  1.00  0.00     0.054 C 
HETATM    4  C4  UNL     1      19.945   0.277  52.183  1.00  0.00    -0.148 C 
HETATM    5  C5  UNL     1      19.157   0.751  51.450  1.00  0.00     0.022 C 
HETATM    6  C6  UNL     1      18.219   1.341  50.582  1.00  0.00     0.068 C 
HETATM    7  C7  UNL     1      18.771   1.845  49.436  1.00  0.00     0.022 C 
HETATM    8  C8  UNL     1      17.889   2.531  48.398  1.00  0.00     0.173 C 
HETATM    9  O1  UNL     1      18.439   3.874  48.323  1.00  0.00    -0.383 OA
HETATM   10  C9  UNL     1      18.228   4.408  49.628  1.00  0.00     0.255 C 
HETATM   11  C10 UNL     1      19.156   5.532  49.820  1.00  0.00     0.184 C 
HETATM   12  N1  UNL     1      19.836   4.692  50.527  1.00  0.00    -0.150 NA
HETATM   13  N2  UNL     1      20.988   4.778  51.208  1.00  0.00    -0.261 N 
HETATM   14  C11 UNL     1      22.219   4.810  51.874  1.00  0.00     0.114 C 
HETATM   15  C12 UNL     1      22.965   3.813  52.256  1.00  0.00     0.028 C 
HETATM   16  C13 UNL     1      22.453   2.424  51.952  1.00  0.00     0.026 C 
HETATM   17  C14 UNL     1      23.473   1.746  51.011  1.00  0.00     0.023 C 
HETATM   18  C19 UNL     1      24.104   1.038  52.133  1.00  0.00     0.016 C 
HETATM   19  C20 UNL     1      22.897   1.463  52.989  1.00  0.00     0.023 C 
HETATM   20  N4  UNL     1      22.194   6.215  51.895  1.00  0.00    -0.375 N 
HETATM   21  C21 UNL     1      22.217   7.328  50.900  1.00  0.00     0.123 C 
HETATM   22  C22 UNL     1      20.975   7.120  50.228  1.00  0.00     0.051 C 
HETATM   23  C23 UNL     1      20.138   7.728  49.236  1.00  0.00     0.128 C 
HETATM   24  C24 UNL     1      19.652   9.085  49.671  1.00  0.00     0.040 C 
HETATM   25  O2  UNL     1      18.979   6.834  49.268  1.00  0.00    -0.330 OA
HETATM   26  H11 UNL     1      21.083   4.006  50.477  1.00  0.00     0.191 HD
HETATM   27  H26 UNL     1      22.165   6.304  52.939  1.00  0.00     0.161 HD
ENDROOT
BRANCH  17  28
HETATM   28  C15 UNL     1      24.263   2.689  50.198  1.00  0.00     0.277 C 
BRANCH  28  29
HETATM   29  N3  UNL     1      23.795   3.011  48.903  1.00  0.00     0.088 N 
HETATM   30  C16 UNL     1      22.455   2.722  48.534  1.00  0.00     0.274 C 
HETATM   31  C17 UNL     1      22.343   4.090  47.839  1.00  0.00     0.060 C 
HETATM   32  C18 UNL     1      23.556   4.416  48.676  1.00  0.00     0.274 C 
ENDBRANCH  28  29
ENDBRANCH  17  28
TORSDOF 2
ENDMDL
MODEL 3
REMARK VINA RESULT:      -9.0      2.486      7.048
REMARK  2 active torsions:
REMARK  status: ('A' for Active; 'I' for Inactive)
REMARK    1  A    between atoms: C14_17  and  C15_18 
REMARK    2  A    between atoms: C15_18  and  N3_19 
ROOT
HETATM    1  C1  UNL     1      20.048   8.985  49.589  1.00  0.00     0.044 C 
HETATM    2  C2  UNL     1      20.925   7.812  49.807  1.00  0.00    -0.072 C 
HETATM    3  C3  UNL     1      22.166   8.260  49.730  1.00  0.00     0.054 C 
HETATM    4  C4  UNL     1      23.269   7.441  49.883  1.00  0.00    -0.148 C 
HETATM    5  C5  UNL     1      24.195   6.731  50.025  1.00  0.00     0.022 C 
HETATM    6  C6  UNL     1      25.293   5.870  50.215  1.00  0.00     0.068 C 
HETATM    7  C7  UNL     1      25.158   4.662  49.587  1.00  0.00     0.022 C 
HETATM    8  C8  UNL     1      26.255   3.609  49.708  1.00  0.00     0.173 C 
HETATM    9  O1  UNL     1      25.576   2.482  50.324  1.00  0.00    -0.383 OA
HETATM   10  C9  UNL     1      25.178   2.974  51.601  1.00  0.00     0.255 C 
HETATM   11  C10 UNL     1      24.085   2.127  52.100  1.00  0.00     0.184 C 
HETATM   12  N1  UNL     1      23.324   3.107  51.742  1.00  0.00    -0.150 NA
HETATM   13  N2  UNL     1      22.000   3.312  51.792  1.00  0.00    -0.261 N 
HETATM   14  C11 UNL     1      20.618   3.537  51.764  1.00  0.00     0.114 C 
HETATM   15  C12 UNL     1      19.947   4.409  51.069  1.00  0.00     0.028 C 
HETATM   16  C13 UNL     1      20.747   5.316  50.162  1.00  0.00     0.026 C 
HETATM   17  C14 UNL     1      20.291   5.045  48.711  1.00  0.00     0.023 C 
HETATM   18  C19 UNL     1      19.393   6.207  48.729  1.00  0.00     0.016 C 
HETATM   19  C20 UNL     1      20.090   6.639  50.032  1.00  0.00     0.023 C 
HETATM   20  N4  UNL     1      20.413   2.515  52.707  1.00  0.00    -0.375 N 
HETATM   21  C21 UNL     1      20.606   1.035  52.782  1.00  0.00     0.123 C 
HETATM   22  C22 UNL     1      22.027   0.940  52.695  1.00  0.00     0.051 C 
HETATM   23  C23 UNL     1      23.079  -0.031  52.776  1.00  0.00     0.128 C 
HETATM   24  C24 UNL     1      23.139  -0.675  54.135  1.00  0.00     0.040 C 
HETATM   25  O2  UNL     1      24.257   0.829  52.663  1.00  0.00    -0.330 OA
HETATM   26  H11 UNL     1      22.318   3.390  50.775  1.00  0.00     0.191 HD
HETATM   27  H26 UNL     1      20.020   3.137  53.453  1.00  0.00     0.161 HD
ENDROOT
BRANCH  17  28
HETATM   28  C15 UNL     1      19.743   3.693  48.494  1.00  0.00     0.277 C 
BRANCH  28  29
HETATM   29  N3  UNL     1      20.542   2.750  47.806  1.00  0.00     0.088 N 
HETATM   30  C16 UNL     1      21.846   3.099  47.368  1.00  0.00     0.274 C 
HETATM   31  C17 UNL     1      22.377   1.733  47.834  1.00  0.00     0.060 C 
HETATM   32  C18 UNL     1      21.097   1.706  48.634  1.00  0.00     0.274 C 
ENDBRANCH  28  29
ENDBRANCH  17  28
TORSDOF 2
ENDMDL
MODEL 4
REMARK VINA RESULT:      -8.7      8.238     10.735
REMARK  2 active torsions:
REMARK  status: ('A' for Active; 'I' for Inactive)
REMARK    1  A    between atoms: C14_17  and  C15_18 
REMARK    2  A    between atoms: C15_18  and  N3_19 
ROOT
HETATM    1  C1  UNL     1      25.802   5.810  48.957  1.00  0.00     0.044 C 
HETATM    2  C2  UNL     1      27.102   6.150  48.336  1.00  0.00    -0.072 C 
HETATM    3  C3  UNL     1      27.920   5.153  48.624  1.00  0.00     0.054 C 
HETATM    4  C4  UNL     1      29.238   5.122  48.207  1.00  0.00    -0.148 C 
HETATM    5  C5  UNL     1      30.354   5.108  47.836  1.00  0.00     0.022 C 
HETATM    6  C6  UNL     1      31.682   5.098  47.370  1.00  0.00     0.068 C 
HETATM    7  C7  UNL     1      32.311   6.309  47.479  1.00  0.00     0.022 C 
HETATM    8  C8  UNL     1      33.751   6.470  47.002  1.00  0.00     0.173 C 
HETATM    9  O1  UNL     1      33.654   7.493  45.975  1.00  0.00    -0.383 OA
HETATM   10  C9  UNL     1      32.832   6.902  44.973  1.00  0.00     0.255 C 
HETATM   11  C10 UNL     1      32.267   7.979  44.147  1.00  0.00     0.184 C 
HETATM   12  N1  UNL     1      31.189   7.770  44.827  1.00  0.00    -0.150 NA
HETATM   13  N2  UNL     1      29.967   8.322  44.812  1.00  0.00    -0.261 N 
HETATM   14  C11 UNL     1      28.701   8.918  44.874  1.00  0.00     0.114 C 
HETATM   15  C12 UNL     1      27.817   8.856  45.827  1.00  0.00     0.028 C 
HETATM   16  C13 UNL     1      28.181   8.033  47.041  1.00  0.00     0.026 C 
HETATM   17  C14 UNL     1      28.208   8.984  48.258  1.00  0.00     0.023 C 
HETATM   18  C19 UNL     1      26.852   8.583  48.657  1.00  0.00     0.016 C 
HETATM   19  C20 UNL     1      26.971   7.428  47.647  1.00  0.00     0.023 C 
HETATM   20  N4  UNL     1      28.887   9.490  43.603  1.00  0.00    -0.375 N 
HETATM   21  C21 UNL     1      29.800  10.489  42.972  1.00  0.00     0.123 C 
HETATM   22  C22 UNL     1      31.053   9.811  43.067  1.00  0.00     0.051 C 
HETATM   23  C23 UNL     1      32.420   9.949  42.656  1.00  0.00     0.128 C 
HETATM   24  C24 UNL     1      32.555   9.945  41.157  1.00  0.00     0.040 C 
HETATM   25  O2  UNL     1      32.980   8.684  43.134  1.00  0.00    -0.330 OA
HETATM   26  H11 UNL     1      30.379   8.434  45.791  1.00  0.00     0.191 HD
HETATM   27  H26 UNL     1      28.099   8.976  43.141  1.00  0.00     0.161 HD
ENDROOT
BRANCH  17  28
HETATM   28  C15 UNL     1      28.490  10.391  47.919  1.00  0.00     0.277 C 
BRANCH  28  29
HETATM   29  N3  UNL     1      29.813  10.864  48.076  1.00  0.00     0.088 N 
HETATM   30  C16 UNL     1      30.894   9.950  48.177  1.00  0.00     0.274 C 
HETATM   31  C17 UNL     1      31.741  10.836  47.246  1.00  0.00     0.060 C 
HETATM   32  C18 UNL     1      30.401  11.432  46.887  1.00  0.00     0.274 C 
ENDBRANCH  28  29
ENDBRANCH  17  28
TORSDOF 2
ENDMDL
MODEL 5
REMARK VINA RESULT:      -8.7      2.328      5.468
REMARK  2 active torsions:
REMARK  status: ('A' for Active; 'I' for Inactive)
REMARK    1  A    between atoms: C14_17  and  C15_18 
REMARK    2  A    between atoms: C15_18  and  N3_19 
ROOT
HETATM    1  C1  UNL     1      21.924  -1.629  53.524  1.00  0.00     0.044 C 
HETATM    2  C2  UNL     1      22.144  -0.325  52.860  1.00  0.00    -0.072 C 
HETATM    3  C3  UNL     1      23.250   0.174  53.385  1.00  0.00     0.054 C 
HETATM    4  C4  UNL     1      23.773   1.396  53.007  1.00  0.00    -0.148 C 
HETATM    5  C5  UNL     1      24.209   2.434  52.666  1.00  0.00     0.022 C 
HETATM    6  C6  UNL     1      24.726   3.670  52.234  1.00  0.00     0.068 C 
HETATM    7  C7  UNL     1      23.772   4.636  52.066  1.00  0.00     0.022 C 
HETATM    8  C8  UNL     1      24.167   6.029  51.586  1.00  0.00     0.173 C 
HETATM    9  O1  UNL     1      23.424   6.183  50.347  1.00  0.00    -0.383 OA
HETATM   10  C9  UNL     1      23.950   5.166  49.499  1.00  0.00     0.255 C 
HETATM   11  C10 UNL     1      22.970   4.902  48.436  1.00  0.00     0.184 C 
HETATM   12  N1  UNL     1      22.682   3.851  49.130  1.00  0.00    -0.150 NA
HETATM   13  N2  UNL     1      21.804   2.851  48.969  1.00  0.00    -0.261 N 
HETATM   14  C11 UNL     1      20.854   1.826  48.871  1.00  0.00     0.114 C 
HETATM   15  C12 UNL     1      20.427   1.020  49.799  1.00  0.00     0.028 C 
HETATM   16  C13 UNL     1      21.023   1.191  51.177  1.00  0.00     0.026 C 
HETATM   17  C14 UNL     1      19.875   1.569  52.138  1.00  0.00     0.023 C 
HETATM   18  C19 UNL     1      19.744   0.181  52.600  1.00  0.00     0.016 C 
HETATM   19  C20 UNL     1      21.079  -0.108  51.889  1.00  0.00     0.023 C 
HETATM   20  N4  UNL     1      20.670   2.100  47.504  1.00  0.00    -0.375 N 
HETATM   21  C21 UNL     1      20.166   3.232  46.670  1.00  0.00     0.123 C 
HETATM   22  C22 UNL     1      21.151   4.230  46.940  1.00  0.00     0.051 C 
HETATM   23  C23 UNL     1      21.532   5.549  46.528  1.00  0.00     0.128 C 
HETATM   24  C24 UNL     1      21.916   5.591  45.074  1.00  0.00     0.040 C 
HETATM   25  O2  UNL     1      22.763   5.733  47.297  1.00  0.00    -0.330 OA
HETATM   26  H11 UNL     1      21.602   3.333  49.900  1.00  0.00     0.191 HD
HETATM   27  H26 UNL     1      21.012   1.170  47.163  1.00  0.00     0.161 HD
ENDROOT
BRANCH  17  28
HETATM   28  C15 UNL     1      18.735   2.238  51.483  1.00  0.00     0.277 C 
BRANCH  28  29
HETATM   29  N3  UNL     1      18.747   3.650  51.399  1.00  0.00     0.088 N 
HETATM   30  C16 UNL     1      19.977   4.358  51.409  1.00  0.00     0.274 C 
HETATM   31  C17 UNL     1      19.463   5.282  50.291  1.00  0.00     0.060 C 
HETATM   32  C18 UNL     1      18.448   4.182  50.091  1.00  0.00     0.274 C 
ENDBRANCH  28  29
ENDBRANCH  17  28
TORSDOF 2
ENDMDL
MODEL 6
REMARK VINA RESULT:      -8.7      2.728      6.144
REMARK  2 active torsions:
REMARK  status: ('A' for Active; 'I' for Inactive)
REMARK    1  A    between atoms: C14_17  and  C15_18 
REMARK    2  A    between atoms: C15_18  and  N3_19 
ROOT
HETATM    1  C1  UNL     1      28.200   5.075  48.554  1.00  0.00     0.044 C 
HETATM    2  C2  UNL     1      26.755   5.337  48.736  1.00  0.00    -0.072 C 
HETATM    3  C3  UNL     1      26.583   6.628  48.507  1.00  0.00     0.054 C 
HETATM    4  C4  UNL     1      25.348   7.244  48.587  1.00  0.00    -0.148 C 
HETATM    5  C5  UNL     1      24.289   7.750  48.649  1.00  0.00     0.022 C 
HETATM    6  C6  UNL     1      23.010   8.336  48.712  1.00  0.00     0.068 C 
HETATM    7  C7  UNL     1      22.264   7.913  49.777  1.00  0.00     0.022 C 
HETATM    8  C8  UNL     1      20.848   8.443  49.979  1.00  0.00     0.173 C 
HETATM    9  O1  UNL     1      20.028   7.244  49.930  1.00  0.00    -0.383 OA
HETATM   10  C9  UNL     1      20.220   6.747  48.608  1.00  0.00     0.255 C 
HETATM   11  C10 UNL     1      19.859   5.323  48.595  1.00  0.00     0.184 C 
HETATM   12  N1  UNL     1      21.135   5.124  48.606  1.00  0.00    -0.150 NA
HETATM   13  N2  UNL     1      21.897   4.021  48.607  1.00  0.00    -0.261 N 
HETATM   14  C11 UNL     1      22.726   2.894  48.677  1.00  0.00     0.114 C 
HETATM   15  C12 UNL     1      23.977   2.822  49.030  1.00  0.00     0.028 C 
HETATM   16  C13 UNL     1      24.649   4.119  49.420  1.00  0.00     0.026 C 
HETATM   17  C14 UNL     1      25.087   3.992  50.896  1.00  0.00     0.023 C 
HETATM   18  C19 UNL     1      26.460   3.644  50.505  1.00  0.00     0.016 C 
HETATM   19  C20 UNL     1      26.091   4.086  49.077  1.00  0.00     0.023 C 
HETATM   20  N4  UNL     1      21.674   2.069  48.242  1.00  0.00    -0.375 N 
HETATM   21  C21 UNL     1      20.332   1.646  48.742  1.00  0.00     0.123 C 
HETATM   22  C22 UNL     1      19.629   2.888  48.722  1.00  0.00     0.051 C 
HETATM   23  C23 UNL     1      18.314   3.418  48.932  1.00  0.00     0.128 C 
HETATM   24  C24 UNL     1      17.324   2.865  47.941  1.00  0.00     0.040 C 
HETATM   25  O2  UNL     1      18.525   4.823  48.580  1.00  0.00    -0.330 OA
HETATM   26  H11 UNL     1      22.135   4.598  49.473  1.00  0.00     0.191 HD
HETATM   27  H26 UNL     1      22.138   1.768  47.352  1.00  0.00     0.161 HD
ENDROOT
BRANCH  17  28
HETATM   28  C15 UNL     1      24.282   3.040  51.684  1.00  0.00     0.277 C 
BRANCH  28  29
HETATM   29  N3  UNL     1      23.169   3.538  52.400  1.00  0.00     0.088 N 
HETATM   30  C16 UNL     1      22.580   4.777  52.037  1.00  0.00     0.274 C 
HETATM   31  C17 UNL     1      21.176   4.174  52.221  1.00  0.00     0.060 C 
HETATM   32  C18 UNL     1      21.922   2.864  52.130  1.00  0.00     0.274 C 
ENDBRANCH  28  29
ENDBRANCH  17  28
TORSDOF 2
ENDMDL
MODEL 7
REMARK VINA RESULT:      -8.6      2.470      5.688
REMARK  2 active torsions:
REMARK  status: ('A' for Active; 'I' for Inactive)
REMARK    1  A    between atoms: C14_17  and  C15_18 
REMARK    2  A    between atoms: C15_18  and  N3_19 
ROOT
HETATM    1  C1  UNL     1      26.437   1.211  51.854  1.00  0.00     0.044 C 
HETATM    2  C2  UNL     1      25.715   2.223  51.052  1.00  0.00    -0.072 C 
HETATM    3  C3  UNL     1      26.624   3.099  50.659  1.00  0.00     0.054 C 
HETATM    4  C4  UNL     1      26.317   4.200  49.883  1.00  0.00    -0.148 C 
HETATM    5  C5  UNL     1      26.038   5.127  49.214  1.00  0.00     0.022 C 
HETATM    6  C6  UNL     1      25.691   6.220  48.399  1.00  0.00     0.068 C 
HETATM    7  C7  UNL     1      24.530   6.839  48.776  1.00  0.00     0.022 C 
HETATM    8  C8  UNL     1      24.007   8.034  47.985  1.00  0.00     0.173 C 
HETATM    9  O1  UNL     1      22.702   7.589  47.525  1.00  0.00    -0.383 OA
HETATM   10  C9  UNL     1      22.992   6.483  46.675  1.00  0.00     0.255 C 
HETATM   11  C10 UNL     1      21.778   5.664  46.555  1.00  0.00     0.184 C 
HETATM   12  N1  UNL     1      22.369   4.879  47.392  1.00  0.00    -0.150 NA
HETATM   13  N2  UNL     1      22.026   3.719  47.970  1.00  0.00    -0.261 N 
HETATM   14  C11 UNL     1      21.676   2.543  48.645  1.00  0.00     0.114 C 
HETATM   15  C12 UNL     1      22.206   2.031  49.719  1.00  0.00     0.028 C 
HETATM   16  C13 UNL     1      23.358   2.789  50.337  1.00  0.00     0.026 C 
HETATM   17  C14 UNL     1      22.927   3.215  51.758  1.00  0.00     0.023 C 
HETATM   18  C19 UNL     1      23.631   2.076  52.361  1.00  0.00     0.016 C 
HETATM   19  C20 UNL     1      24.306   1.858  50.995  1.00  0.00     0.023 C 
HETATM   20  N4  UNL     1      20.658   2.286  47.711  1.00  0.00    -0.375 N 
HETATM   21  C21 UNL     1      19.381   2.925  47.275  1.00  0.00     0.123 C 
HETATM   22  C22 UNL     1      19.864   4.143  46.709  1.00  0.00     0.051 C 
HETATM   23  C23 UNL     1      19.397   5.291  45.988  1.00  0.00     0.128 C 
HETATM   24  C24 UNL     1      18.831   4.914  44.645  1.00  0.00     0.040 C 
HETATM   25  O2  UNL     1      20.658   5.989  45.735  1.00  0.00    -0.330 OA
HETATM   26  H11 UNL     1      22.225   4.435  48.737  1.00  0.00     0.191 HD
HETATM   27  H26 UNL     1      21.071   1.393  47.349  1.00  0.00     0.161 HD
ENDROOT
BRANCH  17  28
HETATM   28  C15 UNL     1      21.469   3.355  51.929  1.00  0.00     0.277 C 
BRANCH  28  29
HETATM   29  N3  UNL     1      20.888   4.625  51.708  1.00  0.00     0.088 N 
HETATM   30  C16 UNL     1      21.595   5.620  50.983  1.00  0.00     0.274 C 
HETATM   31  C17 UNL     1      20.308   5.997  50.228  1.00  0.00     0.060 C 
HETATM   32  C18 UNL     1      19.837   4.649  50.719  1.00  0.00     0.274 C 
ENDBRANCH  28  29
ENDBRANCH  17  28
TORSDOF 2
ENDMDL
MODEL 8
REMARK VINA RESULT:      -8.5      7.815     10.184
REMARK  2 active torsions:
REMARK  status: ('A' for Active; 'I' for Inactive)
REMARK    1  A    between atoms: C14_17  and  C15_18 
REMARK    2  A    between atoms: C15_18  and  N3_19 
ROOT
HETATM    1  C1  UNL     1      33.332   2.835  46.704  1.00  0.00     0.044 C 
HETATM    2  C2  UNL     1      32.710   4.141  46.388  1.00  0.00    -0.072 C 
HETATM    3  C3  UNL     1      33.160   4.484  45.193  1.00  0.00     0.054 C 
HETATM    4  C4  UNL     1      32.793   5.659  44.565  1.00  0.00    -0.148 C 
HETATM    5  C5  UNL     1      32.462   6.659  44.041  1.00  0.00     0.022 C 
HETATM    6  C6  UNL     1      32.043   7.850  43.420  1.00  0.00     0.068 C 
HETATM    7  C7  UNL     1      32.001   8.925  44.266  1.00  0.00     0.022 C 
HETATM    8  C8  UNL     1      31.551  10.289  43.752  1.00  0.00     0.173 C 
HETATM    9  O1  UNL     1      30.389  10.592  44.570  1.00  0.00    -0.383 OA
HETATM   10  C9  UNL     1      29.454   9.570  44.235  1.00  0.00     0.255 C 
HETATM   11  C10 UNL     1      28.469   9.474  45.322  1.00  0.00     0.184 C 
HETATM   12  N1  UNL     1      29.137   8.426  45.673  1.00  0.00    -0.150 NA
HETATM   13  N2  UNL     1      29.008   7.540  46.671  1.00  0.00    -0.261 N 
HETATM   14  C11 UNL     1      28.947   6.635  47.738  1.00  0.00     0.114 C 
HETATM   15  C12 UNL     1      29.872   5.832  48.180  1.00  0.00     0.028 C 
HETATM   16  C13 UNL     1      31.200   5.861  47.458  1.00  0.00     0.026 C 
HETATM   17  C14 UNL     1      32.272   6.313  48.474  1.00  0.00     0.023 C 
HETATM   18  C19 UNL     1      32.681   4.924  48.727  1.00  0.00     0.016 C 
HETATM   19  C20 UNL     1      31.846   4.527  47.496  1.00  0.00     0.023 C 
HETATM   20  N4  UNL     1      27.615   7.001  47.999  1.00  0.00    -0.375 N 
HETATM   21  C21 UNL     1      26.879   8.226  48.434  1.00  0.00     0.123 C 
HETATM   22  C22 UNL     1      27.107   9.091  47.321  1.00  0.00     0.051 C 
HETATM   23  C23 UNL     1      26.723  10.380  46.825  1.00  0.00     0.128 C 
HETATM   24  C24 UNL     1      25.244  10.457  46.557  1.00  0.00     0.040 C 
HETATM   25  O2  UNL     1      27.390  10.383  45.522  1.00  0.00    -0.330 OA
HETATM   26  H11 UNL     1      29.974   7.990  46.740  1.00  0.00     0.191 HD
HETATM   27  H26 UNL     1      27.205   6.059  47.796  1.00  0.00     0.161 HD
ENDROOT
BRANCH  17  28
HETATM   28  C15 UNL     1      31.749   7.139  49.577  1.00  0.00     0.277 C 
BRANCH  28  29
HETATM   29  N3  UNL     1      31.794   8.546  49.439  1.00  0.00     0.088 N 
HETATM   30  C16 UNL     1      31.993   9.134  48.163  1.00  0.00     0.274 C 
HETATM   31  C17 UNL     1      30.917  10.190  48.473  1.00  0.00     0.060 C 
HETATM   32  C18 UNL     1      30.516   9.208  49.548  1.00  0.00     0.274 C 
ENDBRANCH  28  29
ENDBRANCH  17  28
TORSDOF 2
ENDMDL
MODEL 9
REMARK VINA RESULT:      -8.3      3.665      6.819
REMARK  2 active torsions:
REMARK  status: ('A' for Active; 'I' for Inactive)
REMARK    1  A    between atoms: C14_17  and  C15_18 
REMARK    2  A    between atoms: C15_18  and  N3_19 
ROOT
HETATM    1  C1  UNL     1      26.455   2.401  50.367  1.00  0.00     0.044 C 
HETATM    2  C2  UNL     1      26.051   3.644  49.674  1.00  0.00    -0.072 C 
HETATM    3  C3  UNL     1      27.171   4.259  49.336  1.00  0.00     0.054 C 
HETATM    4  C4  UNL     1      27.189   5.467  48.665  1.00  0.00    -0.148 C 
HETATM    5  C5  UNL     1      27.186   6.491  48.086  1.00  0.00     0.022 C 
HETATM    6  C6  UNL     1      27.163   7.707  47.379  1.00  0.00     0.068 C 
HETATM    7  C7  UNL     1      26.227   8.593  47.837  1.00  0.00     0.022 C 
HETATM    8  C8  UNL     1      26.064   9.953  47.166  1.00  0.00     0.173 C 
HETATM    9  O1  UNL     1      24.687   9.939  46.704  1.00  0.00    -0.383 OA
HETATM   10  C9  UNL     1      24.651   8.878  45.754  1.00  0.00     0.255 C 
HETATM   11  C10 UNL     1      23.253   8.451  45.594  1.00  0.00     0.184 C 
HETATM   12  N1  UNL     1      23.597   7.458  46.345  1.00  0.00    -0.150 NA
HETATM   13  N2  UNL     1      22.938   6.395  46.829  1.00  0.00    -0.261 N 
HETATM   14  C11 UNL     1      22.269   5.310  47.409  1.00  0.00     0.114 C 
HETATM   15  C12 UNL     1      22.631   4.574  48.420  1.00  0.00     0.028 C 
HETATM   16  C13 UNL     1      23.951   4.917  49.072  1.00  0.00     0.026 C 
HETATM   17  C14 UNL     1      23.659   5.317  50.535  1.00  0.00     0.023 C 
HETATM   18  C19 UNL     1      24.010   3.975  51.019  1.00  0.00     0.016 C 
HETATM   19  C20 UNL     1      24.595   3.700  49.622  1.00  0.00     0.023 C 
HETATM   20  N4  UNL     1      21.220   5.437  46.482  1.00  0.00    -0.375 N 
HETATM   21  C21 UNL     1      20.177   6.449  46.137  1.00  0.00     0.123 C 
HETATM   22  C22 UNL     1      20.987   7.526  45.665  1.00  0.00     0.051 C 
HETATM   23  C23 UNL     1      20.865   8.819  45.058  1.00  0.00     0.128 C 
HETATM   24  C24 UNL     1      20.215   8.740  43.703  1.00  0.00     0.040 C 
HETATM   25  O2  UNL     1      22.272   9.152  44.835  1.00  0.00    -0.330 OA
HETATM   26  H11 UNL     1      23.333   6.953  47.650  1.00  0.00     0.191 HD
HETATM   27  H26 UNL     1      21.361   4.500  46.034  1.00  0.00     0.161 HD
ENDROOT
BRANCH  17  28
HETATM   28  C15 UNL     1      22.301   5.848  50.755  1.00  0.00     0.277 C 
BRANCH  28  29
HETATM   29  N3  UNL     1      22.114   7.249  50.701  1.00  0.00     0.088 N 
HETATM   30  C16 UNL     1      23.073   8.076  50.062  1.00  0.00     0.274 C 
HETATM   31  C17 UNL     1      21.946   8.895  49.410  1.00  0.00     0.060 C 
HETATM   32  C18 UNL     1      21.106   7.691  49.767  1.00  0.00     0.274 C 
ENDBRANCH  28  29
ENDBRANCH  17  28
TORSDOF 2
ENDMDL
