MODEL 1
REMARK VINA RESULT:      -8.5      0.000      0.000
REMARK  3 active torsions:
REMARK  status: ('A' for Active; 'I' for Inactive)
REMARK    1  A    between atoms: O1_2  and  C2_3 
REMARK    2  A    between atoms: C6_8  and  O2_9 
REMARK    3  A    between atoms: C16_24  and  O5_25 
ROOT
HETATM    1  C2  UNL     1      27.055   6.284  48.694  1.00  0.00     0.121 A 
HETATM    2  C3  UNL     1      26.362   5.132  49.061  1.00  0.00     0.055 A 
HETATM    3  C4  UNL     1      25.361   5.290  50.028  1.00  0.00     0.029 A 
HETATM    4  C5  UNL     1      25.128   6.547  50.544  1.00  0.00     0.163 A 
HETATM    5  N1  UNL     1      25.836   7.618  50.145  1.00  0.00    -0.202 NA
HETATM    6  C6  UNL     1      26.820   7.539  49.212  1.00  0.00     0.200 A 
HETATM    7  N2  UNL     1      24.104   6.666  51.523  1.00  0.00    -0.217 NA
HETATM    8  C8  UNL     1      23.447   5.615  51.880  1.00  0.00     0.255 A 
HETATM    9  O3  UNL     1      23.682   4.353  51.361  1.00  0.00    -0.327 OA
HETATM   10  C9  UNL     1      24.641   4.043  50.397  1.00  0.00     0.119 A 
HETATM   11  C10 UNL     1      23.980   3.545  49.108  1.00  0.00     0.168 C 
HETATM   12  N3  UNL     1      22.625   3.081  49.337  1.00  0.00    -0.340 N 
HETATM   13  C11 UNL     1      22.151   2.007  50.170  1.00  0.00     0.320 C 
HETATM   14  O4  UNL     1      20.907   1.801  50.070  1.00  0.00    -0.247 OA
HETATM   15  N4  UNL     1      22.734   1.094  51.100  1.00  0.00    -0.308 N 
HETATM   16  C12 UNL     1      23.955   1.195  51.824  1.00  0.00     0.042 C 
HETATM   17  C13 UNL     1      23.760   0.120  52.580  1.00  0.00     0.030 C 
HETATM   18  C14 UNL     1      24.638  -0.422  53.605  1.00  0.00     0.001 C 
HETATM   19  C15 UNL     1      25.600   0.254  54.211  1.00  0.00     0.008 C 
HETATM   20  C16 UNL     1      26.178   1.622  54.181  1.00  0.00     0.164 C 
HETATM   21  C17 UNL     1      26.016   2.241  52.837  1.00  0.00     0.018 C 
HETATM   22  C18 UNL     1      25.130   2.091  51.864  1.00  0.00    -0.029 C 
HETATM   23  C19 UNL     1      25.681   3.064  50.886  1.00  0.00     0.086 C 
HETATM   24  H11 UNL     1      21.844   3.578  48.834  1.00  0.00     0.164 HD
HETATM   25  H12 UNL     1      22.186   0.218  51.281  1.00  0.00     0.170 HD
ENDROOT
BRANCH   1  26
HETATM   26  O1  UNL     1      28.039   6.159  47.751  1.00  0.00    -0.352 OA
HETATM   27  C1  UNL     1      29.370   5.774  48.035  1.00  0.00     0.210 C 
ENDBRANCH   1  26
BRANCH   6  28
HETATM   28  O2  UNL     1      27.555   8.633  48.792  1.00  0.00    -0.337 OA
HETATM   29  C7  UNL     1      28.385   9.332  49.710  1.00  0.00     0.211 C 
ENDBRANCH   6  28
BRANCH  20  30
HETATM   30  O5  UNL     1      27.518   1.574  54.530  1.00  0.00    -0.388 OA
HETATM   31  H17 UNL     1      27.810   0.627  54.496  1.00  0.00     0.210 HD
ENDBRANCH  20  30
TORSDOF 3
ENDMDL
MODEL 2
REMARK VINA RESULT:      -8.3      4.065      5.821
REMARK  3 active torsions:
REMARK  status: ('A' for Active; 'I' for Inactive)
REMARK    1  A    between atoms: O1_2  and  C2_3 
REMARK    2  A    between atoms: C6_8  and  O2_9 
REMARK    3  A    between atoms: C16_24  and  O5_25 
ROOT
HETATM    1  C2  UNL     1      25.822   1.024  52.464  1.00  0.00     0.121 A 
HETATM    2  C3  UNL     1      24.656   0.979  51.702  1.00  0.00     0.055 A 
HETATM    3  C4  UNL     1      23.734   2.012  51.914  1.00  0.00     0.029 A 
HETATM    4  C5  UNL     1      24.030   2.986  52.843  1.00  0.00     0.163 A 
HETATM    5  N1  UNL     1      25.176   2.969  53.545  1.00  0.00    -0.202 NA
HETATM    6  C6  UNL     1      26.115   2.000  53.391  1.00  0.00     0.200 A 
HETATM    7  N2  UNL     1      23.069   4.017  53.030  1.00  0.00    -0.217 NA
HETATM    8  C8  UNL     1      21.981   3.999  52.337  1.00  0.00     0.255 A 
HETATM    9  O3  UNL     1      21.685   3.019  51.404  1.00  0.00    -0.327 OA
HETATM   10  C9  UNL     1      22.502   1.934  51.086  1.00  0.00     0.119 A 
HETATM   11  C10 UNL     1      22.971   2.012  49.631  1.00  0.00     0.168 C 
HETATM   12  N3  UNL     1      22.124   2.877  48.832  1.00  0.00    -0.340 N 
HETATM   13  C11 UNL     1      20.722   2.762  48.528  1.00  0.00     0.320 C 
HETATM   14  O4  UNL     1      20.307   3.640  47.717  1.00  0.00    -0.247 OA
HETATM   15  N4  UNL     1      19.655   1.896  48.914  1.00  0.00    -0.308 N 
HETATM   16  C12 UNL     1      19.535   1.061  50.061  1.00  0.00     0.042 C 
HETATM   17  C13 UNL     1      18.272   0.709  49.848  1.00  0.00     0.030 C 
HETATM   18  C14 UNL     1      17.442  -0.173  50.654  1.00  0.00     0.001 C 
HETATM   19  C15 UNL     1      17.677  -0.485  51.918  1.00  0.00     0.008 C 
HETATM   20  C16 UNL     1      18.686  -0.178  52.963  1.00  0.00     0.164 C 
HETATM   21  C17 UNL     1      20.011   0.124  52.355  1.00  0.00     0.018 C 
HETATM   22  C18 UNL     1      20.386   0.624  51.188  1.00  0.00    -0.029 C 
HETATM   23  C19 UNL     1      21.859   0.600  51.379  1.00  0.00     0.086 C 
HETATM   24  H11 UNL     1      22.565   3.724  48.390  1.00  0.00     0.164 HD
HETATM   25  H12 UNL     1      18.835   1.864  48.260  1.00  0.00     0.170 HD
ENDROOT
BRANCH   1  26
HETATM   26  O1  UNL     1      26.741   0.027  52.276  1.00  0.00    -0.352 OA
HETATM   27  C1  UNL     1      26.619  -1.278  52.806  1.00  0.00     0.210 C 
ENDBRANCH   1  26
BRANCH   6  28
HETATM   28  O2  UNL     1      27.298   1.971  54.107  1.00  0.00    -0.337 OA
HETATM   29  C7  UNL     1      28.484   2.526  53.554  1.00  0.00     0.211 C 
ENDBRANCH   6  28
BRANCH  20  30
HETATM   30  O5  UNL     1      18.792  -1.244  53.842  1.00  0.00    -0.388 OA
HETATM   31  H17 UNL     1      19.426  -0.988  54.560  1.00  0.00     0.210 HD
ENDBRANCH  20  30
TORSDOF 3
ENDMDL
MODEL 3
REMARK VINA RESULT:      -7.7      5.304      8.859
REMARK  3 active torsions:
REMARK  status: ('A' for Active; 'I' for Inactive)
REMARK    1  A    between atoms: O1_2  and  C2_3 
REMARK    2  A    between atoms: C6_8  and  O2_9 
REMARK    3  A    between atoms: C16_24  and  O5_25 
ROOT
HETATM    1  C2  UNL     1      27.321   7.794  48.361  1.00  0.00     0.121 A 
HETATM    2  C3  UNL     1      28.640   7.392  48.567  1.00  0.00     0.055 A 
HETATM    3  C4  UNL     1      29.527   7.597  47.502  1.00  0.00     0.029 A 
HETATM    4  C5  UNL     1      29.051   8.172  46.343  1.00  0.00     0.163 A 
HETATM    5  N1  UNL     1      27.764   8.537  46.211  1.00  0.00    -0.202 NA
HETATM    6  C6  UNL     1      26.849   8.368  47.201  1.00  0.00     0.200 A 
HETATM    7  N2  UNL     1      29.982   8.364  45.286  1.00  0.00    -0.217 NA
HETATM    8  C8  UNL     1      31.209   8.001  45.451  1.00  0.00     0.255 A 
HETATM    9  O3  UNL     1      31.685   7.423  46.617  1.00  0.00    -0.327 OA
HETATM   10  C9  UNL     1      30.924   7.158  47.754  1.00  0.00     0.119 A 
HETATM   11  C10 UNL     1      31.414   7.987  48.945  1.00  0.00     0.168 C 
HETATM   12  N3  UNL     1      32.771   8.463  48.755  1.00  0.00    -0.340 N 
HETATM   13  C11 UNL     1      33.989   7.717  48.583  1.00  0.00     0.320 C 
HETATM   14  O4  UNL     1      35.025   8.443  48.536  1.00  0.00    -0.247 OA
HETATM   15  N4  UNL     1      34.341   6.340  48.448  1.00  0.00    -0.308 N 
HETATM   16  C12 UNL     1      33.539   5.236  48.043  1.00  0.00     0.042 C 
HETATM   17  C13 UNL     1      34.531   4.354  47.989  1.00  0.00     0.030 C 
HETATM   18  C14 UNL     1      34.456   2.946  47.629  1.00  0.00     0.001 C 
HETATM   19  C15 UNL     1      33.465   2.391  46.950  1.00  0.00     0.008 C 
HETATM   20  C16 UNL     1      32.182   2.807  46.329  1.00  0.00     0.164 C 
HETATM   21  C17 UNL     1      31.596   3.975  47.043  1.00  0.00     0.018 C 
HETATM   22  C18 UNL     1      32.116   4.971  47.742  1.00  0.00    -0.029 C 
HETATM   23  C19 UNL     1      30.867   5.690  48.102  1.00  0.00     0.086 C 
HETATM   24  H11 UNL     1      32.928   9.504  48.735  1.00  0.00     0.164 HD
HETATM   25  H12 UNL     1      35.335   6.099  48.681  1.00  0.00     0.170 HD
ENDROOT
BRANCH   1  26
HETATM   26  O1  UNL     1      26.433   7.604  49.384  1.00  0.00    -0.352 OA
HETATM   27  C1  UNL     1      25.819   6.367  49.687  1.00  0.00     0.210 C 
ENDBRANCH   1  26
BRANCH   6  28
HETATM   28  O2  UNL     1      25.523   8.739  47.077  1.00  0.00    -0.337 OA
HETATM   29  C7  UNL     1      24.645   7.993  46.244  1.00  0.00     0.211 C 
ENDBRANCH   6  28
BRANCH  20  30
HETATM   30  O5  UNL     1      31.292   1.745  46.333  1.00  0.00    -0.388 OA
HETATM   31  H17 UNL     1      31.537   1.142  47.081  1.00  0.00     0.210 HD
ENDBRANCH  20  30
TORSDOF 3
ENDMDL
MODEL 4
REMARK VINA RESULT:      -7.6      2.947      5.171
REMARK  3 active torsions:
REMARK  status: ('A' for Active; 'I' for Inactive)
REMARK    1  A    between atoms: O1_2  and  C2_3 
REMARK    2  A    between atoms: C6_8  and  O2_9 
REMARK    3  A    between atoms: C16_24  and  O5_25 
ROOT
HETATM    1  C2  UNL     1      27.796   7.151  47.982  1.00  0.00     0.121 A 
HETATM    2  C3  UNL     1      26.501   6.923  48.447  1.00  0.00     0.055 A 
HETATM    3  C4  UNL     1      26.238   5.642  48.949  1.00  0.00     0.029 A 
HETATM    4  C5  UNL     1      27.252   4.709  48.953  1.00  0.00     0.163 A 
HETATM    5  N1  UNL     1      28.480   4.996  48.488  1.00  0.00    -0.202 NA
HETATM    6  C6  UNL     1      28.807   6.216  47.988  1.00  0.00     0.200 A 
HETATM    7  N2  UNL     1      26.945   3.421  49.471  1.00  0.00    -0.217 NA
HETATM    8  C8  UNL     1      25.754   3.183  49.908  1.00  0.00     0.255 A 
HETATM    9  O3  UNL     1      24.736   4.123  49.903  1.00  0.00    -0.327 OA
HETATM   10  C9  UNL     1      24.849   5.432  49.436  1.00  0.00     0.119 A 
HETATM   11  C10 UNL     1      24.648   6.437  50.574  1.00  0.00     0.168 C 
HETATM   12  N3  UNL     1      23.954   5.848  51.703  1.00  0.00    -0.340 N 
HETATM   13  C11 UNL     1      22.633   5.281  51.773  1.00  0.00     0.320 C 
HETATM   14  O4  UNL     1      22.292   4.938  52.942  1.00  0.00    -0.247 OA
HETATM   15  N4  UNL     1      21.585   4.998  50.845  1.00  0.00    -0.308 N 
HETATM   16  C12 UNL     1      21.647   4.827  49.434  1.00  0.00     0.042 C 
HETATM   17  C13 UNL     1      20.386   4.438  49.283  1.00  0.00     0.030 C 
HETATM   18  C14 UNL     1      19.705   4.074  48.051  1.00  0.00     0.001 C 
HETATM   19  C15 UNL     1      20.310   3.720  46.929  1.00  0.00     0.008 C 
HETATM   20  C16 UNL     1      21.697   3.544  46.429  1.00  0.00     0.164 C 
HETATM   21  C17 UNL     1      22.642   4.443  47.147  1.00  0.00     0.018 C 
HETATM   22  C18 UNL     1      22.650   4.977  48.358  1.00  0.00    -0.029 C 
HETATM   23  C19 UNL     1      23.928   5.731  48.278  1.00  0.00     0.086 C 
HETATM   24  H11 UNL     1      24.458   5.815  52.627  1.00  0.00     0.164 HD
HETATM   25  H12 UNL     1      20.626   4.901  51.258  1.00  0.00     0.170 HD
ENDROOT
BRANCH   1  26
HETATM   26  O1  UNL     1      28.080   8.394  47.485  1.00  0.00    -0.352 OA
HETATM   27  C1  UNL     1      28.373   9.524  48.285  1.00  0.00     0.210 C 
ENDBRANCH   1  26
BRANCH   6  28
HETATM   28  O2  UNL     1      30.066   6.524  47.507  1.00  0.00    -0.337 OA
HETATM   29  C7  UNL     1      31.162   6.656  48.403  1.00  0.00     0.211 C 
ENDBRANCH   6  28
BRANCH  20  30
HETATM   30  O5  UNL     1      21.740   3.790  45.066  1.00  0.00    -0.388 OA
HETATM   31  H17 UNL     1      21.628   2.926  44.594  1.00  0.00     0.210 HD
ENDBRANCH  20  30
TORSDOF 3
ENDMDL
MODEL 5
REMARK VINA RESULT:      -7.5      3.621      4.111
REMARK  3 active torsions:
REMARK  status: ('A' for Active; 'I' for Inactive)
REMARK    1  A    between atoms: O1_2  and  C2_3 
REMARK    2  A    between atoms: C6_8  and  O2_9 
REMARK    3  A    between atoms: C16_24  and  O5_25 
ROOT
HETATM    1  C2  UNL     1      22.184   4.431  47.770  1.00  0.00     0.121 A 
HETATM    2  C3  UNL     1      22.426   3.368  48.639  1.00  0.00     0.055 A 
HETATM    3  C4  UNL     1      22.173   3.604  49.996  1.00  0.00     0.029 A 
HETATM    4  C5  UNL     1      21.711   4.845  50.380  1.00  0.00     0.163 A 
HETATM    5  N1  UNL     1      21.500   5.828  49.488  1.00  0.00    -0.202 NA
HETATM    6  C6  UNL     1      21.722   5.670  48.157  1.00  0.00     0.200 A 
HETATM    7  N2  UNL     1      21.467   5.045  51.766  1.00  0.00    -0.217 NA
HETATM    8  C8  UNL     1      21.683   4.076  52.592  1.00  0.00     0.255 A 
HETATM    9  O3  UNL     1      22.147   2.830  52.204  1.00  0.00    -0.327 OA
HETATM   10  C9  UNL     1      22.441   2.451  50.895  1.00  0.00     0.119 A 
HETATM   11  C10 UNL     1      21.506   1.331  50.428  1.00  0.00     0.168 C 
HETATM   12  N3  UNL     1      20.891   0.636  51.542  1.00  0.00    -0.340 N 
HETATM   13  C11 UNL     1      21.503  -0.117  52.604  1.00  0.00     0.320 C 
HETATM   14  O4  UNL     1      20.669  -0.681  53.370  1.00  0.00    -0.247 OA
HETATM   15  N4  UNL     1      22.837  -0.399  53.028  1.00  0.00    -0.308 N 
HETATM   16  C12 UNL     1      24.042   0.308  52.756  1.00  0.00     0.042 C 
HETATM   17  C13 UNL     1      24.809  -0.399  53.578  1.00  0.00     0.030 C 
HETATM   18  C14 UNL     1      26.232  -0.236  53.833  1.00  0.00     0.001 C 
HETATM   19  C15 UNL     1      26.926   0.860  53.573  1.00  0.00     0.008 C 
HETATM   20  C16 UNL     1      26.687   2.211  53.005  1.00  0.00     0.164 C 
HETATM   21  C17 UNL     1      25.559   2.191  52.034  1.00  0.00     0.018 C 
HETATM   22  C18 UNL     1      24.479   1.437  51.907  1.00  0.00    -0.029 C 
HETATM   23  C19 UNL     1      23.888   2.067  50.698  1.00  0.00     0.086 C 
HETATM   24  H11 UNL     1      19.841   0.662  51.618  1.00  0.00     0.164 HD
HETATM   25  H12 UNL     1      22.953  -1.251  53.628  1.00  0.00     0.170 HD
ENDROOT
BRANCH   1  26
HETATM   26  O1  UNL     1      22.422   4.228  46.438  1.00  0.00    -0.352 OA
HETATM   27  C1  UNL     1      21.469   3.714  45.528  1.00  0.00     0.210 C 
ENDBRANCH   1  26
BRANCH   6  28
HETATM   28  O2  UNL     1      21.508   6.673  47.230  1.00  0.00    -0.337 OA
HETATM   29  C7  UNL     1      20.185   7.018  46.840  1.00  0.00     0.211 C 
ENDBRANCH   6  28
BRANCH  20  30
HETATM   30  O5  UNL     1      27.840   2.675  52.394  1.00  0.00    -0.388 OA
HETATM   31  H17 UNL     1      27.612   2.933  51.464  1.00  0.00     0.210 HD
ENDBRANCH  20  30
TORSDOF 3
ENDMDL
MODEL 6
REMARK VINA RESULT:      -7.3      3.221      7.160
REMARK  3 active torsions:
REMARK  status: ('A' for Active; 'I' for Inactive)
REMARK    1  A    between atoms: O1_2  and  C2_3 
REMARK    2  A    between atoms: C6_8  and  O2_9 
REMARK    3  A    between atoms: C16_24  and  O5_25 
ROOT
HETATM    1  C2  UNL     1      17.908   2.788  51.353  1.00  0.00     0.121 A 
HETATM    2  C3  UNL     1      19.241   3.052  51.666  1.00  0.00     0.055 A 
HETATM    3  C4  UNL     1      20.198   2.569  50.764  1.00  0.00     0.029 A 
HETATM    4  C5  UNL     1      19.773   1.880  49.649  1.00  0.00     0.163 A 
HETATM    5  N1  UNL     1      18.469   1.660  49.408  1.00  0.00    -0.202 NA
HETATM    6  C6  UNL     1      17.487   2.099  50.237  1.00  0.00     0.200 A 
HETATM    7  N2  UNL     1      20.775   1.407  48.759  1.00  0.00    -0.217 NA
HETATM    8  C8  UNL     1      22.017   1.638  49.025  1.00  0.00     0.255 A 
HETATM    9  O3  UNL     1      22.442   2.331  50.146  1.00  0.00    -0.327 OA
HETATM   10  C9  UNL     1      21.609   2.867  51.127  1.00  0.00     0.119 A 
HETATM   11  C10 UNL     1      21.718   4.394  51.161  1.00  0.00     0.168 C 
HETATM   12  N3  UNL     1      22.940   4.866  50.538  1.00  0.00    -0.340 N 
HETATM   13  C11 UNL     1      24.310   4.612  50.898  1.00  0.00     0.320 C 
HETATM   14  O4  UNL     1      25.144   5.258  50.200  1.00  0.00    -0.247 OA
HETATM   15  N4  UNL     1      24.987   3.803  51.860  1.00  0.00    -0.308 N 
HETATM   16  C12 UNL     1      24.530   2.648  52.554  1.00  0.00     0.042 C 
HETATM   17  C13 UNL     1      25.696   2.349  53.115  1.00  0.00     0.030 C 
HETATM   18  C14 UNL     1      26.002   1.239  54.004  1.00  0.00     0.001 C 
HETATM   19  C15 UNL     1      25.274   0.140  54.119  1.00  0.00     0.008 C 
HETATM   20  C16 UNL     1      24.032  -0.429  53.537  1.00  0.00     0.164 C 
HETATM   21  C17 UNL     1      23.095   0.650  53.118  1.00  0.00     0.018 C 
HETATM   22  C18 UNL     1      23.265   1.900  52.716  1.00  0.00    -0.029 C 
HETATM   23  C19 UNL     1      21.845   2.276  52.496  1.00  0.00     0.086 C 
HETATM   24  H11 UNL     1      22.852   5.491  49.695  1.00  0.00     0.164 HD
HETATM   25  H12 UNL     1      25.966   4.098  52.094  1.00  0.00     0.170 HD
ENDROOT
BRANCH   1  26
HETATM   26  O1  UNL     1      16.952   3.248  52.216  1.00  0.00    -0.352 OA
HETATM   27  C1  UNL     1      16.257   4.470  52.058  1.00  0.00     0.210 C 
ENDBRANCH   1  26
BRANCH   6  28
HETATM   28  O2  UNL     1      16.142   1.879  50.000  1.00  0.00    -0.337 OA
HETATM   29  C7  UNL     1      15.509   2.467  48.870  1.00  0.00     0.211 C 
ENDBRANCH   6  28
BRANCH  20  30
HETATM   30  O5  UNL     1      23.421  -1.264  54.458  1.00  0.00    -0.388 OA
HETATM   31  H17 UNL     1      22.917  -1.956  53.958  1.00  0.00     0.210 HD
ENDBRANCH  20  30
TORSDOF 3
ENDMDL
MODEL 7
REMARK VINA RESULT:      -7.2      5.117      9.856
REMARK  3 active torsions:
REMARK  status: ('A' for Active; 'I' for Inactive)
REMARK    1  A    between atoms: O1_2  and  C2_3 
REMARK    2  A    between atoms: C6_8  and  O2_9 
REMARK    3  A    between atoms: C16_24  and  O5_25 
ROOT
HETATM    1  C2  UNL     1      27.970   7.029  48.550  1.00  0.00     0.121 A 
HETATM    2  C3  UNL     1      29.180   6.454  48.164  1.00  0.00     0.055 A 
HETATM    3  C4  UNL     1      30.296   7.301  48.154  1.00  0.00     0.029 A 
HETATM    4  C5  UNL     1      30.131   8.621  48.518  1.00  0.00     0.163 A 
HETATM    5  N1  UNL     1      28.933   9.110  48.879  1.00  0.00    -0.202 NA
HETATM    6  C6  UNL     1      27.809   8.348  48.913  1.00  0.00     0.200 A 
HETATM    7  N2  UNL     1      31.287   9.448  48.495  1.00  0.00    -0.217 NA
HETATM    8  C8  UNL     1      32.420   8.941  48.142  1.00  0.00     0.255 A 
HETATM    9  O3  UNL     1      32.583   7.615  47.777  1.00  0.00    -0.327 OA
HETATM   10  C9  UNL     1      31.570   6.658  47.739  1.00  0.00     0.119 A 
HETATM   11  C10 UNL     1      31.829   5.547  48.761  1.00  0.00     0.168 C 
HETATM   12  N3  UNL     1      33.221   5.495  49.166  1.00  0.00    -0.340 N 
HETATM   13  C11 UNL     1      34.398   5.246  48.376  1.00  0.00     0.320 C 
HETATM   14  O4  UNL     1      35.460   5.174  49.059  1.00  0.00    -0.247 OA
HETATM   15  N4  UNL     1      34.684   5.055  46.990  1.00  0.00    -0.308 N 
HETATM   16  C12 UNL     1      33.927   5.440  45.848  1.00  0.00     0.042 C 
HETATM   17  C13 UNL     1      34.848   5.108  44.950  1.00  0.00     0.030 C 
HETATM   18  C14 UNL     1      34.768   5.227  43.502  1.00  0.00     0.001 C 
HETATM   19  C15 UNL     1      33.924   6.012  42.854  1.00  0.00     0.008 C 
HETATM   20  C16 UNL     1      32.842   6.978  43.176  1.00  0.00     0.164 C 
HETATM   21  C17 UNL     1      32.185   6.633  44.466  1.00  0.00     0.018 C 
HETATM   22  C18 UNL     1      32.595   6.014  45.562  1.00  0.00    -0.029 C 
HETATM   23  C19 UNL     1      31.344   6.086  46.360  1.00  0.00     0.086 C 
HETATM   24  H11 UNL     1      33.443   5.656  50.182  1.00  0.00     0.164 HD
HETATM   25  H12 UNL     1      35.583   4.559  46.775  1.00  0.00     0.170 HD
ENDROOT
BRANCH   1  26
HETATM   26  O1  UNL     1      26.864   6.224  48.568  1.00  0.00    -0.352 OA
HETATM   27  C1  UNL     1      26.880   4.856  48.928  1.00  0.00     0.210 C 
ENDBRANCH   1  26
BRANCH   6  28
HETATM   28  O2  UNL     1      26.571   8.840  49.283  1.00  0.00    -0.337 OA
HETATM   29  C7  UNL     1      25.981   9.913  48.559  1.00  0.00     0.211 C 
ENDBRANCH   6  28
BRANCH  20  30
HETATM   30  O5  UNL     1      31.910   6.999  42.152  1.00  0.00    -0.388 OA
HETATM   31  H17 UNL     1      32.191   6.338  41.468  1.00  0.00     0.210 HD
ENDBRANCH  20  30
TORSDOF 3
ENDMDL
MODEL 8
REMARK VINA RESULT:      -7.0     21.879     24.698
REMARK  3 active torsions:
REMARK  status: ('A' for Active; 'I' for Inactive)
REMARK    1  A    between atoms: O1_2  and  C2_3 
REMARK    2  A    between atoms: C6_8  and  O2_9 
REMARK    3  A    between atoms: C16_24  and  O5_25 
ROOT
HETATM    1  C2  UNL     1      43.535   1.579  69.104  1.00  0.00     0.121 A 
HETATM    2  C3  UNL     1      42.747   0.617  68.473  1.00  0.00     0.055 A 
HETATM    3  C4  UNL     1      41.632   0.160  69.187  1.00  0.00     0.029 A 
HETATM    4  C5  UNL     1      41.388   0.680  70.441  1.00  0.00     0.163 A 
HETATM    5  N1  UNL     1      42.191   1.607  70.991  1.00  0.00    -0.202 NA
HETATM    6  C6  UNL     1      43.288   2.095  70.357  1.00  0.00     0.200 A 
HETATM    7  N2  UNL     1      40.247   0.191  71.133  1.00  0.00    -0.217 NA
HETATM    8  C8  UNL     1      39.500  -0.700  70.572  1.00  0.00     0.255 A 
HETATM    9  O3  UNL     1      39.747  -1.220  69.312  1.00  0.00    -0.327 OA
HETATM   10  C9  UNL     1      40.814  -0.864  68.488  1.00  0.00     0.119 A 
HETATM   11  C10 UNL     1      40.312  -0.194  67.205  1.00  0.00     0.168 C 
HETATM   12  N3  UNL     1      38.919  -0.499  66.941  1.00  0.00    -0.340 N 
HETATM   13  C11 UNL     1      38.289  -1.770  66.699  1.00  0.00     0.320 C 
HETATM   14  O4  UNL     1      37.062  -1.678  66.405  1.00  0.00    -0.247 OA
HETATM   15  N4  UNL     1      38.698  -3.138  66.704  1.00  0.00    -0.308 N 
HETATM   16  C12 UNL     1      39.813  -3.747  67.346  1.00  0.00     0.042 C 
HETATM   17  C13 UNL     1      39.469  -5.000  67.067  1.00  0.00     0.030 C 
HETATM   18  C14 UNL     1      40.175  -6.220  67.425  1.00  0.00     0.001 C 
HETATM   19  C15 UNL     1      41.074  -6.318  68.390  1.00  0.00     0.008 C 
HETATM   20  C16 UNL     1      41.712  -5.436  69.401  1.00  0.00     0.164 C 
HETATM   21  C17 UNL     1      41.762  -4.026  68.925  1.00  0.00     0.018 C 
HETATM   22  C18 UNL     1      41.011  -3.316  68.098  1.00  0.00    -0.029 C 
HETATM   23  C19 UNL     1      41.732  -2.020  68.172  1.00  0.00     0.086 C 
HETATM   24  H11 UNL     1      38.237   0.302  66.912  1.00  0.00     0.164 HD
HETATM   25  H12 UNL     1      38.092  -3.796  66.156  1.00  0.00     0.170 HD
ENDROOT
BRANCH   1  26
HETATM   26  O1  UNL     1      44.631   2.042  68.429  1.00  0.00    -0.352 OA
HETATM   27  C1  UNL     1      44.574   2.952  67.347  1.00  0.00     0.210 C 
ENDBRANCH   1  26
BRANCH   6  28
HETATM   28  O2  UNL     1      44.121   3.049  70.912  1.00  0.00    -0.337 OA
HETATM   29  C7  UNL     1      43.757   4.424  70.880  1.00  0.00     0.211 C 
ENDBRANCH   6  28
BRANCH  20  30
HETATM   30  O5  UNL     1      42.988  -5.893  69.686  1.00  0.00    -0.388 OA
HETATM   31  H17 UNL     1      43.585  -5.105  69.766  1.00  0.00     0.210 HD
ENDBRANCH  20  30
TORSDOF 3
ENDMDL
MODEL 9
REMARK VINA RESULT:      -7.0      7.246     10.768
REMARK  3 active torsions:
REMARK  status: ('A' for Active; 'I' for Inactive)
REMARK    1  A    between atoms: O1_2  and  C2_3 
REMARK    2  A    between atoms: C6_8  and  O2_9 
REMARK    3  A    between atoms: C16_24  and  O5_25 
ROOT
HETATM    1  C2  UNL     1      18.569  -1.600  53.464  1.00  0.00     0.121 A 
HETATM    2  C3  UNL     1      17.629  -0.993  52.632  1.00  0.00     0.055 A 
HETATM    3  C4  UNL     1      18.007   0.223  52.049  1.00  0.00     0.029 A 
HETATM    4  C5  UNL     1      19.258   0.732  52.327  1.00  0.00     0.163 A 
HETATM    5  N1  UNL     1      20.117   0.093  53.139  1.00  0.00    -0.202 NA
HETATM    6  C6  UNL     1      19.818  -1.089  53.738  1.00  0.00     0.200 A 
HETATM    7  N2  UNL     1      19.604   1.968  51.715  1.00  0.00    -0.217 NA
HETATM    8  C8  UNL     1      18.752   2.551  50.941  1.00  0.00     0.255 A 
HETATM    9  O3  UNL     1      17.496   2.037  50.664  1.00  0.00    -0.327 OA
HETATM   10  C9  UNL     1      16.982   0.844  51.169  1.00  0.00     0.119 A 
HETATM   11  C10 UNL     1      16.733  -0.164  50.043  1.00  0.00     0.168 C 
HETATM   12  N3  UNL     1      16.638   0.481  48.748  1.00  0.00    -0.340 N 
HETATM   13  C11 UNL     1      15.695   1.462  48.279  1.00  0.00     0.320 C 
HETATM   14  O4  UNL     1      15.832   1.751  47.055  1.00  0.00    -0.247 OA
HETATM   15  N4  UNL     1      14.622   2.211  48.849  1.00  0.00    -0.308 N 
HETATM   16  C12 UNL     1      14.363   2.529  50.212  1.00  0.00     0.042 C 
HETATM   17  C13 UNL     1      13.348   3.353  49.975  1.00  0.00     0.030 C 
HETATM   18  C14 UNL     1      12.549   4.087  50.944  1.00  0.00     0.001 C 
HETATM   19  C15 UNL     1      12.919   4.347  52.187  1.00  0.00     0.008 C 
HETATM   20  C16 UNL     1      14.083   4.087  53.071  1.00  0.00     0.164 C 
HETATM   21  C17 UNL     1      14.779   2.829  52.683  1.00  0.00     0.018 C 
HETATM   22  C18 UNL     1      14.911   2.176  51.539  1.00  0.00    -0.029 C 
HETATM   23  C19 UNL     1      15.742   1.037  52.008  1.00  0.00     0.086 C 
HETATM   24  H11 UNL     1      17.345   0.217  48.014  1.00  0.00     0.164 HD
HETATM   25  H12 UNL     1      13.916   2.585  48.169  1.00  0.00     0.170 HD
ENDROOT
BRANCH   1  26
HETATM   26  O1  UNL     1      18.225  -2.789  54.047  1.00  0.00    -0.352 OA
HETATM   27  C1  UNL     1      17.185  -3.631  53.587  1.00  0.00     0.210 C 
ENDBRANCH   1  26
BRANCH   6  28
HETATM   28  O2  UNL     1      20.693  -1.755  54.576  1.00  0.00    -0.337 OA
HETATM   29  C7  UNL     1      22.051  -1.343  54.668  1.00  0.00     0.211 C 
ENDBRANCH   6  28
BRANCH  20  30
HETATM   30  O5  UNL     1      13.666   4.018  54.390  1.00  0.00    -0.388 OA
HETATM   31  H17 UNL     1      14.363   3.540  54.908  1.00  0.00     0.210 HD
ENDBRANCH  20  30
TORSDOF 3
ENDMDL
