MODEL 1
REMARK VINA RESULT:      -8.4      0.000      0.000
REMARK  5 active torsions:
REMARK  status: ('A' for Active; 'I' for Inactive)
REMARK    1  A    between atoms: C4_5  and  N1_6 
REMARK    2  A    between atoms: N1_6  and  C5_7 
REMARK    3  A    between atoms: C9_11  and  N2_12 
REMARK    4  A    between atoms: N2_12  and  C10_13 
REMARK    5  A    between atoms: C13_17  and  C14_18 
ROOT
HETATM    1  C5  UNL     1      24.012   0.278  53.321  1.00  0.00     0.030 A 
HETATM    2  C6  UNL     1      22.948  -0.601  53.553  1.00  0.00     0.029 A 
HETATM    3  C7  UNL     1      21.836  -0.566  52.753  1.00  0.00     0.004 A 
HETATM    4  C8  UNL     1      21.802   0.347  51.734  1.00  0.00     0.030 A 
HETATM    5  C9  UNL     1      22.800   1.246  51.436  1.00  0.00     0.051 A 
HETATM    6  C19 UNL     1      23.882   1.158  52.272  1.00  0.00     0.059 A 
ENDROOT
BRANCH   5   7
HETATM    7  N2  UNL     1      22.784   2.195  50.388  1.00  0.00    -0.188 N 
HETATM    8  H10 UNL     1      22.454   1.862  49.454  1.00  0.00     0.184 HD
BRANCH   7   9
HETATM    9  C10 UNL     1      23.168   3.555  50.469  1.00  0.00     0.727 A 
HETATM   10  N3  UNL     1      22.494   4.565  51.031  1.00  0.00    -0.075 NA
HETATM   11  C11 UNL     1      22.904   5.836  51.078  1.00  0.00     0.139 A 
HETATM   12  C12 UNL     1      24.102   6.185  50.524  1.00  0.00     0.053 A 
HETATM   13  C13 UNL     1      24.817   5.186  49.942  1.00  0.00     0.089 A 
HETATM   14  N5  UNL     1      24.334   3.945  49.938  1.00  0.00    -0.062 NA
BRANCH  13  15
HETATM   15  C14 UNL     1      26.107   5.452  49.321  1.00  0.00     0.011 A 
HETATM   16  C15 UNL     1      26.514   6.671  48.867  1.00  0.00     0.017 A 
HETATM   17  C16 UNL     1      27.744   6.904  48.279  1.00  0.00     0.020 A 
HETATM   18  C17 UNL     1      28.631   5.834  48.138  1.00  0.00     0.116 A 
HETATM   19  N4  UNL     1      28.246   4.641  48.577  1.00  0.00    -0.272 NA
HETATM   20  C18 UNL     1      27.036   4.426  49.152  1.00  0.00     0.130 A 
ENDBRANCH  13  15
ENDBRANCH   7   9
ENDBRANCH   5   7
BRANCH   1  21
HETATM   21  N1  UNL     1      25.137   0.222  54.174  1.00  0.00    -0.384 N 
HETATM   22  H6  UNL     1      25.028   0.597  55.161  1.00  0.00     0.160 HD
BRANCH  21  23
HETATM   23  C4  UNL     1      26.467  -0.277  53.941  1.00  0.00     0.095 C 
HETATM   24  C3  UNL     1      27.418   0.854  53.812  1.00  0.00     0.103 C 
HETATM   25  S1  UNL     1      29.088   0.159  54.145  1.00  0.00    -0.140 SA
HETATM   26  C2  UNL     1      28.995  -1.434  53.274  1.00  0.00     0.041 C 
HETATM   27  C1  UNL     1      27.862  -1.964  52.758  1.00  0.00    -0.018 C 
HETATM   28  C20 UNL     1      26.542  -1.294  52.847  1.00  0.00     0.053 C 
ENDBRANCH  21  23
ENDBRANCH   1  21
TORSDOF 5
ENDMDL
MODEL 2
REMARK VINA RESULT:      -8.3      1.727      2.775
REMARK  5 active torsions:
REMARK  status: ('A' for Active; 'I' for Inactive)
REMARK    1  A    between atoms: C4_5  and  N1_6 
REMARK    2  A    between atoms: N1_6  and  C5_7 
REMARK    3  A    between atoms: C9_11  and  N2_12 
REMARK    4  A    between atoms: N2_12  and  C10_13 
REMARK    5  A    between atoms: C13_17  and  C14_18 
ROOT
HETATM    1  C5  UNL     1      23.781  -0.491  53.649  1.00  0.00     0.030 A 
HETATM    2  C6  UNL     1      23.088  -1.005  54.752  1.00  0.00     0.029 A 
HETATM    3  C7  UNL     1      21.769  -0.690  54.946  1.00  0.00     0.004 A 
HETATM    4  C8  UNL     1      21.161   0.133  54.038  1.00  0.00     0.030 A 
HETATM    5  C9  UNL     1      21.764   0.682  52.930  1.00  0.00     0.051 A 
HETATM    6  C19 UNL     1      23.081   0.328  52.794  1.00  0.00     0.059 A 
ENDROOT
BRANCH   5   7
HETATM    7  N2  UNL     1      21.153   1.533  51.981  1.00  0.00    -0.188 N 
HETATM    8  H10 UNL     1      20.289   2.036  52.285  1.00  0.00     0.184 HD
BRANCH   7   9
HETATM    9  C10 UNL     1      21.587   1.778  50.656  1.00  0.00     0.727 A 
HETATM   10  N3  UNL     1      21.062   1.304  49.521  1.00  0.00    -0.075 NA
HETATM   11  C11 UNL     1      21.513   1.568  48.291  1.00  0.00     0.139 A 
HETATM   12  C12 UNL     1      22.596   2.384  48.125  1.00  0.00     0.053 A 
HETATM   13  C13 UNL     1      23.158   2.886  49.256  1.00  0.00     0.089 A 
HETATM   14  N5  UNL     1      22.645   2.571  50.443  1.00  0.00    -0.062 NA
BRANCH  13  15
HETATM   15  C14 UNL     1      24.317   3.765  49.188  1.00  0.00     0.011 A 
HETATM   16  C15 UNL     1      25.599   3.382  49.449  1.00  0.00     0.017 A 
HETATM   17  C16 UNL     1      26.687   4.233  49.380  1.00  0.00     0.020 A 
HETATM   18  C17 UNL     1      26.473   5.565  49.023  1.00  0.00     0.116 A 
HETATM   19  N4  UNL     1      25.228   5.951  48.766  1.00  0.00    -0.272 NA
HETATM   20  C18 UNL     1      24.168   5.105  48.837  1.00  0.00     0.130 A 
ENDBRANCH  13  15
ENDBRANCH   7   9
ENDBRANCH   5   7
BRANCH   1  21
HETATM   21  N1  UNL     1      25.144  -0.826  53.488  1.00  0.00    -0.384 N 
HETATM   22  H6  UNL     1      25.389  -1.847  53.336  1.00  0.00     0.160 HD
BRANCH  21  23
HETATM   23  C4  UNL     1      26.319   0.006  53.488  1.00  0.00     0.095 C 
HETATM   24  C3  UNL     1      26.886   0.083  54.856  1.00  0.00     0.103 C 
HETATM   25  S1  UNL     1      28.640   0.600  54.657  1.00  0.00    -0.140 SA
HETATM   26  C2  UNL     1      28.500   1.850  53.345  1.00  0.00     0.041 C 
HETATM   27  C1  UNL     1      27.383   2.080  52.616  1.00  0.00    -0.018 C 
HETATM   28  C20 UNL     1      26.121   1.324  52.809  1.00  0.00     0.053 C 
ENDBRANCH  21  23
ENDBRANCH   1  21
TORSDOF 5
ENDMDL
MODEL 3
REMARK VINA RESULT:      -8.3      2.525      6.660
REMARK  5 active torsions:
REMARK  status: ('A' for Active; 'I' for Inactive)
REMARK    1  A    between atoms: C4_5  and  N1_6 
REMARK    2  A    between atoms: N1_6  and  C5_7 
REMARK    3  A    between atoms: C9_11  and  N2_12 
REMARK    4  A    between atoms: N2_12  and  C10_13 
REMARK    5  A    between atoms: C13_17  and  C14_18 
ROOT
HETATM    1  C5  UNL     1      23.021   3.031  49.970  1.00  0.00     0.030 A 
HETATM    2  C6  UNL     1      22.848   2.821  48.596  1.00  0.00     0.029 A 
HETATM    3  C7  UNL     1      22.118   1.751  48.149  1.00  0.00     0.004 A 
HETATM    4  C8  UNL     1      21.572   0.907  49.077  1.00  0.00     0.030 A 
HETATM    5  C9  UNL     1      21.693   1.038  50.442  1.00  0.00     0.051 A 
HETATM    6  C19 UNL     1      22.433   2.126  50.822  1.00  0.00     0.059 A 
ENDROOT
BRANCH   5   7
HETATM    7  N2  UNL     1      21.137   0.177  51.415  1.00  0.00    -0.188 N 
HETATM    8  H10 UNL     1      20.178  -0.193  51.227  1.00  0.00     0.184 HD
BRANCH   7   9
HETATM    9  C10 UNL     1      21.742  -0.239  52.625  1.00  0.00     0.727 A 
HETATM   10  N3  UNL     1      21.138  -0.680  53.735  1.00  0.00    -0.075 NA
HETATM   11  C11 UNL     1      21.760  -1.061  54.854  1.00  0.00     0.139 A 
HETATM   12  C12 UNL     1      23.123  -1.018  54.923  1.00  0.00     0.053 A 
HETATM   13  C13 UNL     1      23.774  -0.576  53.815  1.00  0.00     0.089 A 
HETATM   14  N5  UNL     1      23.076  -0.214  52.740  1.00  0.00    -0.062 NA
BRANCH  13  15
HETATM   15  C14 UNL     1      25.227  -0.491  53.785  1.00  0.00     0.011 A 
HETATM   16  C15 UNL     1      25.995  -0.701  52.679  1.00  0.00     0.017 A 
HETATM   17  C16 UNL     1      27.376  -0.617  52.670  1.00  0.00     0.020 A 
HETATM   18  C17 UNL     1      28.033  -0.296  53.859  1.00  0.00     0.116 A 
HETATM   19  N4  UNL     1      27.297  -0.089  54.944  1.00  0.00    -0.272 NA
HETATM   20  C18 UNL     1      25.942  -0.175  54.939  1.00  0.00     0.130 A 
ENDBRANCH  13  15
ENDBRANCH   7   9
ENDBRANCH   5   7
BRANCH   1  21
HETATM   21  N1  UNL     1      23.791   4.136  50.395  1.00  0.00    -0.384 N 
HETATM   22  H6  UNL     1      23.500   4.628  51.290  1.00  0.00     0.160 HD
BRANCH  21  23
HETATM   23  C4  UNL     1      24.958   4.746  49.811  1.00  0.00     0.095 C 
HETATM   24  C3  UNL     1      24.552   5.764  48.812  1.00  0.00     0.103 C 
HETATM   25  S1  UNL     1      25.998   6.880  48.601  1.00  0.00    -0.140 SA
HETATM   26  C2  UNL     1      27.374   5.692  48.611  1.00  0.00     0.041 C 
HETATM   27  C1  UNL     1      27.260   4.384  48.938  1.00  0.00    -0.018 C 
HETATM   28  C20 UNL     1      25.974   3.758  49.332  1.00  0.00     0.053 C 
ENDBRANCH  21  23
ENDBRANCH   1  21
TORSDOF 5
ENDMDL
MODEL 4
REMARK VINA RESULT:      -8.3      3.025      7.755
REMARK  5 active torsions:
REMARK  status: ('A' for Active; 'I' for Inactive)
REMARK    1  A    between atoms: C4_5  and  N1_6 
REMARK    2  A    between atoms: N1_6  and  C5_7 
REMARK    3  A    between atoms: C9_11  and  N2_12 
REMARK    4  A    between atoms: N2_12  and  C10_13 
REMARK    5  A    between atoms: C13_17  and  C14_18 
ROOT
HETATM    1  C5  UNL     1      28.042   6.356  48.201  1.00  0.00     0.030 A 
HETATM    2  C6  UNL     1      27.124   7.383  48.452  1.00  0.00     0.029 A 
HETATM    3  C7  UNL     1      25.922   7.104  49.047  1.00  0.00     0.004 A 
HETATM    4  C8  UNL     1      25.652   5.805  49.382  1.00  0.00     0.030 A 
HETATM    5  C9  UNL     1      26.494   4.736  49.171  1.00  0.00     0.051 A 
HETATM    6  C19 UNL     1      27.678   5.083  48.574  1.00  0.00     0.059 A 
ENDROOT
BRANCH   5   7
HETATM    7  N2  UNL     1      26.234   3.389  49.511  1.00  0.00    -0.188 N 
HETATM    8  H10 UNL     1      26.204   2.701  48.725  1.00  0.00     0.184 HD
BRANCH   7   9
HETATM    9  C10 UNL     1      26.009   2.868  50.808  1.00  0.00     0.727 A 
HETATM   10  N3  UNL     1      25.008   3.161  51.646  1.00  0.00    -0.075 NA
HETATM   11  C11 UNL     1      24.842   2.639  52.864  1.00  0.00     0.139 A 
HETATM   12  C12 UNL     1      25.739   1.727  53.340  1.00  0.00     0.053 A 
HETATM   13  C13 UNL     1      26.771   1.402  52.518  1.00  0.00     0.089 A 
HETATM   14  N5  UNL     1      26.862   1.971  51.318  1.00  0.00    -0.062 NA
BRANCH  13  15
HETATM   15  C14 UNL     1      27.783   0.440  52.931  1.00  0.00     0.011 A 
HETATM   16  C15 UNL     1      29.042   0.763  53.339  1.00  0.00     0.017 A 
HETATM   17  C16 UNL     1      29.990  -0.167  53.726  1.00  0.00     0.020 A 
HETATM   18  C17 UNL     1      29.648  -1.520  53.704  1.00  0.00     0.116 A 
HETATM   19  N4  UNL     1      28.423  -1.848  53.308  1.00  0.00    -0.272 NA
HETATM   20  C18 UNL     1      27.502  -0.926  52.930  1.00  0.00     0.130 A 
ENDBRANCH  13  15
ENDBRANCH   7   9
ENDBRANCH   5   7
BRANCH   1  21
HETATM   21  N1  UNL     1      29.265   6.678  47.573  1.00  0.00    -0.384 N 
HETATM   22  H6  UNL     1      29.226   7.184  46.640  1.00  0.00     0.160 HD
BRANCH  21  23
HETATM   23  C4  UNL     1      30.623   6.438  47.987  1.00  0.00     0.095 C 
HETATM   24  C3  UNL     1      31.486   7.573  47.578  1.00  0.00     0.103 C 
HETATM   25  S1  UNL     1      32.980   7.493  48.648  1.00  0.00    -0.140 SA
HETATM   26  C2  UNL     1      33.294   5.703  48.693  1.00  0.00     0.041 C 
HETATM   27  C1  UNL     1      32.445   4.760  48.224  1.00  0.00    -0.018 C 
HETATM   28  C20 UNL     1      31.136   5.085  47.608  1.00  0.00     0.053 C 
ENDBRANCH  21  23
ENDBRANCH   1  21
TORSDOF 5
ENDMDL
MODEL 5
REMARK VINA RESULT:      -8.0      2.300      3.851
REMARK  5 active torsions:
REMARK  status: ('A' for Active; 'I' for Inactive)
REMARK    1  A    between atoms: C4_5  and  N1_6 
REMARK    2  A    between atoms: N1_6  and  C5_7 
REMARK    3  A    between atoms: C9_11  and  N2_12 
REMARK    4  A    between atoms: N2_12  and  C10_13 
REMARK    5  A    between atoms: C13_17  and  C14_18 
ROOT
HETATM    1  C5  UNL     1      25.977   2.077  52.761  1.00  0.00     0.030 A 
HETATM    2  C6  UNL     1      24.716   2.594  53.083  1.00  0.00     0.029 A 
HETATM    3  C7  UNL     1      24.047   3.388  52.190  1.00  0.00     0.004 A 
HETATM    4  C8  UNL     1      24.646   3.656  50.989  1.00  0.00     0.030 A 
HETATM    5  C9  UNL     1      25.879   3.192  50.592  1.00  0.00     0.051 A 
HETATM    6  C19 UNL     1      26.494   2.404  51.530  1.00  0.00     0.059 A 
ENDROOT
BRANCH   5   7
HETATM    7  N2  UNL     1      26.513   3.457  49.357  1.00  0.00    -0.188 N 
HETATM    8  H10 UNL     1      26.610   2.656  48.694  1.00  0.00     0.184 HD
BRANCH   7   9
HETATM    9  C10 UNL     1      27.033   4.699  48.919  1.00  0.00     0.727 A 
HETATM   10  N3  UNL     1      26.376   5.855  48.766  1.00  0.00    -0.075 NA
HETATM   11  C11 UNL     1      26.917   7.002  48.347  1.00  0.00     0.139 A 
HETATM   12  C12 UNL     1      28.246   7.053  48.038  1.00  0.00     0.053 A 
HETATM   13  C13 UNL     1      28.949   5.899  48.180  1.00  0.00     0.089 A 
HETATM   14  N5  UNL     1      28.330   4.799  48.603  1.00  0.00    -0.062 NA
BRANCH  13  15
HETATM   15  C14 UNL     1      30.372   5.847  47.876  1.00  0.00     0.011 A 
HETATM   16  C15 UNL     1      31.051   4.718  47.528  1.00  0.00     0.017 A 
HETATM   17  C16 UNL     1      32.404   4.689  47.243  1.00  0.00     0.020 A 
HETATM   18  C17 UNL     1      33.128   5.881  47.313  1.00  0.00     0.116 A 
HETATM   19  N4  UNL     1      32.478   6.988  47.651  1.00  0.00    -0.272 NA
HETATM   20  C18 UNL     1      31.149   7.003  47.928  1.00  0.00     0.130 A 
ENDBRANCH  13  15
ENDBRANCH   7   9
ENDBRANCH   5   7
BRANCH   1  21
HETATM   21  N1  UNL     1      26.644   1.273  53.712  1.00  0.00    -0.384 N 
HETATM   22  H6  UNL     1      26.625   1.587  54.726  1.00  0.00     0.160 HD
BRANCH  21  23
HETATM   23  C4  UNL     1      27.377   0.044  53.552  1.00  0.00     0.095 C 
HETATM   24  C3  UNL     1      28.801   0.338  53.262  1.00  0.00     0.103 C 
HETATM   25  S1  UNL     1      29.737  -1.187  53.689  1.00  0.00    -0.140 SA
HETATM   26  C2  UNL     1      28.626  -2.479  53.057  1.00  0.00     0.041 C 
HETATM   27  C1  UNL     1      27.362  -2.264  52.624  1.00  0.00    -0.018 C 
HETATM   28  C20 UNL     1      26.727  -0.924  52.616  1.00  0.00     0.053 C 
ENDBRANCH  21  23
ENDBRANCH   1  21
TORSDOF 5
ENDMDL
MODEL 6
REMARK VINA RESULT:      -7.8      2.732      7.496
REMARK  5 active torsions:
REMARK  status: ('A' for Active; 'I' for Inactive)
REMARK    1  A    between atoms: C4_5  and  N1_6 
REMARK    2  A    between atoms: N1_6  and  C5_7 
REMARK    3  A    between atoms: C9_11  and  N2_12 
REMARK    4  A    between atoms: N2_12  and  C10_13 
REMARK    5  A    between atoms: C13_17  and  C14_18 
ROOT
HETATM    1  C5  UNL     1      24.815   6.537  50.618  1.00  0.00     0.030 A 
HETATM    2  C6  UNL     1      23.625   7.251  50.809  1.00  0.00     0.029 A 
HETATM    3  C7  UNL     1      22.419   6.603  50.773  1.00  0.00     0.004 A 
HETATM    4  C8  UNL     1      22.415   5.254  50.545  1.00  0.00     0.030 A 
HETATM    5  C9  UNL     1      23.533   4.477  50.347  1.00  0.00     0.051 A 
HETATM    6  C19 UNL     1      24.706   5.184  50.396  1.00  0.00     0.059 A 
ENDROOT
BRANCH   5   7
HETATM    7  N2  UNL     1      23.550   3.083  50.111  1.00  0.00    -0.188 N 
HETATM    8  H10 UNL     1      23.614   2.773  49.115  1.00  0.00     0.184 HD
BRANCH   7   9
HETATM    9  C10 UNL     1      23.490   2.057  51.084  1.00  0.00     0.727 A 
HETATM   10  N3  UNL     1      22.407   1.403  51.520  1.00  0.00    -0.075 NA
HETATM   11  C11 UNL     1      22.406   0.439  52.445  1.00  0.00     0.139 A 
HETATM   12  C12 UNL     1      23.580   0.051  53.023  1.00  0.00     0.053 A 
HETATM   13  C13 UNL     1      24.704   0.692  52.607  1.00  0.00     0.089 A 
HETATM   14  N5  UNL     1      24.616   1.643  51.680  1.00  0.00    -0.062 NA
BRANCH  13  15
HETATM   15  C14 UNL     1      26.007   0.354  53.162  1.00  0.00     0.011 A 
HETATM   16  C15 UNL     1      26.896  -0.507  52.590  1.00  0.00     0.017 A 
HETATM   17  C16 UNL     1      28.130  -0.816  53.134  1.00  0.00     0.020 A 
HETATM   18  C17 UNL     1      28.499  -0.215  54.338  1.00  0.00     0.116 A 
HETATM   19  N4  UNL     1      27.643   0.627  54.905  1.00  0.00    -0.272 NA
HETATM   20  C18 UNL     1      26.434   0.921  54.362  1.00  0.00     0.130 A 
ENDBRANCH  13  15
ENDBRANCH   7   9
ENDBRANCH   5   7
BRANCH   1  21
HETATM   21  N1  UNL     1      26.040   7.239  50.647  1.00  0.00    -0.384 N 
HETATM   22  H6  UNL     1      26.557   7.294  51.573  1.00  0.00     0.160 HD
BRANCH  21  23
HETATM   23  C4  UNL     1      26.753   7.925  49.601  1.00  0.00     0.095 C 
HETATM   24  C3  UNL     1      26.714   9.389  49.836  1.00  0.00     0.103 C 
HETATM   25  S1  UNL     1      28.110  10.101  48.873  1.00  0.00    -0.140 SA
HETATM   26  C2  UNL     1      28.020   9.129  47.339  1.00  0.00     0.041 C 
HETATM   27  C1  UNL     1      27.242   8.036  47.164  1.00  0.00    -0.018 C 
HETATM   28  C20 UNL     1      26.358   7.495  48.225  1.00  0.00     0.053 C 
ENDBRANCH  21  23
ENDBRANCH   1  21
TORSDOF 5
ENDMDL
MODEL 7
REMARK VINA RESULT:      -7.8      2.120      6.112
REMARK  5 active torsions:
REMARK  status: ('A' for Active; 'I' for Inactive)
REMARK    1  A    between atoms: C4_5  and  N1_6 
REMARK    2  A    between atoms: N1_6  and  C5_7 
REMARK    3  A    between atoms: C9_11  and  N2_12 
REMARK    4  A    between atoms: N2_12  and  C10_13 
REMARK    5  A    between atoms: C13_17  and  C14_18 
ROOT
HETATM    1  C5  UNL     1      26.006   2.876  50.751  1.00  0.00     0.030 A 
HETATM    2  C6  UNL     1      26.634   3.665  49.779  1.00  0.00     0.029 A 
HETATM    3  C7  UNL     1      26.084   4.862  49.403  1.00  0.00     0.004 A 
HETATM    4  C8  UNL     1      24.917   5.254  49.999  1.00  0.00     0.030 A 
HETATM    5  C9  UNL     1      24.234   4.542  50.959  1.00  0.00     0.051 A 
HETATM    6  C19 UNL     1      24.836   3.357  51.291  1.00  0.00     0.059 A 
ENDROOT
BRANCH   5   7
HETATM    7  N2  UNL     1      23.029   4.930  51.586  1.00  0.00    -0.188 N 
HETATM    8  H10 UNL     1      22.986   5.901  51.969  1.00  0.00     0.184 HD
BRANCH   7   9
HETATM    9  C10 UNL     1      21.866   4.139  51.753  1.00  0.00     0.727 A 
HETATM   10  N3  UNL     1      20.610   4.446  51.408  1.00  0.00    -0.075 NA
HETATM   11  C11 UNL     1      19.545   3.660  51.589  1.00  0.00     0.139 A 
HETATM   12  C12 UNL     1      19.696   2.434  52.169  1.00  0.00     0.053 A 
HETATM   13  C13 UNL     1      20.958   2.085  52.534  1.00  0.00     0.089 A 
HETATM   14  N5  UNL     1      21.964   2.929  52.318  1.00  0.00    -0.062 NA
BRANCH  13  15
HETATM   15  C14 UNL     1      21.227   0.799  53.161  1.00  0.00     0.011 A 
HETATM   16  C15 UNL     1      22.458   0.370  53.558  1.00  0.00     0.017 A 
HETATM   17  C16 UNL     1      22.694  -0.857  54.152  1.00  0.00     0.020 A 
HETATM   18  C17 UNL     1      21.614  -1.715  54.364  1.00  0.00     0.116 A 
HETATM   19  N4  UNL     1      20.408  -1.309  53.983  1.00  0.00    -0.272 NA
HETATM   20  C18 UNL     1      20.190  -0.102  53.401  1.00  0.00     0.130 A 
ENDBRANCH  13  15
ENDBRANCH   7   9
ENDBRANCH   5   7
BRANCH   1  21
HETATM   21  N1  UNL     1      26.594   1.641  51.105  1.00  0.00    -0.384 N 
HETATM   22  H6  UNL     1      26.419   0.809  50.469  1.00  0.00     0.160 HD
BRANCH  21  23
HETATM   23  C4  UNL     1      27.431   1.287  52.221  1.00  0.00     0.095 C 
HETATM   24  C3  UNL     1      26.809   0.182  52.991  1.00  0.00     0.103 C 
HETATM   25  S1  UNL     1      28.166  -0.597  53.958  1.00  0.00    -0.140 SA
HETATM   26  C2  UNL     1      29.105   0.862  54.500  1.00  0.00     0.041 C 
HETATM   27  C1  UNL     1      28.900   2.121  54.048  1.00  0.00    -0.018 C 
HETATM   28  C20 UNL     1      27.867   2.460  53.039  1.00  0.00     0.053 C 
ENDBRANCH  21  23
ENDBRANCH   1  21
TORSDOF 5
ENDMDL
MODEL 8
REMARK VINA RESULT:      -7.8      1.411      2.117
REMARK  5 active torsions:
REMARK  status: ('A' for Active; 'I' for Inactive)
REMARK    1  A    between atoms: C4_5  and  N1_6 
REMARK    2  A    between atoms: N1_6  and  C5_7 
REMARK    3  A    between atoms: C9_11  and  N2_12 
REMARK    4  A    between atoms: N2_12  and  C10_13 
REMARK    5  A    between atoms: C13_17  and  C14_18 
ROOT
HETATM    1  C5  UNL     1      24.158   1.349  52.834  1.00  0.00     0.030 A 
HETATM    2  C6  UNL     1      23.132   0.787  52.066  1.00  0.00     0.029 A 
HETATM    3  C7  UNL     1      22.442   1.557  51.167  1.00  0.00     0.004 A 
HETATM    4  C8  UNL     1      22.785   2.877  51.049  1.00  0.00     0.030 A 
HETATM    5  C9  UNL     1      23.776   3.509  51.764  1.00  0.00     0.051 A 
HETATM    6  C19 UNL     1      24.427   2.684  52.643  1.00  0.00     0.059 A 
ENDROOT
BRANCH   5   7
HETATM    7  N2  UNL     1      24.145   4.870  51.656  1.00  0.00    -0.188 N 
HETATM    8  H10 UNL     1      24.279   5.395  52.549  1.00  0.00     0.184 HD
BRANCH   7   9
HETATM    9  C10 UNL     1      24.352   5.601  50.462  1.00  0.00     0.727 A 
HETATM   10  N3  UNL     1      23.433   6.211  49.704  1.00  0.00    -0.075 NA
HETATM   11  C11 UNL     1      23.684   6.890  48.581  1.00  0.00     0.139 A 
HETATM   12  C12 UNL     1      24.967   7.001  48.127  1.00  0.00     0.053 A 
HETATM   13  C13 UNL     1      25.930   6.394  48.869  1.00  0.00     0.089 A 
HETATM   14  N5  UNL     1      25.593   5.737  49.976  1.00  0.00    -0.062 NA
BRANCH  13  15
HETATM   15  C14 UNL     1      27.330   6.452  48.471  1.00  0.00     0.011 A 
HETATM   16  C15 UNL     1      28.177   5.385  48.451  1.00  0.00     0.017 A 
HETATM   17  C16 UNL     1      29.504   5.460  48.070  1.00  0.00     0.020 A 
HETATM   18  C17 UNL     1      30.018   6.698  47.679  1.00  0.00     0.116 A 
HETATM   19  N4  UNL     1      29.203   7.746  47.694  1.00  0.00    -0.272 NA
HETATM   20  C18 UNL     1      27.902   7.658  48.070  1.00  0.00     0.130 A 
ENDBRANCH  13  15
ENDBRANCH   7   9
ENDBRANCH   5   7
BRANCH   1  21
HETATM   21  N1  UNL     1      24.839   0.529  53.761  1.00  0.00    -0.384 N 
HETATM   22  H6  UNL     1      24.303   0.194  54.613  1.00  0.00     0.160 HD
BRANCH  21  23
HETATM   23  C4  UNL     1      26.192   0.036  53.760  1.00  0.00     0.095 C 
HETATM   24  C3  UNL     1      27.140   1.156  53.974  1.00  0.00     0.103 C 
HETATM   25  S1  UNL     1      28.705   0.396  54.571  1.00  0.00    -0.140 SA
HETATM   26  C2  UNL     1      28.813  -1.080  53.516  1.00  0.00     0.041 C 
HETATM   27  C1  UNL     1      27.821  -1.525  52.710  1.00  0.00    -0.018 C 
HETATM   28  C20 UNL     1      26.508  -0.846  52.594  1.00  0.00     0.053 C 
ENDBRANCH  21  23
ENDBRANCH   1  21
TORSDOF 5
ENDMDL
MODEL 9
REMARK VINA RESULT:      -7.7      3.156      6.951
REMARK  5 active torsions:
REMARK  status: ('A' for Active; 'I' for Inactive)
REMARK    1  A    between atoms: C4_5  and  N1_6 
REMARK    2  A    between atoms: N1_6  and  C5_7 
REMARK    3  A    between atoms: C9_11  and  N2_12 
REMARK    4  A    between atoms: N2_12  and  C10_13 
REMARK    5  A    between atoms: C13_17  and  C14_18 
ROOT
HETATM    1  C5  UNL     1      25.644   1.818  52.271  1.00  0.00     0.030 A 
HETATM    2  C6  UNL     1      26.735   1.059  51.831  1.00  0.00     0.029 A 
HETATM    3  C7  UNL     1      26.851  -0.257  52.193  1.00  0.00     0.004 A 
HETATM    4  C8  UNL     1      25.878  -0.797  52.990  1.00  0.00     0.030 A 
HETATM    5  C9  UNL     1      24.776  -0.125  53.468  1.00  0.00     0.051 A 
HETATM    6  C19 UNL     1      24.720   1.185  53.069  1.00  0.00     0.059 A 
ENDROOT
BRANCH   5   7
HETATM    7  N2  UNL     1      23.762  -0.664  54.291  1.00  0.00    -0.188 N 
HETATM    8  H10 UNL     1      24.065  -1.098  55.192  1.00  0.00     0.184 HD
BRANCH   7   9
HETATM    9  C10 UNL     1      22.371  -0.681  54.024  1.00  0.00     0.727 A 
HETATM   10  N3  UNL     1      21.489  -1.640  54.329  1.00  0.00    -0.075 NA
HETATM   11  C11 UNL     1      20.183  -1.604  54.053  1.00  0.00     0.139 A 
HETATM   12  C12 UNL     1      19.654  -0.523  53.409  1.00  0.00     0.053 A 
HETATM   13  C13 UNL     1      20.518   0.473  53.082  1.00  0.00     0.089 A 
HETATM   14  N5  UNL     1      21.807   0.357  53.394  1.00  0.00    -0.062 NA
BRANCH  13  15
HETATM   15  C14 UNL     1      20.055   1.670  52.393  1.00  0.00     0.011 A 
HETATM   16  C15 UNL     1      20.782   2.813  52.246  1.00  0.00     0.017 A 
HETATM   17  C16 UNL     1      20.324   3.940  51.588  1.00  0.00     0.020 A 
HETATM   18  C17 UNL     1      19.042   3.917  51.036  1.00  0.00     0.116 A 
HETATM   19  N4  UNL     1      18.323   2.809  51.172  1.00  0.00    -0.272 NA
HETATM   20  C18 UNL     1      18.784   1.709  51.820  1.00  0.00     0.130 A 
ENDBRANCH  13  15
ENDBRANCH   7   9
ENDBRANCH   5   7
BRANCH   1  21
HETATM   21  N1  UNL     1      25.564   3.175  51.890  1.00  0.00    -0.384 N 
HETATM   22  H6  UNL     1      26.210   3.865  52.374  1.00  0.00     0.160 HD
BRANCH  21  23
HETATM   23  C4  UNL     1      24.729   3.828  50.915  1.00  0.00     0.095 C 
HETATM   24  C3  UNL     1      23.901   4.868  51.571  1.00  0.00     0.103 C 
HETATM   25  S1  UNL     1      23.374   6.021  50.238  1.00  0.00    -0.140 SA
HETATM   26  C2  UNL     1      22.997   4.862  48.889  1.00  0.00     0.041 C 
HETATM   27  C1  UNL     1      23.295   3.542  48.901  1.00  0.00    -0.018 C 
HETATM   28  C20 UNL     1      23.976   2.877  50.039  1.00  0.00     0.053 C 
ENDBRANCH  21  23
ENDBRANCH   1  21
TORSDOF 5
ENDMDL
