MODEL 1
REMARK VINA RESULT:      -8.1      0.000      0.000
REMARK  2 active torsions:
REMARK  status: ('A' for Active; 'I' for Inactive)
REMARK    1  A    between atoms: C7_8  and  N1_9 
REMARK    2  A    between atoms: N1_9  and  C8_10 
ROOT
HETATM    1  C1  UNL     1      27.172  -2.040  52.483  1.00  0.00     0.020 C 
HETATM    2  C2  UNL     1      27.691  -0.881  53.289  1.00  0.00     0.008 C 
HETATM    3  C3  UNL     1      27.367   0.006  54.150  1.00  0.00     0.071 A 
HETATM    4 CL1  UNL     1      26.306   0.817  55.196  1.00  0.00    -0.201 Cl
HETATM    5  C4  UNL     1      25.965  -0.560  53.959  1.00  0.00     0.141 A 
HETATM    6  C5  UNL     1      25.208  -0.069  52.932  1.00  0.00    -0.002 C 
HETATM    7  C6  UNL     1      25.451   1.249  52.887  1.00  0.00     0.031 C 
HETATM    8  C7  UNL     1      26.781   1.736  52.397  1.00  0.00     0.126 C 
HETATM    9  N2  UNL     1      28.045   2.072  52.531  1.00  0.00    -0.225 NA
HETATM   10  C14 UNL     1      28.619   1.968  53.811  1.00  0.00     0.228 C 
HETATM   11  N3  UNL     1      29.122   0.825  54.229  1.00  0.00    -0.282 NA
HETATM   12  C15 UNL     1      29.064  -0.325  53.325  1.00  0.00     0.162 C 
ENDROOT
BRANCH   8  13
HETATM   13  N1  UNL     1      26.513   1.998  51.000  1.00  0.00    -0.341 N 
HETATM   14  H6  UNL     1      26.593   1.173  50.303  1.00  0.00     0.167 HD
BRANCH  13  15
HETATM   15  C8  UNL     1      26.122   3.182  50.280  1.00  0.00     0.033 A 
HETATM   16  C9  UNL     1      26.969   3.994  49.595  1.00  0.00     0.032 A 
HETATM   17  C10 UNL     1      26.620   5.117  48.887  1.00  0.00     0.044 A 
HETATM   18  C11 UNL     1      25.289   5.469  48.857  1.00  0.00     0.116 A 
HETATM   19  F1  UNL     1      24.808   6.547  48.198  1.00  0.00    -0.206 F 
HETATM   20  C12 UNL     1      24.387   4.688  49.530  1.00  0.00     0.044 A 
HETATM   21  C13 UNL     1      24.805   3.578  50.219  1.00  0.00     0.032 A 
ENDBRANCH  13  15
ENDBRANCH   8  13
TORSDOF 2
ENDMDL
MODEL 2
REMARK VINA RESULT:      -7.6      3.330      6.383
REMARK  2 active torsions:
REMARK  status: ('A' for Active; 'I' for Inactive)
REMARK    1  A    between atoms: C7_8  and  N1_9 
REMARK    2  A    between atoms: N1_9  and  C8_10 
ROOT
HETATM    1  C1  UNL     1      23.482   5.601  51.962  1.00  0.00     0.020 C 
HETATM    2  C2  UNL     1      24.264   5.155  50.757  1.00  0.00     0.008 C 
HETATM    3  C3  UNL     1      24.322   4.278  49.830  1.00  0.00     0.071 A 
HETATM    4 CL1  UNL     1      23.802   2.907  48.977  1.00  0.00    -0.201 Cl
HETATM    5  C4  UNL     1      23.154   3.649  50.580  1.00  0.00     0.141 A 
HETATM    6  C5  UNL     1      23.436   2.804  51.617  1.00  0.00    -0.002 C 
HETATM    7  C6  UNL     1      24.500   2.083  51.232  1.00  0.00     0.031 C 
HETATM    8  C7  UNL     1      25.843   2.741  51.147  1.00  0.00     0.126 C 
HETATM    9  N2  UNL     1      26.794   3.428  50.552  1.00  0.00    -0.225 NA
HETATM   10  C14 UNL     1      26.561   3.865  49.236  1.00  0.00     0.228 C 
HETATM   11  N3  UNL     1      25.924   4.995  49.008  1.00  0.00    -0.282 NA
HETATM   12  C15 UNL     1      25.471   5.775  50.160  1.00  0.00     0.162 C 
ENDROOT
BRANCH   8  13
HETATM   13  N1  UNL     1      26.418   2.425  52.437  1.00  0.00    -0.341 N 
HETATM   14  H6  UNL     1      26.104   3.009  53.292  1.00  0.00     0.167 HD
BRANCH  13  15
HETATM   15  C8  UNL     1      27.366   1.431  52.873  1.00  0.00     0.033 A 
HETATM   16  C9  UNL     1      27.209   0.089  52.730  1.00  0.00     0.032 A 
HETATM   17  C10 UNL     1      28.102  -0.877  53.120  1.00  0.00     0.044 A 
HETATM   18  C11 UNL     1      29.275  -0.465  53.713  1.00  0.00     0.116 A 
HETATM   19  F1  UNL     1      30.241  -1.307  54.143  1.00  0.00    -0.206 F 
HETATM   20  C12 UNL     1      29.489   0.878  53.884  1.00  0.00     0.044 A 
HETATM   21  C13 UNL     1      28.552   1.790  53.471  1.00  0.00     0.032 A 
ENDBRANCH  13  15
ENDBRANCH   8  13
TORSDOF 2
ENDMDL
MODEL 3
REMARK VINA RESULT:      -7.4      3.467      6.362
REMARK  2 active torsions:
REMARK  status: ('A' for Active; 'I' for Inactive)
REMARK    1  A    between atoms: C7_8  and  N1_9 
REMARK    2  A    between atoms: N1_9  and  C8_10 
ROOT
HETATM    1  C1  UNL     1      22.669   2.642  48.888  1.00  0.00     0.020 C 
HETATM    2  C2  UNL     1      22.851   3.509  50.103  1.00  0.00     0.008 C 
HETATM    3  C3  UNL     1      23.563   4.441  50.609  1.00  0.00     0.071 A 
HETATM    4 CL1  UNL     1      24.821   5.579  50.623  1.00  0.00    -0.201 Cl
HETATM    5  C4  UNL     1      24.399   4.261  49.347  1.00  0.00     0.141 A 
HETATM    6  C5  UNL     1      25.370   3.299  49.352  1.00  0.00    -0.002 C 
HETATM    7  C6  UNL     1      25.928   3.338  50.571  1.00  0.00     0.031 C 
HETATM    8  C7  UNL     1      25.154   2.837  51.751  1.00  0.00     0.126 C 
HETATM    9  N2  UNL     1      24.304   2.949  52.748  1.00  0.00    -0.225 NA
HETATM   10  C14 UNL     1      23.686   4.197  52.946  1.00  0.00     0.228 C 
HETATM   11  N3  UNL     1      22.592   4.515  52.285  1.00  0.00    -0.282 NA
HETATM   12  C15 UNL     1      22.045   3.535  51.346  1.00  0.00     0.162 C 
ENDROOT
BRANCH   8  13
HETATM   13  N1  UNL     1      25.621   1.472  51.863  1.00  0.00    -0.341 N 
HETATM   14  H6  UNL     1      25.012   0.688  51.430  1.00  0.00     0.167 HD
BRANCH  13  15
HETATM   15  C8  UNL     1      26.799   0.881  52.444  1.00  0.00     0.033 A 
HETATM   16  C9  UNL     1      27.832   1.575  52.989  1.00  0.00     0.032 A 
HETATM   17  C10 UNL     1      28.956   1.038  53.563  1.00  0.00     0.044 A 
HETATM   18  C11 UNL     1      29.064  -0.335  53.600  1.00  0.00     0.116 A 
HETATM   19  F1  UNL     1      30.114  -0.996  54.136  1.00  0.00    -0.206 F 
HETATM   20  C12 UNL     1      28.053  -1.088  53.065  1.00  0.00     0.044 A 
HETATM   21  C13 UNL     1      26.956  -0.485  52.505  1.00  0.00     0.032 A 
ENDBRANCH  13  15
ENDBRANCH   8  13
TORSDOF 2
ENDMDL
MODEL 4
REMARK VINA RESULT:      -7.3      4.301      6.748
REMARK  2 active torsions:
REMARK  status: ('A' for Active; 'I' for Inactive)
REMARK    1  A    between atoms: C7_8  and  N1_9 
REMARK    2  A    between atoms: N1_9  and  C8_10 
ROOT
HETATM    1  C1  UNL     1      21.584   0.786  49.329  1.00  0.00     0.020 C 
HETATM    2  C2  UNL     1      21.056   1.142  50.691  1.00  0.00     0.008 C 
HETATM    3  C3  UNL     1      21.109   2.012  51.624  1.00  0.00     0.071 A 
HETATM    4 CL1  UNL     1      21.646   3.442  52.363  1.00  0.00    -0.201 Cl
HETATM    5  C4  UNL     1      22.195   2.635  50.754  1.00  0.00     0.141 A 
HETATM    6  C5  UNL     1      23.474   2.172  50.893  1.00  0.00    -0.002 C 
HETATM    7  C6  UNL     1      23.654   1.961  52.206  1.00  0.00     0.031 C 
HETATM    8  C7  UNL     1      22.959   0.810  52.868  1.00  0.00     0.126 C 
HETATM    9  N2  UNL     1      21.953   0.223  53.478  1.00  0.00    -0.225 NA
HETATM   10  C14 UNL     1      20.795   0.984  53.717  1.00  0.00     0.228 C 
HETATM   11  N3  UNL     1      19.864   1.096  52.793  1.00  0.00    -0.282 NA
HETATM   12  C15 UNL     1      20.071   0.406  51.519  1.00  0.00     0.162 C 
ENDROOT
BRANCH   8  13
HETATM   13  N1  UNL     1      23.971  -0.222  52.824  1.00  0.00    -0.341 N 
HETATM   14  H6  UNL     1      23.702  -1.182  52.403  1.00  0.00     0.167 HD
BRANCH  13  15
HETATM   15  C8  UNL     1      25.354  -0.259  53.226  1.00  0.00     0.033 A 
HETATM   16  C9  UNL     1      26.376  -0.727  52.463  1.00  0.00     0.032 A 
HETATM   17  C10 UNL     1      27.702  -0.757  52.814  1.00  0.00     0.044 A 
HETATM   18  C11 UNL     1      28.049  -0.271  54.055  1.00  0.00     0.116 A 
HETATM   19  F1  UNL     1      29.315  -0.240  54.528  1.00  0.00    -0.206 F 
HETATM   20  C12 UNL     1      27.060   0.214  54.871  1.00  0.00     0.044 A 
HETATM   21  C13 UNL     1      25.753   0.214  54.455  1.00  0.00     0.032 A 
ENDBRANCH  13  15
ENDBRANCH   8  13
TORSDOF 2
ENDMDL
MODEL 5
REMARK VINA RESULT:      -7.2      3.973      6.691
REMARK  2 active torsions:
REMARK  status: ('A' for Active; 'I' for Inactive)
REMARK    1  A    between atoms: C7_8  and  N1_9 
REMARK    2  A    between atoms: N1_9  and  C8_10 
ROOT
HETATM    1  C1  UNL     1      21.790   1.226  50.060  1.00  0.00     0.020 C 
HETATM    2  C2  UNL     1      21.532   2.686  50.312  1.00  0.00     0.008 C 
HETATM    3  C3  UNL     1      21.701   3.861  49.840  1.00  0.00     0.071 A 
HETATM    4 CL1  UNL     1      22.245   4.997  48.704  1.00  0.00    -0.201 Cl
HETATM    5  C4  UNL     1      22.513   3.136  48.774  1.00  0.00     0.141 A 
HETATM    6  C5  UNL     1      23.830   2.878  49.034  1.00  0.00    -0.002 C 
HETATM    7  C6  UNL     1      24.304   3.959  49.670  1.00  0.00     0.031 C 
HETATM    8  C7  UNL     1      23.877   4.229  51.080  1.00  0.00     0.126 C 
HETATM    9  N2  UNL     1      23.085   4.720  52.008  1.00  0.00    -0.225 NA
HETATM   10  C14 UNL     1      21.938   5.417  51.589  1.00  0.00     0.228 C 
HETATM   11  N3  UNL     1      20.825   4.770  51.311  1.00  0.00    -0.282 NA
HETATM   12  C15 UNL     1      20.821   3.314  51.451  1.00  0.00     0.162 C 
ENDROOT
BRANCH   8  13
HETATM   13  N1  UNL     1      24.950   3.629  51.842  1.00  0.00    -0.341 N 
HETATM   14  H6  UNL     1      25.685   4.284  52.293  1.00  0.00     0.167 HD
BRANCH  13  15
HETATM   15  C8  UNL     1      25.276   2.265  52.174  1.00  0.00     0.033 A 
HETATM   16  C9  UNL     1      24.501   1.439  52.925  1.00  0.00     0.032 A 
HETATM   17  C10 UNL     1      24.779   0.133  53.240  1.00  0.00     0.044 A 
HETATM   18  C11 UNL     1      25.950  -0.409  52.759  1.00  0.00     0.116 A 
HETATM   19  F1  UNL     1      26.346  -1.680  52.992  1.00  0.00    -0.206 F 
HETATM   20  C12 UNL     1      26.773   0.377  51.996  1.00  0.00     0.044 A 
HETATM   21  C13 UNL     1      26.433   1.677  51.719  1.00  0.00     0.032 A 
ENDBRANCH  13  15
ENDBRANCH   8  13
TORSDOF 2
ENDMDL
MODEL 6
REMARK VINA RESULT:      -7.0      4.930      7.356
REMARK  2 active torsions:
REMARK  status: ('A' for Active; 'I' for Inactive)
REMARK    1  A    between atoms: C7_8  and  N1_9 
REMARK    2  A    between atoms: N1_9  and  C8_10 
ROOT
HETATM    1  C1  UNL     1      23.807   3.587  52.820  1.00  0.00     0.020 C 
HETATM    2  C2  UNL     1      23.490   3.605  51.350  1.00  0.00     0.008 C 
HETATM    3  C3  UNL     1      22.635   3.992  50.482  1.00  0.00     0.071 A 
HETATM    4 CL1  UNL     1      21.203   4.738  49.962  1.00  0.00    -0.201 Cl
HETATM    5  C4  UNL     1      21.832   4.416  51.706  1.00  0.00     0.141 A 
HETATM    6  C5  UNL     1      21.037   3.482  52.309  1.00  0.00    -0.002 C 
HETATM    7  C6  UNL     1      20.489   2.763  51.319  1.00  0.00     0.031 C 
HETATM    8  C7  UNL     1      21.345   1.814  50.537  1.00  0.00     0.126 C 
HETATM    9  N2  UNL     1      22.171   1.481  49.570  1.00  0.00    -0.225 NA
HETATM   10  C14 UNL     1      22.572   2.488  48.674  1.00  0.00     0.228 C 
HETATM   11  N3  UNL     1      23.592   3.271  48.958  1.00  0.00    -0.282 NA
HETATM   12  C15 UNL     1      24.289   3.060  50.227  1.00  0.00     0.162 C 
ENDROOT
BRANCH   8  13
HETATM   13  N1  UNL     1      21.116   0.562  51.226  1.00  0.00    -0.341 N 
HETATM   14  H6  UNL     1      20.452  -0.159  50.765  1.00  0.00     0.167 HD
BRANCH  13  15
HETATM   15  C8  UNL     1      21.618   0.013  52.459  1.00  0.00     0.033 A 
HETATM   16  C9  UNL     1      20.857  -0.574  53.419  1.00  0.00     0.032 A 
HETATM   17  C10 UNL     1      21.311  -1.120  54.593  1.00  0.00     0.044 A 
HETATM   18  C11 UNL     1      22.665  -1.078  54.839  1.00  0.00     0.116 A 
HETATM   19  F1  UNL     1      23.247  -1.578  55.952  1.00  0.00    -0.206 F 
HETATM   20  C12 UNL     1      23.484  -0.496  53.907  1.00  0.00     0.044 A 
HETATM   21  C13 UNL     1      22.962   0.030  52.753  1.00  0.00     0.032 A 
ENDBRANCH  13  15
ENDBRANCH   8  13
TORSDOF 2
ENDMDL
MODEL 7
REMARK VINA RESULT:      -6.9      3.711      6.449
REMARK  2 active torsions:
REMARK  status: ('A' for Active; 'I' for Inactive)
REMARK    1  A    between atoms: C7_8  and  N1_9 
REMARK    2  A    between atoms: N1_9  and  C8_10 
ROOT
HETATM    1  C1  UNL     1      20.851   3.538  52.282  1.00  0.00     0.020 C 
HETATM    2  C2  UNL     1      21.757   3.913  51.142  1.00  0.00     0.008 C 
HETATM    3  C3  UNL     1      22.384   3.455  50.127  1.00  0.00     0.071 A 
HETATM    4 CL1  UNL     1      22.886   2.246  49.049  1.00  0.00    -0.201 Cl
HETATM    5  C4  UNL     1      21.884   2.108  50.636  1.00  0.00     0.141 A 
HETATM    6  C5  UNL     1      22.627   1.464  51.586  1.00  0.00    -0.002 C 
HETATM    7  C6  UNL     1      23.911   1.663  51.254  1.00  0.00     0.031 C 
HETATM    8  C7  UNL     1      24.514   3.024  51.426  1.00  0.00     0.126 C 
HETATM    9  N2  UNL     1      24.807   4.249  51.049  1.00  0.00    -0.225 NA
HETATM   10  C14 UNL     1      24.370   4.667  49.779  1.00  0.00     0.228 C 
HETATM   11  N3  UNL     1      23.158   5.156  49.615  1.00  0.00    -0.282 NA
HETATM   12  C15 UNL     1      22.288   5.251  50.788  1.00  0.00     0.162 C 
ENDROOT
BRANCH   8  13
HETATM   13  N1  UNL     1      25.135   2.918  52.728  1.00  0.00    -0.341 N 
HETATM   14  H6  UNL     1      24.754   3.543  53.527  1.00  0.00     0.167 HD
BRANCH  13  15
HETATM   15  C8  UNL     1      26.206   2.104  53.243  1.00  0.00     0.033 A 
HETATM   16  C9  UNL     1      27.504   2.184  52.850  1.00  0.00     0.032 A 
HETATM   17  C10 UNL     1      28.545   1.434  53.336  1.00  0.00     0.044 A 
HETATM   18  C11 UNL     1      28.267   0.507  54.315  1.00  0.00     0.116 A 
HETATM   19  F1  UNL     1      29.195  -0.296  54.882  1.00  0.00    -0.206 F 
HETATM   20  C12 UNL     1      26.974   0.381  54.752  1.00  0.00     0.044 A 
HETATM   21  C13 UNL     1      25.981   1.164  54.222  1.00  0.00     0.032 A 
ENDBRANCH  13  15
ENDBRANCH   8  13
TORSDOF 2
ENDMDL
MODEL 8
REMARK VINA RESULT:      -6.9      3.094      4.569
REMARK  2 active torsions:
REMARK  status: ('A' for Active; 'I' for Inactive)
REMARK    1  A    between atoms: C7_8  and  N1_9 
REMARK    2  A    between atoms: N1_9  and  C8_10 
ROOT
HETATM    1  C1  UNL     1      26.506   1.771  51.442  1.00  0.00     0.020 C 
HETATM    2  C2  UNL     1      27.351   1.334  52.607  1.00  0.00     0.008 C 
HETATM    3  C3  UNL     1      28.034   0.363  53.081  1.00  0.00     0.071 A 
HETATM    4 CL1  UNL     1      28.695  -1.199  53.073  1.00  0.00    -0.201 Cl
HETATM    5  C4  UNL     1      27.499  -0.387  51.867  1.00  0.00     0.141 A 
HETATM    6  C5  UNL     1      26.275  -0.988  51.971  1.00  0.00    -0.002 C 
HETATM    7  C6  UNL     1      26.218  -1.508  53.206  1.00  0.00     0.031 C 
HETATM    8  C7  UNL     1      26.084  -0.592  54.384  1.00  0.00     0.126 C 
HETATM    9  N2  UNL     1      26.540   0.191  55.337  1.00  0.00    -0.225 NA
HETATM   10  C14 UNL     1      27.932   0.367  55.431  1.00  0.00     0.228 C 
HETATM   11  N3  UNL     1      28.542   1.284  54.709  1.00  0.00    -0.282 NA
HETATM   12  C15 UNL     1      27.729   2.107  53.813  1.00  0.00     0.162 C 
ENDROOT
BRANCH   8  13
HETATM   13  N1  UNL     1      24.654  -0.581  54.600  1.00  0.00    -0.341 N 
HETATM   14  H6  UNL     1      24.276  -0.978  55.533  1.00  0.00     0.167 HD
BRANCH  13  15
HETATM   15  C8  UNL     1      23.544  -0.115  53.808  1.00  0.00     0.033 A 
HETATM   16  C9  UNL     1      23.515   1.056  53.119  1.00  0.00     0.032 A 
HETATM   17  C10 UNL     1      22.480   1.515  52.344  1.00  0.00     0.044 A 
HETATM   18  C11 UNL     1      21.355   0.727  52.243  1.00  0.00     0.116 A 
HETATM   19  F1  UNL     1      20.265   1.055  51.514  1.00  0.00    -0.206 F 
HETATM   20  C12 UNL     1      21.326  -0.467  52.916  1.00  0.00     0.044 A 
HETATM   21  C13 UNL     1      22.398  -0.864  53.674  1.00  0.00     0.032 A 
ENDBRANCH  13  15
ENDBRANCH   8  13
TORSDOF 2
ENDMDL
MODEL 9
REMARK VINA RESULT:      -6.7      4.675      6.764
REMARK  2 active torsions:
REMARK  status: ('A' for Active; 'I' for Inactive)
REMARK    1  A    between atoms: C7_8  and  N1_9 
REMARK    2  A    between atoms: N1_9  and  C8_10 
ROOT
HETATM    1  C1  UNL     1      20.646  -0.053  52.162  1.00  0.00     0.020 C 
HETATM    2  C2  UNL     1      20.353   1.392  51.866  1.00  0.00     0.008 C 
HETATM    3  C3  UNL     1      20.057   2.216  50.935  1.00  0.00     0.071 A 
HETATM    4 CL1  UNL     1      19.713   2.671  49.338  1.00  0.00    -0.201 Cl
HETATM    5  C4  UNL     1      20.250   1.005  50.029  1.00  0.00     0.141 A 
HETATM    6  C5  UNL     1      21.516   0.723  49.596  1.00  0.00    -0.002 C 
HETATM    7  C6  UNL     1      22.092   1.904  49.330  1.00  0.00     0.031 C 
HETATM    8  C7  UNL     1      22.473   2.808  50.462  1.00  0.00     0.126 C 
HETATM    9  N2  UNL     1      22.255   3.746  51.358  1.00  0.00    -0.225 NA
HETATM   10  C14 UNL     1      20.977   4.331  51.397  1.00  0.00     0.228 C 
HETATM   11  N3  UNL     1      20.005   3.773  52.088  1.00  0.00    -0.282 NA
HETATM   12  C15 UNL     1      20.297   2.533  52.809  1.00  0.00     0.162 C 
ENDROOT
BRANCH   8  13
HETATM   13  N1  UNL     1      23.864   2.467  50.669  1.00  0.00    -0.341 N 
HETATM   14  H6  UNL     1      24.562   2.667  49.866  1.00  0.00     0.167 HD
BRANCH  13  15
HETATM   15  C8  UNL     1      24.581   1.899  51.782  1.00  0.00     0.033 A 
HETATM   16  C9  UNL     1      25.708   2.421  52.332  1.00  0.00     0.032 A 
HETATM   17  C10 UNL     1      26.400   1.911  53.401  1.00  0.00     0.044 A 
HETATM   18  C11 UNL     1      25.920   0.760  53.985  1.00  0.00     0.116 A 
HETATM   19  F1  UNL     1      26.501   0.152  55.044  1.00  0.00    -0.206 F 
HETATM   20  C12 UNL     1      24.786   0.186  53.473  1.00  0.00     0.044 A 
HETATM   21  C13 UNL     1      24.144   0.750  52.401  1.00  0.00     0.032 A 
ENDBRANCH  13  15
ENDBRANCH   8  13
TORSDOF 2
ENDMDL
