MODEL 1
REMARK VINA RESULT:      -7.1      0.000      0.000
REMARK  8 active torsions:
REMARK  status: ('A' for Active; 'I' for Inactive)
REMARK    1  A    between atoms: N1_2  and  C3_4 
REMARK    2  A    between atoms: C3_4  and  C4_5 
REMARK    3  A    between atoms: C4_5  and  C5_6 
REMARK    4  A    between atoms: C5_6  and  C6_8 
REMARK    5  A    between atoms: C8_10  and  O2_11 
REMARK    6  A    between atoms: O2_11  and  C9_12 
REMARK    7  A    between atoms: C9_12  and  C10_13 
REMARK    8  A    between atoms: C16_19  and  O3_20 
ROOT
HETATM    1  C6  UNL     1      24.636   1.282  52.745  1.00  0.00     0.011 A 
HETATM    2  C7  UNL     1      23.541   1.428  51.991  1.00  0.00     0.026 A 
HETATM    3  C8  UNL     1      23.082   2.819  52.063  1.00  0.00     0.202 A 
HETATM    4  C16 UNL     1      24.073   3.441  52.966  1.00  0.00     0.076 A 
HETATM    5  C17 UNL     1      24.981   2.553  53.367  1.00  0.00     0.050 A 
ENDROOT
BRANCH   3   6
HETATM    6  O2  UNL     1      22.929   3.459  50.853  1.00  0.00    -0.371 OA
BRANCH   6   7
HETATM    7  C9  UNL     1      23.868   2.887  49.982  1.00  0.00     0.207 C 
BRANCH   7   8
HETATM    8  C10 UNL     1      24.909   3.819  49.540  1.00  0.00    -0.035 A 
HETATM    9  C11 UNL     1      24.556   5.094  49.172  1.00  0.00     0.009 A 
HETATM   10  C12 UNL     1      25.520   5.973  48.757  1.00  0.00     0.001 A 
HETATM   11  C13 UNL     1      26.851   5.632  48.690  1.00  0.00     0.000 A 
HETATM   12  C14 UNL     1      27.264   4.347  49.053  1.00  0.00     0.001 A 
HETATM   13  C15 UNL     1      26.250   3.504  49.463  1.00  0.00     0.009 A 
ENDBRANCH   7   8
ENDBRANCH   6   7
ENDBRANCH   3   6
BRANCH   4  14
HETATM   14  O3  UNL     1      23.966   4.802  53.287  1.00  0.00    -0.362 OA
HETATM   15  H20 UNL     1      23.710   5.491  52.585  1.00  0.00     0.217 HD
ENDBRANCH   4  14
BRANCH   1  16
HETATM   16  C5  UNL     1      25.339   0.013  52.886  1.00  0.00     0.161 C 
HETATM   17  O1  UNL     1      24.852  -0.883  53.620  1.00  0.00    -0.292 OA
BRANCH  16  18
HETATM   18  C4  UNL     1      26.634  -0.186  52.147  1.00  0.00     0.114 C 
BRANCH  18  19
HETATM   19  C3  UNL     1      27.601  -0.995  52.983  1.00  0.00     0.279 C 
BRANCH  19  20
HETATM   20  N1  UNL     1      28.645  -0.165  53.542  1.00  0.00     0.080 N 
HETATM   21  C1  UNL     1      29.924  -0.867  53.506  1.00  0.00     0.309 C 
HETATM   22  C2  UNL     1      28.395   0.201  54.922  1.00  0.00     0.309 C 
ENDBRANCH  19  20
ENDBRANCH  18  19
ENDBRANCH  16  18
ENDBRANCH   1  16
TORSDOF 8
ENDMDL
MODEL 2
REMARK VINA RESULT:      -7.0      2.739      3.808
REMARK  8 active torsions:
REMARK  status: ('A' for Active; 'I' for Inactive)
REMARK    1  A    between atoms: N1_2  and  C3_4 
REMARK    2  A    between atoms: C3_4  and  C4_5 
REMARK    3  A    between atoms: C4_5  and  C5_6 
REMARK    4  A    between atoms: C5_6  and  C6_8 
REMARK    5  A    between atoms: C8_10  and  O2_11 
REMARK    6  A    between atoms: O2_11  and  C9_12 
REMARK    7  A    between atoms: C9_12  and  C10_13 
REMARK    8  A    between atoms: C16_19  and  O3_20 
ROOT
HETATM    1  C6  UNL     1      24.249  -0.747  54.189  1.00  0.00     0.011 A 
HETATM    2  C7  UNL     1      23.715  -0.420  53.007  1.00  0.00     0.026 A 
HETATM    3  C8  UNL     1      22.260  -0.589  53.065  1.00  0.00     0.202 A 
HETATM    4  C16 UNL     1      22.043  -1.059  54.449  1.00  0.00     0.076 A 
HETATM    5  C17 UNL     1      23.195  -1.153  55.110  1.00  0.00     0.050 A 
ENDROOT
BRANCH   3   6
HETATM    6  O2  UNL     1      21.518   0.517  52.713  1.00  0.00    -0.371 OA
BRANCH   6   7
HETATM    7  C9  UNL     1      21.047   0.281  51.413  1.00  0.00     0.207 C 
BRANCH   7   8
HETATM    8  C10 UNL     1      21.686   1.117  50.393  1.00  0.00    -0.035 A 
HETATM    9  C11 UNL     1      21.368   0.924  49.071  1.00  0.00     0.009 A 
HETATM   10  C12 UNL     1      21.958   1.698  48.109  1.00  0.00     0.001 A 
HETATM   11  C13 UNL     1      22.871   2.682  48.411  1.00  0.00     0.000 A 
HETATM   12  C14 UNL     1      23.231   2.920  49.740  1.00  0.00     0.001 A 
HETATM   13  C15 UNL     1      22.605   2.109  50.667  1.00  0.00     0.009 A 
ENDBRANCH   7   8
ENDBRANCH   6   7
ENDBRANCH   3   6
BRANCH   4  14
HETATM   14  O3  UNL     1      20.743  -1.338  54.895  1.00  0.00    -0.362 OA
HETATM   15  H20 UNL     1      20.487  -2.262  55.229  1.00  0.00     0.217 HD
ENDBRANCH   4  14
BRANCH   1  16
HETATM   16  C5  UNL     1      25.680  -0.687  54.458  1.00  0.00     0.161 C 
HETATM   17  O1  UNL     1      26.078  -0.471  55.630  1.00  0.00    -0.292 OA
BRANCH  16  18
HETATM   18  C4  UNL     1      26.641  -0.885  53.319  1.00  0.00     0.114 C 
BRANCH  18  19
HETATM   19  C3  UNL     1      27.352   0.410  52.995  1.00  0.00     0.279 C 
BRANCH  19  20
HETATM   20  N1  UNL     1      28.763   0.334  53.304  1.00  0.00     0.080 N 
HETATM   21  C1  UNL     1      29.177  -1.058  53.443  1.00  0.00     0.309 C 
HETATM   22  C2  UNL     1      29.105   1.008  54.541  1.00  0.00     0.309 C 
ENDBRANCH  19  20
ENDBRANCH  18  19
ENDBRANCH  16  18
ENDBRANCH   1  16
TORSDOF 8
ENDMDL
MODEL 3
REMARK VINA RESULT:      -7.0      3.013      6.112
REMARK  8 active torsions:
REMARK  status: ('A' for Active; 'I' for Inactive)
REMARK    1  A    between atoms: N1_2  and  C3_4 
REMARK    2  A    between atoms: C3_4  and  C4_5 
REMARK    3  A    between atoms: C4_5  and  C5_6 
REMARK    4  A    between atoms: C5_6  and  C6_8 
REMARK    5  A    between atoms: C8_10  and  O2_11 
REMARK    6  A    between atoms: O2_11  and  C9_12 
REMARK    7  A    between atoms: C9_12  and  C10_13 
REMARK    8  A    between atoms: C16_19  and  O3_20 
ROOT
HETATM    1  C6  UNL     1      22.370  -0.142  53.062  1.00  0.00     0.011 A 
HETATM    2  C7  UNL     1      23.672   0.142  53.173  1.00  0.00     0.026 A 
HETATM    3  C8  UNL     1      24.211  -0.504  54.374  1.00  0.00     0.202 A 
HETATM    4  C16 UNL     1      23.028  -1.196  54.929  1.00  0.00     0.076 A 
HETATM    5  C17 UNL     1      21.954  -0.990  54.171  1.00  0.00     0.050 A 
ENDROOT
BRANCH   3   6
HETATM    6  O2  UNL     1      25.306  -1.315  54.172  1.00  0.00    -0.371 OA
BRANCH   6   7
HETATM    7  C9  UNL     1      25.956  -0.825  53.030  1.00  0.00     0.207 C 
BRANCH   7   8
HETATM    8  C10 UNL     1      27.391  -0.593  53.220  1.00  0.00    -0.035 A 
HETATM    9  C11 UNL     1      27.833   0.671  53.523  1.00  0.00     0.009 A 
HETATM   10  C12 UNL     1      29.171   0.899  53.702  1.00  0.00     0.001 A 
HETATM   11  C13 UNL     1      30.111  -0.099  53.593  1.00  0.00     0.000 A 
HETATM   12  C14 UNL     1      29.715  -1.404  53.287  1.00  0.00     0.001 A 
HETATM   13  C15 UNL     1      28.356  -1.575  53.117  1.00  0.00     0.009 A 
ENDBRANCH   7   8
ENDBRANCH   6   7
ENDBRANCH   3   6
BRANCH   4  14
HETATM   14  O3  UNL     1      23.148  -1.943  56.109  1.00  0.00    -0.362 OA
HETATM   15  H20 UNL     1      22.334  -2.343  56.565  1.00  0.00     0.217 HD
ENDBRANCH   4  14
BRANCH   1  16
HETATM   16  C5  UNL     1      21.539   0.352  51.971  1.00  0.00     0.161 C 
HETATM   17  O1  UNL     1      20.311   0.089  51.963  1.00  0.00    -0.292 OA
BRANCH  16  18
HETATM   18  C4  UNL     1      22.182   1.166  50.882  1.00  0.00     0.114 C 
BRANCH  18  19
HETATM   19  C3  UNL     1      21.802   2.624  51.015  1.00  0.00     0.279 C 
BRANCH  19  20
HETATM   20  N1  UNL     1      22.968   3.477  51.058  1.00  0.00     0.080 N 
HETATM   21  C1  UNL     1      24.102   2.817  50.419  1.00  0.00     0.309 C 
HETATM   22  C2  UNL     1      23.373   3.809  52.410  1.00  0.00     0.309 C 
ENDBRANCH  19  20
ENDBRANCH  18  19
ENDBRANCH  16  18
ENDBRANCH   1  16
TORSDOF 8
ENDMDL
MODEL 4
REMARK VINA RESULT:      -6.9      1.248      1.820
REMARK  8 active torsions:
REMARK  status: ('A' for Active; 'I' for Inactive)
REMARK    1  A    between atoms: N1_2  and  C3_4 
REMARK    2  A    between atoms: C3_4  and  C4_5 
REMARK    3  A    between atoms: C4_5  and  C5_6 
REMARK    4  A    between atoms: C5_6  and  C6_8 
REMARK    5  A    between atoms: C8_10  and  O2_11 
REMARK    6  A    between atoms: O2_11  and  C9_12 
REMARK    7  A    between atoms: C9_12  and  C10_13 
REMARK    8  A    between atoms: C16_19  and  O3_20 
ROOT
HETATM    1  C6  UNL     1      24.726   0.256  53.210  1.00  0.00     0.011 A 
HETATM    2  C7  UNL     1      25.094   0.946  52.124  1.00  0.00     0.026 A 
HETATM    3  C8  UNL     1      23.914   1.573  51.521  1.00  0.00     0.202 A 
HETATM    4  C16 UNL     1      22.823   1.140  52.419  1.00  0.00     0.076 A 
HETATM    5  C17 UNL     1      23.287   0.375  53.404  1.00  0.00     0.050 A 
ENDROOT
BRANCH   3   6
HETATM    6  O2  UNL     1      23.995   2.935  51.333  1.00  0.00    -0.371 OA
BRANCH   6   7
HETATM    7  C9  UNL     1      23.991   3.143  49.945  1.00  0.00     0.207 C 
BRANCH   7   8
HETATM    8  C10 UNL     1      25.038   4.058  49.482  1.00  0.00    -0.035 A 
HETATM    9  C11 UNL     1      24.702   5.345  49.139  1.00  0.00     0.009 A 
HETATM   10  C12 UNL     1      25.672   6.207  48.704  1.00  0.00     0.001 A 
HETATM   11  C13 UNL     1      26.993   5.839  48.594  1.00  0.00     0.000 A 
HETATM   12  C14 UNL     1      27.388   4.541  48.930  1.00  0.00     0.001 A 
HETATM   13  C15 UNL     1      26.370   3.715  49.361  1.00  0.00     0.009 A 
ENDBRANCH   7   8
ENDBRANCH   6   7
ENDBRANCH   3   6
BRANCH   4  14
HETATM   14  O3  UNL     1      21.506   1.550  52.163  1.00  0.00    -0.362 OA
HETATM   15  H20 UNL     1      21.197   2.494  52.375  1.00  0.00     0.217 HD
ENDBRANCH   4  14
BRANCH   1  16
HETATM   16  C5  UNL     1      25.669  -0.486  54.037  1.00  0.00     0.161 C 
HETATM   17  O1  UNL     1      25.239  -1.173  54.997  1.00  0.00    -0.292 OA
BRANCH  16  18
HETATM   18  C4  UNL     1      27.136  -0.406  53.715  1.00  0.00     0.114 C 
BRANCH  18  19
HETATM   19  C3  UNL     1      27.900   0.194  54.874  1.00  0.00     0.279 C 
BRANCH  19  20
HETATM   20  N1  UNL     1      29.075   0.907  54.426  1.00  0.00     0.080 N 
HETATM   21  C1  UNL     1      28.690   2.090  53.663  1.00  0.00     0.309 C 
HETATM   22  C2  UNL     1      29.928   0.105  53.571  1.00  0.00     0.309 C 
ENDBRANCH  19  20
ENDBRANCH  18  19
ENDBRANCH  16  18
ENDBRANCH   1  16
TORSDOF 8
ENDMDL
MODEL 5
REMARK VINA RESULT:      -6.9      4.658      7.282
REMARK  8 active torsions:
REMARK  status: ('A' for Active; 'I' for Inactive)
REMARK    1  A    between atoms: N1_2  and  C3_4 
REMARK    2  A    between atoms: C3_4  and  C4_5 
REMARK    3  A    between atoms: C4_5  and  C5_6 
REMARK    4  A    between atoms: C5_6  and  C6_8 
REMARK    5  A    between atoms: C8_10  and  O2_11 
REMARK    6  A    between atoms: O2_11  and  C9_12 
REMARK    7  A    between atoms: C9_12  and  C10_13 
REMARK    8  A    between atoms: C16_19  and  O3_20 
ROOT
HETATM    1  C6  UNL     1      21.960  -0.177  53.112  1.00  0.00     0.011 A 
HETATM    2  C7  UNL     1      23.253   0.161  53.063  1.00  0.00     0.026 A 
HETATM    3  C8  UNL     1      23.957  -0.432  54.204  1.00  0.00     0.202 A 
HETATM    4  C16 UNL     1      22.878  -1.154  54.910  1.00  0.00     0.076 A 
HETATM    5  C17 UNL     1      21.714  -1.011  54.281  1.00  0.00     0.050 A 
ENDROOT
BRANCH   3   6
HETATM    6  O2  UNL     1      25.054  -1.204  53.892  1.00  0.00    -0.371 OA
BRANCH   6   7
HETATM    7  C9  UNL     1      25.770  -0.496  52.915  1.00  0.00     0.207 C 
BRANCH   7   8
HETATM    8  C10 UNL     1      27.218  -0.480  53.139  1.00  0.00    -0.035 A 
HETATM    9  C11 UNL     1      27.843   0.713  53.407  1.00  0.00     0.009 A 
HETATM   10  C12 UNL     1      29.195   0.740  53.617  1.00  0.00     0.001 A 
HETATM   11  C13 UNL     1      29.972  -0.394  53.573  1.00  0.00     0.000 A 
HETATM   12  C14 UNL     1      29.387  -1.634  53.305  1.00  0.00     0.001 A 
HETATM   13  C15 UNL     1      28.022  -1.602  53.101  1.00  0.00     0.009 A 
ENDBRANCH   7   8
ENDBRANCH   6   7
ENDBRANCH   3   6
BRANCH   4  14
HETATM   14  O3  UNL     1      23.168  -1.864  56.084  1.00  0.00    -0.362 OA
HETATM   15  H20 UNL     1      24.115  -2.162  56.301  1.00  0.00     0.217 HD
ENDBRANCH   4  14
BRANCH   1  16
HETATM   16  C5  UNL     1      20.987   0.255  52.117  1.00  0.00     0.161 C 
HETATM   17  O1  UNL     1      21.366   0.478  50.940  1.00  0.00    -0.292 OA
BRANCH  16  18
HETATM   18  C4  UNL     1      19.552   0.424  52.533  1.00  0.00     0.114 C 
BRANCH  18  19
HETATM   19  C3  UNL     1      18.625  -0.108  51.462  1.00  0.00     0.279 C 
BRANCH  19  20
HETATM   20  N1  UNL     1      17.543  -0.880  52.030  1.00  0.00     0.080 N 
HETATM   21  C1  UNL     1      16.379  -0.030  52.256  1.00  0.00     0.309 C 
HETATM   22  C2  UNL     1      17.888  -1.481  53.303  1.00  0.00     0.309 C 
ENDBRANCH  19  20
ENDBRANCH  18  19
ENDBRANCH  16  18
ENDBRANCH   1  16
TORSDOF 8
ENDMDL
MODEL 6
REMARK VINA RESULT:      -6.8      2.871      6.590
REMARK  8 active torsions:
REMARK  status: ('A' for Active; 'I' for Inactive)
REMARK    1  A    between atoms: N1_2  and  C3_4 
REMARK    2  A    between atoms: C3_4  and  C4_5 
REMARK    3  A    between atoms: C4_5  and  C5_6 
REMARK    4  A    between atoms: C5_6  and  C6_8 
REMARK    5  A    between atoms: C8_10  and  O2_11 
REMARK    6  A    between atoms: O2_11  and  C9_12 
REMARK    7  A    between atoms: C9_12  and  C10_13 
REMARK    8  A    between atoms: C16_19  and  O3_20 
ROOT
HETATM    1  C6  UNL     1      26.813   1.517  52.045  1.00  0.00     0.011 A 
HETATM    2  C7  UNL     1      26.497   0.221  51.943  1.00  0.00     0.026 A 
HETATM    3  C8  UNL     1      27.142  -0.525  53.028  1.00  0.00     0.202 A 
HETATM    4  C16 UNL     1      27.870   0.533  53.760  1.00  0.00     0.076 A 
HETATM    5  C17 UNL     1      27.684   1.723  53.194  1.00  0.00     0.050 A 
ENDROOT
BRANCH   3   6
HETATM    6  O2  UNL     1      26.300  -1.286  53.809  1.00  0.00    -0.371 OA
BRANCH   6   7
HETATM    7  C9  UNL     1      25.462  -0.385  54.481  1.00  0.00     0.207 C 
BRANCH   7   8
HETATM    8  C10 UNL     1      24.034  -0.614  54.240  1.00  0.00    -0.035 A 
HETATM    9  C11 UNL     1      23.301  -1.316  55.165  1.00  0.00     0.009 A 
HETATM   10  C12 UNL     1      21.967  -1.536  54.951  1.00  0.00     0.001 A 
HETATM   11  C13 UNL     1      21.314  -1.077  53.831  1.00  0.00     0.000 A 
HETATM   12  C14 UNL     1      22.013  -0.357  52.857  1.00  0.00     0.001 A 
HETATM   13  C15 UNL     1      23.354  -0.166  53.126  1.00  0.00     0.009 A 
ENDBRANCH   7   8
ENDBRANCH   6   7
ENDBRANCH   3   6
BRANCH   4  14
HETATM   14  O3  UNL     1      28.628   0.200  54.892  1.00  0.00    -0.362 OA
HETATM   15  H20 UNL     1      29.618   0.422  54.948  1.00  0.00     0.217 HD
ENDBRANCH   4  14
BRANCH   1  16
HETATM   16  C5  UNL     1      26.329   2.528  51.113  1.00  0.00     0.161 C 
HETATM   17  O1  UNL     1      27.153   3.290  50.548  1.00  0.00    -0.292 OA
BRANCH  16  18
HETATM   18  C4  UNL     1      24.851   2.631  50.857  1.00  0.00     0.114 C 
BRANCH  18  19
HETATM   19  C3  UNL     1      24.209   3.589  51.836  1.00  0.00     0.279 C 
BRANCH  19  20
HETATM   20  N1  UNL     1      22.788   3.351  51.959  1.00  0.00     0.080 N 
HETATM   21  C1  UNL     1      22.259   2.793  50.719  1.00  0.00     0.309 C 
HETATM   22  C2  UNL     1      22.038   4.560  52.239  1.00  0.00     0.309 C 
ENDBRANCH  19  20
ENDBRANCH  18  19
ENDBRANCH  16  18
ENDBRANCH   1  16
TORSDOF 8
ENDMDL
MODEL 7
REMARK VINA RESULT:      -6.7      2.682      6.094
REMARK  8 active torsions:
REMARK  status: ('A' for Active; 'I' for Inactive)
REMARK    1  A    between atoms: N1_2  and  C3_4 
REMARK    2  A    between atoms: C3_4  and  C4_5 
REMARK    3  A    between atoms: C4_5  and  C5_6 
REMARK    4  A    between atoms: C5_6  and  C6_8 
REMARK    5  A    between atoms: C8_10  and  O2_11 
REMARK    6  A    between atoms: O2_11  and  C9_12 
REMARK    7  A    between atoms: C9_12  and  C10_13 
REMARK    8  A    between atoms: C16_19  and  O3_20 
ROOT
HETATM    1  C6  UNL     1      24.306   2.866  51.251  1.00  0.00     0.011 A 
HETATM    2  C7  UNL     1      25.157   1.884  51.571  1.00  0.00     0.026 A 
HETATM    3  C8  UNL     1      26.491   2.208  51.056  1.00  0.00     0.202 A 
HETATM    4  C16 UNL     1      26.276   3.513  50.397  1.00  0.00     0.076 A 
HETATM    5  C17 UNL     1      25.008   3.903  50.507  1.00  0.00     0.050 A 
ENDROOT
BRANCH   3   6
HETATM    6  O2  UNL     1      27.507   2.196  51.987  1.00  0.00    -0.371 OA
BRANCH   6   7
HETATM    7  C9  UNL     1      27.080   1.359  53.028  1.00  0.00     0.207 C 
BRANCH   7   8
HETATM    8  C10 UNL     1      27.833   0.105  53.124  1.00  0.00    -0.035 A 
HETATM    9  C11 UNL     1      27.221  -1.075  52.779  1.00  0.00     0.009 A 
HETATM   10  C12 UNL     1      27.914  -2.251  52.866  1.00  0.00     0.001 A 
HETATM   11  C13 UNL     1      29.221  -2.309  53.289  1.00  0.00     0.000 A 
HETATM   12  C14 UNL     1      29.892  -1.138  53.653  1.00  0.00     0.001 A 
HETATM   13  C15 UNL     1      29.144   0.018  53.546  1.00  0.00     0.009 A 
ENDBRANCH   7   8
ENDBRANCH   6   7
ENDBRANCH   3   6
BRANCH   4  14
HETATM   14  O3  UNL     1      27.349   4.162  49.770  1.00  0.00    -0.362 OA
HETATM   15  H20 UNL     1      27.645   3.907  48.832  1.00  0.00     0.217 HD
ENDBRANCH   4  14
BRANCH   1  16
HETATM   16  C5  UNL     1      22.896   2.846  51.619  1.00  0.00     0.161 C 
HETATM   17  O1  UNL     1      22.349   3.903  52.021  1.00  0.00    -0.292 OA
BRANCH  16  18
HETATM   18  C4  UNL     1      22.135   1.553  51.506  1.00  0.00     0.114 C 
BRANCH  18  19
HETATM   19  C3  UNL     1      21.698   1.076  52.873  1.00  0.00     0.279 C 
BRANCH  19  20
HETATM   20  N1  UNL     1      21.394  -0.338  52.871  1.00  0.00     0.080 N 
HETATM   21  C1  UNL     1      20.128  -0.584  53.554  1.00  0.00     0.309 C 
HETATM   22  C2  UNL     1      22.404  -1.132  53.541  1.00  0.00     0.309 C 
ENDBRANCH  19  20
ENDBRANCH  18  19
ENDBRANCH  16  18
ENDBRANCH   1  16
TORSDOF 8
ENDMDL
MODEL 8
REMARK VINA RESULT:      -6.5      1.715      2.200
REMARK  8 active torsions:
REMARK  status: ('A' for Active; 'I' for Inactive)
REMARK    1  A    between atoms: N1_2  and  C3_4 
REMARK    2  A    between atoms: C3_4  and  C4_5 
REMARK    3  A    between atoms: C4_5  and  C5_6 
REMARK    4  A    between atoms: C5_6  and  C6_8 
REMARK    5  A    between atoms: C8_10  and  O2_11 
REMARK    6  A    between atoms: O2_11  and  C9_12 
REMARK    7  A    between atoms: C9_12  and  C10_13 
REMARK    8  A    between atoms: C16_19  and  O3_20 
ROOT
HETATM    1  C6  UNL     1      25.983   2.325  53.027  1.00  0.00     0.011 A 
HETATM    2  C7  UNL     1      26.075   2.472  51.701  1.00  0.00     0.026 A 
HETATM    3  C8  UNL     1      24.802   2.974  51.176  1.00  0.00     0.202 A 
HETATM    4  C16 UNL     1      23.972   3.090  52.394  1.00  0.00     0.076 A 
HETATM    5  C17 UNL     1      24.652   2.715  53.475  1.00  0.00     0.050 A 
ENDROOT
BRANCH   3   6
HETATM    6  O2  UNL     1      24.880   4.126  50.424  1.00  0.00    -0.371 OA
BRANCH   6   7
HETATM    7  C9  UNL     1      25.715   3.832  49.336  1.00  0.00     0.207 C 
BRANCH   7   8
HETATM    8  C10 UNL     1      26.566   4.951  48.923  1.00  0.00    -0.035 A 
HETATM    9  C11 UNL     1      26.025   6.211  48.841  1.00  0.00     0.009 A 
HETATM   10  C12 UNL     1      26.810   7.264  48.456  1.00  0.00     0.001 A 
HETATM   11  C13 UNL     1      28.142   7.117  48.143  1.00  0.00     0.000 A 
HETATM   12  C14 UNL     1      28.742   5.856  48.211  1.00  0.00     0.001 A 
HETATM   13  C15 UNL     1      27.903   4.832  48.604  1.00  0.00     0.009 A 
ENDBRANCH   7   8
ENDBRANCH   6   7
ENDBRANCH   3   6
BRANCH   4  14
HETATM   14  O3  UNL     1      22.651   3.550  52.295  1.00  0.00    -0.362 OA
HETATM   15  H20 UNL     1      21.866   2.957  52.548  1.00  0.00     0.217 HD
ENDBRANCH   4  14
BRANCH   1  16
HETATM   16  C5  UNL     1      27.083   1.841  53.852  1.00  0.00     0.161 C 
HETATM   17  O1  UNL     1      28.019   2.623  54.152  1.00  0.00    -0.292 OA
BRANCH  16  18
HETATM   18  C4  UNL     1      27.064   0.412  54.319  1.00  0.00     0.114 C 
BRANCH  18  19
HETATM   19  C3  UNL     1      27.694  -0.492  53.282  1.00  0.00     0.279 C 
BRANCH  19  20
HETATM   20  N1  UNL     1      28.893  -1.125  53.785  1.00  0.00     0.080 N 
HETATM   21  C1  UNL     1      30.064  -0.315  53.467  1.00  0.00     0.309 C 
HETATM   22  C2  UNL     1      29.115  -2.440  53.218  1.00  0.00     0.309 C 
ENDBRANCH  19  20
ENDBRANCH  18  19
ENDBRANCH  16  18
ENDBRANCH   1  16
TORSDOF 8
ENDMDL
MODEL 9
REMARK VINA RESULT:      -6.5      3.592      5.895
REMARK  8 active torsions:
REMARK  status: ('A' for Active; 'I' for Inactive)
REMARK    1  A    between atoms: N1_2  and  C3_4 
REMARK    2  A    between atoms: C3_4  and  C4_5 
REMARK    3  A    between atoms: C4_5  and  C5_6 
REMARK    4  A    between atoms: C5_6  and  C6_8 
REMARK    5  A    between atoms: C8_10  and  O2_11 
REMARK    6  A    between atoms: O2_11  and  C9_12 
REMARK    7  A    between atoms: C9_12  and  C10_13 
REMARK    8  A    between atoms: C16_19  and  O3_20 
ROOT
HETATM    1  C6  UNL     1      24.473   0.141  53.290  1.00  0.00     0.011 A 
HETATM    2  C7  UNL     1      23.159  -0.061  53.434  1.00  0.00     0.026 A 
HETATM    3  C8  UNL     1      22.432   0.724  52.430  1.00  0.00     0.202 A 
HETATM    4  C16 UNL     1      23.522   1.400  51.696  1.00  0.00     0.076 A 
HETATM    5  C17 UNL     1      24.712   1.066  52.190  1.00  0.00     0.050 A 
ENDROOT
BRANCH   3   6
HETATM    6  O2  UNL     1      21.562   0.012  51.635  1.00  0.00    -0.371 OA
BRANCH   6   7
HETATM    7  C9  UNL     1      20.390   0.778  51.547  1.00  0.00     0.207 C 
BRANCH   7   8
HETATM    8  C10 UNL     1      19.174   0.040  51.901  1.00  0.00    -0.035 A 
HETATM    9  C11 UNL     1      18.093   0.081  51.054  1.00  0.00     0.009 A 
HETATM   10  C12 UNL     1      16.952  -0.603  51.374  1.00  0.00     0.001 A 
HETATM   11  C13 UNL     1      16.835  -1.346  52.526  1.00  0.00     0.000 A 
HETATM   12  C14 UNL     1      17.905  -1.422  53.422  1.00  0.00     0.001 A 
HETATM   13  C15 UNL     1      19.029  -0.712  53.049  1.00  0.00     0.009 A 
ENDBRANCH   7   8
ENDBRANCH   6   7
ENDBRANCH   3   6
BRANCH   4  14
HETATM   14  O3  UNL     1      23.216   2.261  50.633  1.00  0.00    -0.362 OA
HETATM   15  H20 UNL     1      22.574   3.040  50.752  1.00  0.00     0.217 HD
ENDBRANCH   4  14
BRANCH   1  16
HETATM   16  C5  UNL     1      25.472  -0.497  54.138  1.00  0.00     0.161 C 
HETATM   17  O1  UNL     1      25.102  -1.118  55.166  1.00  0.00    -0.292 OA
BRANCH  16  18
HETATM   18  C4  UNL     1      26.922  -0.389  53.757  1.00  0.00     0.114 C 
BRANCH  18  19
HETATM   19  C3  UNL     1      27.722   0.229  54.882  1.00  0.00     0.279 C 
BRANCH  19  20
HETATM   20  N1  UNL     1      28.894   0.915  54.388  1.00  0.00     0.080 N 
HETATM   21  C1  UNL     1      28.505   2.080  53.599  1.00  0.00     0.309 C 
HETATM   22  C2  UNL     1      29.720   0.079  53.539  1.00  0.00     0.309 C 
ENDBRANCH  19  20
ENDBRANCH  18  19
ENDBRANCH  16  18
ENDBRANCH   1  16
TORSDOF 8
ENDMDL
