MODEL 1
REMARK VINA RESULT:      -8.8      0.000      0.000
REMARK  2 active torsions:
REMARK  status: ('A' for Active; 'I' for Inactive)
REMARK    1  A    between atoms: C7_8  and  N1_9 
REMARK       I    between atoms: N1_9  and  C8_10 
REMARK    2  A    between atoms: C8_10  and  C9_12 
ROOT
HETATM    1  N1  UNL     1      26.243   2.759  51.985  1.00  0.00    -0.355 N 
HETATM    2  C8  UNL     1      26.075   3.280  50.672  1.00  0.00     0.231 C 
HETATM    3  O1  UNL     1      26.847   2.792  49.796  1.00  0.00    -0.272 OA
HETATM    4  H9  UNL     1      25.734   2.992  52.883  1.00  0.00     0.162 HD
ENDROOT
BRANCH   2   5
HETATM    5  C9  UNL     1      25.023   4.287  50.619  1.00  0.00     0.152 C 
HETATM    6  C10 UNL     1      24.540   4.585  49.242  1.00  0.00    -0.002 C 
HETATM    7  C11 UNL     1      23.212   4.799  49.091  1.00  0.00    -0.059 C 
HETATM    8  C12 UNL     1      21.992   4.440  48.263  1.00  0.00     0.064 C 
HETATM    9  C18 UNL     1      22.835   5.745  50.221  1.00  0.00     0.183 C 
HETATM   10  C13 UNL     1      21.420   3.200  48.905  1.00  0.00    -0.003 C 
HETATM   11  C14 UNL     1      22.190   2.405  49.661  1.00  0.00     0.113 C 
HETATM   12  N2  UNL     1      22.788   1.421  50.493  1.00  0.00    -0.259 NA
HETATM   13  C15 UNL     1      22.648   1.613  51.771  1.00  0.00     0.087 C 
HETATM   14  C16 UNL     1      23.126   2.798  52.129  1.00  0.00     0.061 C 
HETATM   15  C17 UNL     1      23.777   3.864  51.382  1.00  0.00     0.048 C 
HETATM   16  N3  UNL     1      22.934   4.874  51.405  1.00  0.00    -0.289 NA
ENDBRANCH   2   5
BRANCH   1  17
HETATM   17  C7  UNL     1      27.243   1.727  52.300  1.00  0.00     0.091 C 
HETATM   18  C6  UNL     1      28.276   2.293  53.199  1.00  0.00     0.052 C 
HETATM   19  C5  UNL     1      29.054   1.358  54.017  1.00  0.00    -0.023 C 
HETATM   20  C4  UNL     1      29.193   0.030  54.189  1.00  0.00     0.020 C 
HETATM   21  C3  UNL     1      28.404  -0.943  53.402  1.00  0.00     0.035 C 
HETATM   22  C2  UNL     1      27.230  -0.740  52.775  1.00  0.00    -0.060 C 
HETATM   23 CL1  UNL     1      29.190  -2.525  53.343  1.00  0.00    -0.084 Cl
HETATM   24  C1  UNL     1      26.752  -1.984  52.082  1.00  0.00     0.045 C 
HETATM   25  C19 UNL     1      26.491   0.551  52.768  1.00  0.00     0.060 C 
ENDBRANCH   1  17
TORSDOF 2
ENDMDL
MODEL 2
REMARK VINA RESULT:      -8.5      1.811      2.660
REMARK  2 active torsions:
REMARK  status: ('A' for Active; 'I' for Inactive)
REMARK    1  A    between atoms: C7_8  and  N1_9 
REMARK       I    between atoms: N1_9  and  C8_10 
REMARK    2  A    between atoms: C8_10  and  C9_12 
ROOT
HETATM    1  N1  UNL     1      24.341   2.111  51.886  1.00  0.00    -0.355 N 
HETATM    2  C8  UNL     1      23.775   3.310  52.399  1.00  0.00     0.231 C 
HETATM    3  O1  UNL     1      24.200   3.663  53.538  1.00  0.00    -0.272 OA
HETATM    4  H9  UNL     1      24.162   1.606  50.973  1.00  0.00     0.162 HD
ENDROOT
BRANCH   2   5
HETATM    5  C9  UNL     1      22.804   3.888  51.479  1.00  0.00     0.152 C 
HETATM    6  C10 UNL     1      23.204   3.805  50.046  1.00  0.00    -0.002 C 
HETATM    7  C11 UNL     1      22.225   3.536  49.151  1.00  0.00    -0.059 C 
HETATM    8  C12 UNL     1      21.844   2.674  47.961  1.00  0.00     0.064 C 
HETATM    9  C18 UNL     1      21.076   4.455  49.538  1.00  0.00     0.183 C 
HETATM   10  C13 UNL     1      21.243   1.420  48.549  1.00  0.00    -0.003 C 
HETATM   11  C14 UNL     1      21.532   1.048  49.804  1.00  0.00     0.113 C 
HETATM   12  N2  UNL     1      21.677   0.452  51.086  1.00  0.00    -0.259 NA
HETATM   13  C15 UNL     1      20.762   0.770  51.953  1.00  0.00     0.087 C 
HETATM   14  C16 UNL     1      20.697   2.085  52.117  1.00  0.00     0.061 C 
HETATM   15  C17 UNL     1      21.456   3.187  51.544  1.00  0.00     0.048 C 
HETATM   16  N3  UNL     1      20.600   3.849  50.794  1.00  0.00    -0.289 NA
ENDBRANCH   2   5
BRANCH   1  17
HETATM   17  C7  UNL     1      25.349   1.336  52.627  1.00  0.00     0.091 C 
HETATM   18  C6  UNL     1      25.046  -0.110  52.516  1.00  0.00     0.052 C 
HETATM   19  C5  UNL     1      26.144  -1.055  52.734  1.00  0.00    -0.023 C 
HETATM   20  C4  UNL     1      27.441  -1.041  53.096  1.00  0.00     0.020 C 
HETATM   21  C3  UNL     1      28.148   0.221  53.408  1.00  0.00     0.035 C 
HETATM   22  C2  UNL     1      27.828   1.467  53.011  1.00  0.00    -0.060 C 
HETATM   23 CL1  UNL     1      29.563  -0.060  54.429  1.00  0.00    -0.084 Cl
HETATM   24  C1  UNL     1      28.800   2.482  53.542  1.00  0.00     0.045 C 
HETATM   25  C19 UNL     1      26.662   1.804  52.152  1.00  0.00     0.060 C 
ENDBRANCH   1  17
TORSDOF 2
ENDMDL
MODEL 3
REMARK VINA RESULT:      -8.2      2.798      4.266
REMARK  2 active torsions:
REMARK  status: ('A' for Active; 'I' for Inactive)
REMARK    1  A    between atoms: C7_8  and  N1_9 
REMARK       I    between atoms: N1_9  and  C8_10 
REMARK    2  A    between atoms: C8_10  and  C9_12 
ROOT
HETATM    1  N1  UNL     1      25.730   3.442  51.237  1.00  0.00    -0.355 N 
HETATM    2  C8  UNL     1      25.380   4.113  50.033  1.00  0.00     0.231 C 
HETATM    3  O1  UNL     1      24.576   3.488  49.281  1.00  0.00    -0.272 OA
HETATM    4  H9  UNL     1      26.372   3.739  52.024  1.00  0.00     0.162 HD
ENDROOT
BRANCH   2   5
HETATM    5  C9  UNL     1      26.041   5.407  49.922  1.00  0.00     0.152 C 
HETATM    6  C10 UNL     1      26.488   5.742  48.541  1.00  0.00    -0.002 C 
HETATM    7  C11 UNL     1      26.351   7.030  48.148  1.00  0.00    -0.059 C 
HETATM    8  C12 UNL     1      25.859   7.932  47.031  1.00  0.00     0.064 C 
HETATM    9  C18 UNL     1      26.882   7.855  49.310  1.00  0.00     0.183 C 
HETATM   10  C13 UNL     1      24.398   8.175  47.325  1.00  0.00    -0.003 C 
HETATM   11  C14 UNL     1      23.703   7.319  48.088  1.00  0.00     0.113 C 
HETATM   12  N2  UNL     1      22.766   6.577  48.856  1.00  0.00    -0.259 NA
HETATM   13  C15 UNL     1      22.626   6.965  50.089  1.00  0.00     0.087 C 
HETATM   14  C16 UNL     1      23.788   6.947  50.729  1.00  0.00     0.061 C 
HETATM   15  C17 UNL     1      25.130   6.558  50.323  1.00  0.00     0.048 C 
HETATM   16  N3  UNL     1      25.834   7.669  50.330  1.00  0.00    -0.289 NA
ENDBRANCH   2   5
BRANCH   1  17
HETATM   17  C7  UNL     1      25.193   2.116  51.583  1.00  0.00     0.091 C 
HETATM   18  C6  UNL     1      26.311   1.185  51.864  1.00  0.00     0.052 C 
HETATM   19  C5  UNL     1      26.026   0.006  52.687  1.00  0.00    -0.023 C 
HETATM   20  C4  UNL     1      24.972  -0.594  53.272  1.00  0.00     0.020 C 
HETATM   21  C3  UNL     1      23.604  -0.044  53.163  1.00  0.00     0.035 C 
HETATM   22  C2  UNL     1      23.243   1.224  52.891  1.00  0.00    -0.060 C 
HETATM   23 CL1  UNL     1      22.377  -1.286  53.440  1.00  0.00    -0.084 Cl
HETATM   24  C1  UNL     1      21.749   1.379  52.868  1.00  0.00     0.045 C 
HETATM   25  C19 UNL     1      24.197   2.338  52.645  1.00  0.00     0.060 C 
ENDBRANCH   1  17
TORSDOF 2
ENDMDL
MODEL 4
REMARK VINA RESULT:      -8.2      2.098      3.771
REMARK  2 active torsions:
REMARK  status: ('A' for Active; 'I' for Inactive)
REMARK    1  A    between atoms: C7_8  and  N1_9 
REMARK       I    between atoms: N1_9  and  C8_10 
REMARK    2  A    between atoms: C8_10  and  C9_12 
ROOT
HETATM    1  N1  UNL     1      23.917   2.582  51.734  1.00  0.00    -0.355 N 
HETATM    2  C8  UNL     1      23.436   3.894  51.998  1.00  0.00     0.231 C 
HETATM    3  O1  UNL     1      23.777   4.379  53.116  1.00  0.00    -0.272 OA
HETATM    4  H9  UNL     1      23.778   1.959  50.890  1.00  0.00     0.162 HD
ENDROOT
BRANCH   2   5
HETATM    5  C9  UNL     1      22.633   4.408  50.896  1.00  0.00     0.152 C 
HETATM    6  C10 UNL     1      21.800   5.590  51.254  1.00  0.00    -0.002 C 
HETATM    7  C11 UNL     1      21.687   6.565  50.322  1.00  0.00    -0.059 C 
HETATM    8  C12 UNL     1      21.763   8.063  50.089  1.00  0.00     0.064 C 
HETATM    9  C18 UNL     1      21.399   5.833  49.020  1.00  0.00     0.183 C 
HETATM   10  C13 UNL     1      23.214   8.350  49.785  1.00  0.00    -0.003 C 
HETATM   11  C14 UNL     1      24.175   7.508  50.190  1.00  0.00     0.113 C 
HETATM   12  N2  UNL     1      25.358   6.784  50.502  1.00  0.00    -0.259 NA
HETATM   13  C15 UNL     1      25.779   5.980  49.572  1.00  0.00     0.087 C 
HETATM   14  C16 UNL     1      24.839   5.105  49.238  1.00  0.00     0.061 C 
HETATM   15  C17 UNL     1      23.487   4.877  49.728  1.00  0.00     0.048 C 
HETATM   16  N3  UNL     1      22.694   5.194  48.727  1.00  0.00    -0.289 NA
ENDBRANCH   2   5
BRANCH   1  17
HETATM   17  C7  UNL     1      24.753   1.843  52.694  1.00  0.00     0.091 C 
HETATM   18  C6  UNL     1      24.147   0.518  52.964  1.00  0.00     0.052 C 
HETATM   19  C5  UNL     1      25.024  -0.542  53.469  1.00  0.00    -0.023 C 
HETATM   20  C4  UNL     1      26.302  -0.704  53.861  1.00  0.00     0.020 C 
HETATM   21  C3  UNL     1      27.267   0.417  53.850  1.00  0.00     0.035 C 
HETATM   22  C2  UNL     1      27.210   1.548  53.121  1.00  0.00    -0.060 C 
HETATM   23 CL1  UNL     1      28.611   0.132  54.961  1.00  0.00    -0.084 Cl
HETATM   24  C1  UNL     1      28.387   2.441  53.397  1.00  0.00     0.045 C 
HETATM   25  C19 UNL     1      26.124   1.878  52.160  1.00  0.00     0.060 C 
ENDBRANCH   1  17
TORSDOF 2
ENDMDL
MODEL 5
REMARK VINA RESULT:      -7.9      1.698      2.324
REMARK  2 active torsions:
REMARK  status: ('A' for Active; 'I' for Inactive)
REMARK    1  A    between atoms: C7_8  and  N1_9 
REMARK       I    between atoms: N1_9  and  C8_10 
REMARK    2  A    between atoms: C8_10  and  C9_12 
ROOT
HETATM    1  N1  UNL     1      24.731   1.748  52.778  1.00  0.00    -0.355 N 
HETATM    2  C8  UNL     1      24.107   2.326  51.637  1.00  0.00     0.231 C 
HETATM    3  O1  UNL     1      24.843   2.422  50.612  1.00  0.00    -0.272 OA
HETATM    4  H9  UNL     1      24.346   1.557  53.745  1.00  0.00     0.162 HD
ENDROOT
BRANCH   2   5
HETATM    5  C9  UNL     1      22.722   2.690  51.904  1.00  0.00     0.152 C 
HETATM    6  C10 UNL     1      22.465   4.157  51.871  1.00  0.00    -0.002 C 
HETATM    7  C11 UNL     1      21.297   4.562  51.320  1.00  0.00    -0.059 C 
HETATM    8  C12 UNL     1      20.667   5.536  50.341  1.00  0.00     0.064 C 
HETATM    9  C18 UNL     1      20.240   3.647  51.921  1.00  0.00     0.183 C 
HETATM   10  C13 UNL     1      20.720   4.849  48.999  1.00  0.00    -0.003 C 
HETATM   11  C14 UNL     1      21.611   3.874  48.766  1.00  0.00     0.113 C 
HETATM   12  N2  UNL     1      22.444   2.831  48.280  1.00  0.00    -0.259 NA
HETATM   13  C15 UNL     1      21.951   1.632  48.382  1.00  0.00     0.087 C 
HETATM   14  C16 UNL     1      21.635   1.353  49.640  1.00  0.00     0.061 C 
HETATM   15  C17 UNL     1      21.762   2.106  50.878  1.00  0.00     0.048 C 
HETATM   16  N3  UNL     1      20.530   2.361  51.262  1.00  0.00    -0.289 NA
ENDBRANCH   2   5
BRANCH   1  17
HETATM   17  C7  UNL     1      26.131   1.296  52.764  1.00  0.00     0.091 C 
HETATM   18  C6  UNL     1      27.004   2.363  53.306  1.00  0.00     0.052 C 
HETATM   19  C5  UNL     1      28.311   1.969  53.840  1.00  0.00    -0.023 C 
HETATM   20  C4  UNL     1      29.072   0.863  53.953  1.00  0.00     0.020 C 
HETATM   21  C3  UNL     1      28.619  -0.448  53.440  1.00  0.00     0.035 C 
HETATM   22  C2  UNL     1      27.357  -0.852  53.206  1.00  0.00    -0.060 C 
HETATM   23 CL1  UNL     1      29.980  -1.533  53.133  1.00  0.00    -0.084 Cl
HETATM   24  C1  UNL     1      27.316  -2.261  52.685  1.00  0.00     0.045 C 
HETATM   25  C19 UNL     1      26.148  -0.016  53.433  1.00  0.00     0.060 C 
ENDBRANCH   1  17
TORSDOF 2
ENDMDL
MODEL 6
REMARK VINA RESULT:      -7.9      7.600     10.059
REMARK  2 active torsions:
REMARK  status: ('A' for Active; 'I' for Inactive)
REMARK    1  A    between atoms: C7_8  and  N1_9 
REMARK       I    between atoms: N1_9  and  C8_10 
REMARK    2  A    between atoms: C8_10  and  C9_12 
ROOT
HETATM    1  N1  UNL     1      30.393   5.239  47.894  1.00  0.00    -0.355 N 
HETATM    2  C8  UNL     1      31.608   5.361  48.624  1.00  0.00     0.231 C 
HETATM    3  O1  UNL     1      31.533   6.045  49.686  1.00  0.00    -0.272 OA
HETATM    4  H9  UNL     1      30.187   4.731  46.989  1.00  0.00     0.162 HD
ENDROOT
BRANCH   2   5
HETATM    5  C9  UNL     1      32.704   4.653  47.974  1.00  0.00     0.152 C 
HETATM    6  C10 UNL     1      32.370   4.136  46.618  1.00  0.00    -0.002 C 
HETATM    7  C11 UNL     1      33.340   4.213  45.677  1.00  0.00    -0.059 C 
HETATM    8  C12 UNL     1      33.641   4.627  44.248  1.00  0.00     0.064 C 
HETATM    9  C18 UNL     1      34.597   3.705  46.365  1.00  0.00     0.183 C 
HETATM   10  C13 UNL     1      34.007   6.089  44.321  1.00  0.00    -0.003 C 
HETATM   11  C14 UNL     1      33.598   6.845  45.350  1.00  0.00     0.113 C 
HETATM   12  N2  UNL     1      33.296   7.838  46.320  1.00  0.00    -0.259 NA
HETATM   13  C15 UNL     1      34.204   8.018  47.234  1.00  0.00     0.087 C 
HETATM   14  C16 UNL     1      34.466   6.886  47.874  1.00  0.00     0.061 C 
HETATM   15  C17 UNL     1      33.920   5.541  47.760  1.00  0.00     0.048 C 
HETATM   16  N3  UNL     1      34.906   4.801  47.301  1.00  0.00    -0.289 NA
ENDBRANCH   2   5
BRANCH   1  17
HETATM   17  C7  UNL     1      29.139   5.864  48.344  1.00  0.00     0.091 C 
HETATM   18  C6  UNL     1      28.916   7.124  47.596  1.00  0.00     0.052 C 
HETATM   19  C5  UNL     1      27.544   7.632  47.512  1.00  0.00    -0.023 C 
HETATM   20  C4  UNL     1      26.319   7.336  47.987  1.00  0.00     0.020 C 
HETATM   21  C3  UNL     1      26.090   6.181  48.882  1.00  0.00     0.035 C 
HETATM   22  C2  UNL     1      26.851   5.079  49.019  1.00  0.00    -0.060 C 
HETATM   23 CL1  UNL     1      24.617   6.378  49.838  1.00  0.00    -0.084 Cl
HETATM   24  C1  UNL     1      26.276   4.134  50.036  1.00  0.00     0.045 C 
HETATM   25  C19 UNL     1      28.104   4.820  48.261  1.00  0.00     0.060 C 
ENDBRANCH   1  17
TORSDOF 2
ENDMDL
MODEL 7
REMARK VINA RESULT:      -7.8      3.742      5.800
REMARK  2 active torsions:
REMARK  status: ('A' for Active; 'I' for Inactive)
REMARK    1  A    between atoms: C7_8  and  N1_9 
REMARK       I    between atoms: N1_9  and  C8_10 
REMARK    2  A    between atoms: C8_10  and  C9_12 
ROOT
HETATM    1  N1  UNL     1      21.640   1.677  50.860  1.00  0.00    -0.355 N 
HETATM    2  C8  UNL     1      21.876   1.696  49.457  1.00  0.00     0.231 C 
HETATM    3  O1  UNL     1      21.603   0.619  48.851  1.00  0.00    -0.272 OA
HETATM    4  H9  UNL     1      21.783   2.433  51.587  1.00  0.00     0.162 HD
ENDROOT
BRANCH   2   5
HETATM    5  C9  UNL     1      22.392   2.983  49.011  1.00  0.00     0.152 C 
HETATM    6  C10 UNL     1      21.603   4.151  49.493  1.00  0.00    -0.002 C 
HETATM    7  C11 UNL     1      22.299   5.255  49.853  1.00  0.00    -0.059 C 
HETATM    8  C12 UNL     1      22.463   6.312  50.930  1.00  0.00     0.064 C 
HETATM    9  C18 UNL     1      23.310   5.465  48.737  1.00  0.00     0.183 C 
HETATM   10  C13 UNL     1      23.445   5.731  51.918  1.00  0.00    -0.003 C 
HETATM   11  C14 UNL     1      23.626   4.405  52.002  1.00  0.00     0.113 C 
HETATM   12  N2  UNL     1      23.993   3.060  52.276  1.00  0.00    -0.259 NA
HETATM   13  C15 UNL     1      25.047   2.632  51.647  1.00  0.00     0.087 C 
HETATM   14  C16 UNL     1      24.902   2.758  50.335  1.00  0.00     0.061 C 
HETATM   15  C17 UNL     1      23.807   3.243  49.507  1.00  0.00     0.048 C 
HETATM   16  N3  UNL     1      24.251   4.351  48.953  1.00  0.00    -0.289 NA
ENDBRANCH   2   5
BRANCH   1  17
HETATM   17  C7  UNL     1      21.117   0.490  51.554  1.00  0.00     0.091 C 
HETATM   18  C6  UNL     1      22.131  -0.014  52.510  1.00  0.00     0.052 C 
HETATM   19  C5  UNL     1      21.664  -0.840  53.626  1.00  0.00    -0.023 C 
HETATM   20  C4  UNL     1      20.520  -1.392  54.074  1.00  0.00     0.020 C 
HETATM   21  C3  UNL     1      19.240  -1.222  53.352  1.00  0.00     0.035 C 
HETATM   22  C2  UNL     1      18.905  -0.250  52.484  1.00  0.00    -0.060 C 
HETATM   23 CL1  UNL     1      18.092  -2.505  53.751  1.00  0.00    -0.084 Cl
HETATM   24  C1  UNL     1      17.507  -0.433  51.964  1.00  0.00     0.045 C 
HETATM   25  C19 UNL     1      19.798   0.870  52.086  1.00  0.00     0.060 C 
ENDBRANCH   1  17
TORSDOF 2
ENDMDL
MODEL 8
REMARK VINA RESULT:      -7.8      2.984      4.442
REMARK  2 active torsions:
REMARK  status: ('A' for Active; 'I' for Inactive)
REMARK    1  A    between atoms: C7_8  and  N1_9 
REMARK       I    between atoms: N1_9  and  C8_10 
REMARK    2  A    between atoms: C8_10  and  C9_12 
ROOT
HETATM    1  N1  UNL     1      22.442   2.733  51.375  1.00  0.00    -0.355 N 
HETATM    2  C8  UNL     1      23.109   3.988  51.414  1.00  0.00     0.231 C 
HETATM    3  O1  UNL     1      23.593   4.306  52.540  1.00  0.00    -0.272 OA
HETATM    4  H9  UNL     1      21.958   2.241  50.573  1.00  0.00     0.162 HD
ENDROOT
BRANCH   2   5
HETATM    5  C9  UNL     1      23.090   4.653  50.118  1.00  0.00     0.152 C 
HETATM    6  C10 UNL     1      23.373   3.747  48.970  1.00  0.00    -0.002 C 
HETATM    7  C11 UNL     1      22.662   3.953  47.837  1.00  0.00    -0.059 C 
HETATM    8  C12 UNL     1      21.840   3.274  46.756  1.00  0.00     0.064 C 
HETATM    9  C18 UNL     1      22.707   5.456  47.611  1.00  0.00     0.183 C 
HETATM   10  C13 UNL     1      20.427   3.241  47.285  1.00  0.00    -0.003 C 
HETATM   11  C14 UNL     1      20.190   3.320  48.602  1.00  0.00     0.113 C 
HETATM   12  N2  UNL     1      19.685   3.389  49.929  1.00  0.00    -0.259 NA
HETATM   13  C15 UNL     1      19.340   4.577  50.331  1.00  0.00     0.087 C 
HETATM   14  C16 UNL     1      20.354   5.426  50.233  1.00  0.00     0.061 C 
HETATM   15  C17 UNL     1      21.735   5.266  49.801  1.00  0.00     0.048 C 
HETATM   16  N3  UNL     1      21.836   5.960  48.688  1.00  0.00    -0.289 NA
ENDBRANCH   2   5
BRANCH   1  17
HETATM   17  C7  UNL     1      22.324   1.867  52.559  1.00  0.00     0.091 C 
HETATM   18  C6  UNL     1      20.894   1.601  52.841  1.00  0.00     0.052 C 
HETATM   19  C5  UNL     1      20.564   0.408  53.625  1.00  0.00    -0.023 C 
HETATM   20  C4  UNL     1      21.196  -0.581  54.286  1.00  0.00     0.020 C 
HETATM   21  C3  UNL     1      22.672  -0.655  54.351  1.00  0.00     0.035 C 
HETATM   22  C2  UNL     1      23.564  -0.101  53.508  1.00  0.00    -0.060 C 
HETATM   23 CL1  UNL     1      23.217  -1.605  55.737  1.00  0.00    -0.084 Cl
HETATM   24  C1  UNL     1      24.976  -0.408  53.920  1.00  0.00     0.045 C 
HETATM   25  C19 UNL     1      23.205   0.713  52.316  1.00  0.00     0.060 C 
ENDBRANCH   1  17
TORSDOF 2
ENDMDL
MODEL 9
REMARK VINA RESULT:      -7.8      3.119      4.691
REMARK  2 active torsions:
REMARK  status: ('A' for Active; 'I' for Inactive)
REMARK    1  A    between atoms: C7_8  and  N1_9 
REMARK       I    between atoms: N1_9  and  C8_10 
REMARK    2  A    between atoms: C8_10  and  C9_12 
ROOT
HETATM    1  N1  UNL     1      22.435   2.715  50.548  1.00  0.00    -0.355 N 
HETATM    2  C8  UNL     1      22.181   2.663  49.149  1.00  0.00     0.231 C 
HETATM    3  O1  UNL     1      22.114   1.499  48.656  1.00  0.00    -0.272 OA
HETATM    4  H9  UNL     1      22.538   3.547  51.193  1.00  0.00     0.162 HD
ENDROOT
BRANCH   2   5
HETATM    5  C9  UNL     1      22.051   3.995  48.572  1.00  0.00     0.152 C 
HETATM    6  C10 UNL     1      21.106   4.882  49.306  1.00  0.00    -0.002 C 
HETATM    7  C11 UNL     1      21.455   6.184  49.426  1.00  0.00    -0.059 C 
HETATM    8  C12 UNL     1      21.581   7.343  50.398  1.00  0.00     0.064 C 
HETATM    9  C18 UNL     1      21.918   6.597  48.037  1.00  0.00     0.183 C 
HETATM   10  C13 UNL     1      22.964   7.223  50.991  1.00  0.00    -0.003 C 
HETATM   11  C14 UNL     1      23.607   6.047  50.991  1.00  0.00     0.113 C 
HETATM   12  N2  UNL     1      24.482   4.934  51.109  1.00  0.00    -0.259 NA
HETATM   13  C15 UNL     1      25.358   4.813  50.156  1.00  0.00     0.087 C 
HETATM   14  C16 UNL     1      24.766   4.746  48.970  1.00  0.00     0.061 C 
HETATM   15  C17 UNL     1      23.368   4.755  48.566  1.00  0.00     0.048 C 
HETATM   16  N3  UNL     1      23.200   5.883  47.909  1.00  0.00    -0.289 NA
ENDBRANCH   2   5
BRANCH   1  17
HETATM   17  C7  UNL     1      22.606   1.501  51.362  1.00  0.00     0.091 C 
HETATM   18  C6  UNL     1      24.036   1.335  51.713  1.00  0.00     0.052 C 
HETATM   19  C5  UNL     1      24.360   0.520  52.887  1.00  0.00    -0.023 C 
HETATM   20  C4  UNL     1      23.730  -0.247  53.797  1.00  0.00     0.020 C 
HETATM   21  C3  UNL     1      22.265  -0.448  53.764  1.00  0.00     0.035 C 
HETATM   22  C2  UNL     1      21.336   0.340  53.191  1.00  0.00    -0.060 C 
HETATM   23 CL1  UNL     1      21.791  -1.927  54.607  1.00  0.00    -0.084 Cl
HETATM   24  C1  UNL     1      19.951  -0.214  53.379  1.00  0.00     0.045 C 
HETATM   25  C19 UNL     1      21.634   1.601  52.462  1.00  0.00     0.060 C 
ENDBRANCH   1  17
TORSDOF 2
ENDMDL
