MODEL 1
REMARK VINA RESULT:      -9.2      0.000      0.000
REMARK  5 active torsions:
REMARK  status: ('A' for Active; 'I' for Inactive)
REMARK    1  A    between atoms: C2_4  and  C3_5 
REMARK    2  A    between atoms: C3_5  and  S1_7 
REMARK    3  A    between atoms: C7_12  and  N4_13 
REMARK    4  A    between atoms: N4_13  and  C8_14 
REMARK       I    between atoms: N5_17  and  C11_18 
REMARK    5  A    between atoms: C11_18  and  C12_20 
ROOT
HETATM    1  C1  UNL     1      23.564  -1.247  55.096  1.00  0.00     0.180 C 
HETATM    2  N1  UNL     1      24.723  -0.687  54.428  1.00  0.00    -0.271 N 
HETATM    3  N2  UNL     1      26.007  -0.910  54.656  1.00  0.00    -0.167 NA
HETATM    4  C2  UNL     1      26.792  -0.198  53.822  1.00  0.00     0.142 A 
HETATM    5  C4  UNL     1      25.949   0.522  53.012  1.00  0.00     0.008 A 
HETATM    6  C5  UNL     1      24.671   0.188  53.422  1.00  0.00     0.091 A 
HETATM    7  C6  UNL     1      23.576   0.836  52.708  1.00  0.00     0.112 A 
HETATM    8  N3  UNL     1      22.281   0.576  53.019  1.00  0.00    -0.060 NA
HETATM    9  C7  UNL     1      21.275   1.188  52.330  1.00  0.00     0.723 A 
HETATM   10  N6  UNL     1      21.599   2.043  51.349  1.00  0.00    -0.075 NA
HETATM   11  C20 UNL     1      22.878   2.338  50.998  1.00  0.00     0.146 A 
HETATM   12  C21 UNL     1      23.899   1.716  51.698  1.00  0.00    -0.008 A 
HETATM   13  C22 UNL     1      25.250   2.111  51.236  1.00  0.00     0.047 A 
HETATM   14  C23 UNL     1      26.377   1.440  51.939  1.00  0.00     0.048 A 
ENDROOT
BRANCH   9  15
HETATM   15  N4  UNL     1      19.907   0.923  52.633  1.00  0.00    -0.218 N 
HETATM   16  H5  UNL     1      19.427   1.561  53.314  1.00  0.00     0.178 HD
BRANCH  15  17
HETATM   17  C8  UNL     1      19.250  -0.214  51.985  1.00  0.00     0.102 C 
HETATM   18  C9  UNL     1      18.172   0.184  51.034  1.00  0.00     0.045 C 
HETATM   19  C10 UNL     1      16.782   0.093  51.635  1.00  0.00     0.128 C 
HETATM   20  N5  UNL     1      16.567  -1.151  52.313  1.00  0.00    -0.348 N 
HETATM   21  C11 UNL     1      15.647  -2.189  51.944  1.00  0.00     0.253 C 
HETATM   22  C18 UNL     1      17.447  -1.192  53.460  1.00  0.00     0.128 C 
HETATM   23  O2  UNL     1      14.996  -1.906  50.921  1.00  0.00    -0.267 OA
HETATM   24  C19 UNL     1      18.846  -1.279  52.951  1.00  0.00     0.045 C 
BRANCH  21  25
HETATM   25  C12 UNL     1      15.607  -3.379  52.779  1.00  0.00     0.032 A 
HETATM   26  C13 UNL     1      16.592  -4.215  53.239  1.00  0.00     0.017 A 
HETATM   27  C14 UNL     1      16.251  -5.292  54.027  1.00  0.00     0.001 A 
HETATM   28  C15 UNL     1      14.960  -5.561  54.372  1.00  0.00     0.000 A 
HETATM   29  C16 UNL     1      13.943  -4.735  53.923  1.00  0.00     0.001 A 
HETATM   30  C17 UNL     1      14.292  -3.642  53.121  1.00  0.00     0.017 A 
ENDBRANCH  21  25
ENDBRANCH  15  17
ENDBRANCH   9  15
BRANCH   4  31
HETATM   31  C3  UNL     1      28.242  -0.315  53.924  1.00  0.00     0.237 C 
HETATM   32  O1  UNL     1      28.793  -1.431  53.756  1.00  0.00    -0.278 OA
BRANCH  31  33
HETATM   33  S1  UNL     1      29.049   1.259  54.301  1.00  0.00    -0.099 SA
HETATM   34  H4  UNL     1      28.103   2.232  54.585  1.00  0.00     0.110 HD
ENDBRANCH  31  33
ENDBRANCH   4  31
TORSDOF 5
ENDMDL
MODEL 2
REMARK VINA RESULT:      -9.1      5.725      8.976
REMARK  5 active torsions:
REMARK  status: ('A' for Active; 'I' for Inactive)
REMARK    1  A    between atoms: C2_4  and  C3_5 
REMARK    2  A    between atoms: C3_5  and  S1_7 
REMARK    3  A    between atoms: C7_12  and  N4_13 
REMARK    4  A    between atoms: N4_13  and  C8_14 
REMARK       I    between atoms: N5_17  and  C11_18 
REMARK    5  A    between atoms: C11_18  and  C12_20 
ROOT
HETATM    1  C1  UNL     1      27.101   4.041  49.017  1.00  0.00     0.180 C 
HETATM    2  N1  UNL     1      27.460   5.417  48.729  1.00  0.00    -0.271 N 
HETATM    3  N2  UNL     1      28.541   5.890  48.131  1.00  0.00    -0.167 NA
HETATM    4  C2  UNL     1      28.516   7.235  48.047  1.00  0.00     0.142 A 
HETATM    5  C4  UNL     1      27.340   7.641  48.630  1.00  0.00     0.008 A 
HETATM    6  C5  UNL     1      26.714   6.478  49.041  1.00  0.00     0.091 A 
HETATM    7  C6  UNL     1      25.426   6.642  49.706  1.00  0.00     0.112 A 
HETATM    8  N3  UNL     1      24.717   5.570  50.142  1.00  0.00    -0.060 NA
HETATM    9  C7  UNL     1      23.510   5.750  50.753  1.00  0.00     0.723 A 
HETATM   10  N6  UNL     1      23.050   7.000  50.908  1.00  0.00    -0.075 NA
HETATM   11  C20 UNL     1      23.720   8.106  50.490  1.00  0.00     0.146 A 
HETATM   12  C21 UNL     1      24.945   7.923  49.869  1.00  0.00    -0.008 A 
HETATM   13  C22 UNL     1      25.587   9.193  49.457  1.00  0.00     0.047 A 
HETATM   14  C23 UNL     1      26.891   9.041  48.756  1.00  0.00     0.048 A 
ENDROOT
BRANCH   9  15
HETATM   15  N4  UNL     1      22.743   4.638  51.211  1.00  0.00    -0.218 N 
HETATM   16  H5  UNL     1      21.801   4.836  51.630  1.00  0.00     0.178 HD
BRANCH  15  17
HETATM   17  C8  UNL     1      23.304   3.292  51.074  1.00  0.00     0.102 C 
HETATM   18  C9  UNL     1      22.312   2.206  51.323  1.00  0.00     0.045 C 
HETATM   19  C10 UNL     1      22.395   1.632  52.726  1.00  0.00     0.128 C 
HETATM   20  N5  UNL     1      23.742   1.325  53.105  1.00  0.00    -0.348 N 
HETATM   21  C11 UNL     1      24.294   0.025  53.361  1.00  0.00     0.253 C 
HETATM   22  C18 UNL     1      24.476   2.569  53.192  1.00  0.00     0.128 C 
HETATM   23  O2  UNL     1      23.452  -0.883  53.227  1.00  0.00    -0.267 OA
HETATM   24  C19 UNL     1      24.591   3.121  51.812  1.00  0.00     0.045 C 
BRANCH  21  25
HETATM   25  C12 UNL     1      25.700  -0.049  53.723  1.00  0.00     0.032 A 
HETATM   26  C13 UNL     1      26.386   0.350  54.841  1.00  0.00     0.017 A 
HETATM   27  C14 UNL     1      27.747   0.153  54.907  1.00  0.00     0.001 A 
HETATM   28  C15 UNL     1      28.446  -0.431  53.892  1.00  0.00     0.000 A 
HETATM   29  C16 UNL     1      27.782  -0.844  52.749  1.00  0.00     0.001 A 
HETATM   30  C17 UNL     1      26.399  -0.641  52.685  1.00  0.00     0.017 A 
ENDBRANCH  21  25
ENDBRANCH  15  17
ENDBRANCH   9  15
BRANCH   4  31
HETATM   31  C3  UNL     1      29.627   7.937  47.416  1.00  0.00     0.237 C 
HETATM   32  O1  UNL     1      29.687   8.015  46.164  1.00  0.00    -0.278 OA
BRANCH  31  33
HETATM   33  S1  UNL     1      30.801   8.615  48.612  1.00  0.00    -0.099 SA
HETATM   34  H4  UNL     1      30.697   7.947  49.824  1.00  0.00     0.110 HD
ENDBRANCH  31  33
ENDBRANCH   4  31
TORSDOF 5
ENDMDL
MODEL 3
REMARK VINA RESULT:      -9.0      3.359      5.052
REMARK  5 active torsions:
REMARK  status: ('A' for Active; 'I' for Inactive)
REMARK    1  A    between atoms: C2_4  and  C3_5 
REMARK    2  A    between atoms: C3_5  and  S1_7 
REMARK    3  A    between atoms: C7_12  and  N4_13 
REMARK    4  A    between atoms: N4_13  and  C8_14 
REMARK       I    between atoms: N5_17  and  C11_18 
REMARK    5  A    between atoms: C11_18  and  C12_20 
ROOT
HETATM    1  C1  UNL     1      22.967   2.035  50.431  1.00  0.00     0.180 C 
HETATM    2  N1  UNL     1      23.508   1.333  51.578  1.00  0.00    -0.271 N 
HETATM    3  N2  UNL     1      24.753   1.300  52.027  1.00  0.00    -0.167 NA
HETATM    4  C2  UNL     1      24.865   0.529  53.127  1.00  0.00     0.142 A 
HETATM    5  C4  UNL     1      23.608   0.043  53.394  1.00  0.00     0.008 A 
HETATM    6  C5  UNL     1      22.795   0.567  52.406  1.00  0.00     0.091 A 
HETATM    7  C6  UNL     1      21.387   0.189  52.465  1.00  0.00     0.112 A 
HETATM    8  N3  UNL     1      20.495   0.652  51.553  1.00  0.00    -0.060 NA
HETATM    9  C7  UNL     1      19.181   0.290  51.635  1.00  0.00     0.723 A 
HETATM   10  N6  UNL     1      18.803  -0.525  52.630  1.00  0.00    -0.075 NA
HETATM   11  C20 UNL     1      19.655  -1.016  53.567  1.00  0.00     0.146 A 
HETATM   12  C21 UNL     1      20.989  -0.648  53.484  1.00  0.00    -0.008 A 
HETATM   13  C22 UNL     1      21.827  -1.241  54.552  1.00  0.00     0.047 A 
HETATM   14  C23 UNL     1      23.261  -0.845  54.520  1.00  0.00     0.048 A 
ENDROOT
BRANCH   9  15
HETATM   15  N4  UNL     1      18.224   0.772  50.694  1.00  0.00    -0.218 N 
HETATM   16  H5  UNL     1      18.586   1.264  49.841  1.00  0.00     0.178 HD
BRANCH  15  17
HETATM   17  C8  UNL     1      16.802   0.559  50.965  1.00  0.00     0.102 C 
HETATM   18  C9  UNL     1      15.961   0.517  49.733  1.00  0.00     0.045 C 
HETATM   19  C10 UNL     1      15.267   1.835  49.439  1.00  0.00     0.128 C 
HETATM   20  N5  UNL     1      14.622   2.376  50.599  1.00  0.00    -0.348 N 
HETATM   21  C11 UNL     1      13.211   2.552  50.801  1.00  0.00     0.253 C 
HETATM   22  C18 UNL     1      15.647   2.728  51.557  1.00  0.00     0.128 C 
HETATM   23  O2  UNL     1      12.541   2.180  49.820  1.00  0.00    -0.267 OA
HETATM   24  C19 UNL     1      16.272   1.460  52.033  1.00  0.00     0.045 C 
BRANCH  21  25
HETATM   25  C12 UNL     1      12.780   3.114  52.071  1.00  0.00     0.032 A 
HETATM   26  C13 UNL     1      12.694   4.405  52.526  1.00  0.00     0.017 A 
HETATM   27  C14 UNL     1      12.244   4.644  53.805  1.00  0.00     0.001 A 
HETATM   28  C15 UNL     1      11.876   3.635  54.645  1.00  0.00     0.000 A 
HETATM   29  C16 UNL     1      11.951   2.320  54.216  1.00  0.00     0.001 A 
HETATM   30  C17 UNL     1      12.410   2.082  52.915  1.00  0.00     0.017 A 
ENDBRANCH  21  25
ENDBRANCH  15  17
ENDBRANCH   9  15
BRANCH   4  31
HETATM   31  C3  UNL     1      26.167   0.374  53.766  1.00  0.00     0.237 C 
HETATM   32  O1  UNL     1      26.449   1.052  54.784  1.00  0.00    -0.278 OA
BRANCH  31  33
HETATM   33  S1  UNL     1      27.217  -0.840  52.933  1.00  0.00    -0.099 SA
HETATM   34  H4  UNL     1      28.019  -0.218  51.987  1.00  0.00     0.110 HD
ENDBRANCH  31  33
ENDBRANCH   4  31
TORSDOF 5
ENDMDL
MODEL 4
REMARK VINA RESULT:      -8.9      5.148      8.706
REMARK  5 active torsions:
REMARK  status: ('A' for Active; 'I' for Inactive)
REMARK    1  A    between atoms: C2_4  and  C3_5 
REMARK    2  A    between atoms: C3_5  and  S1_7 
REMARK    3  A    between atoms: C7_12  and  N4_13 
REMARK    4  A    between atoms: N4_13  and  C8_14 
REMARK       I    between atoms: N5_17  and  C11_18 
REMARK    5  A    between atoms: C11_18  and  C12_20 
ROOT
HETATM    1  C1  UNL     1      26.387   3.025  50.555  1.00  0.00     0.180 C 
HETATM    2  N1  UNL     1      26.724   2.207  51.705  1.00  0.00    -0.271 N 
HETATM    3  N2  UNL     1      27.880   2.092  52.337  1.00  0.00    -0.167 NA
HETATM    4  C2  UNL     1      27.799   1.226  53.368  1.00  0.00     0.142 A 
HETATM    5  C4  UNL     1      26.506   0.764  53.390  1.00  0.00     0.008 A 
HETATM    6  C5  UNL     1      25.871   1.400  52.339  1.00  0.00     0.091 A 
HETATM    7  C6  UNL     1      24.464   1.069  52.142  1.00  0.00     0.112 A 
HETATM    8  N3  UNL     1      23.738   1.640  51.147  1.00  0.00    -0.060 NA
HETATM    9  C7  UNL     1      22.421   1.320  50.991  1.00  0.00     0.723 A 
HETATM   10  N6  UNL     1      21.871   0.436  51.836  1.00  0.00    -0.075 NA
HETATM   11  C20 UNL     1      22.553  -0.163  52.847  1.00  0.00     0.146 A 
HETATM   12  C21 UNL     1      23.891   0.162  53.007  1.00  0.00    -0.008 A 
HETATM   13  C22 UNL     1      24.536  -0.550  54.134  1.00  0.00     0.047 A 
HETATM   14  C23 UNL     1      25.965  -0.204  54.363  1.00  0.00     0.048 A 
ENDROOT
BRANCH   9  15
HETATM   15  N4  UNL     1      21.636   1.914  49.959  1.00  0.00    -0.218 N 
HETATM   16  H5  UNL     1      21.189   1.275  49.257  1.00  0.00     0.178 HD
BRANCH  15  17
HETATM   17  C8  UNL     1      21.497   3.372  49.932  1.00  0.00     0.102 C 
HETATM   18  C9  UNL     1      20.611   3.864  48.838  1.00  0.00     0.045 C 
HETATM   19  C10 UNL     1      21.377   4.346  47.620  1.00  0.00     0.128 C 
HETATM   20  N5  UNL     1      22.456   5.222  47.971  1.00  0.00    -0.348 N 
HETATM   21  C11 UNL     1      22.576   6.616  47.653  1.00  0.00     0.253 C 
HETATM   22  C18 UNL     1      23.430   4.454  48.716  1.00  0.00     0.128 C 
HETATM   23  O2  UNL     1      21.608   7.038  46.993  1.00  0.00    -0.267 OA
HETATM   24  C19 UNL     1      22.808   4.082  50.020  1.00  0.00     0.045 C 
BRANCH  21  25
HETATM   25  C12 UNL     1      23.761   7.313  48.127  1.00  0.00     0.032 A 
HETATM   26  C13 UNL     1      24.982   7.553  47.549  1.00  0.00     0.017 A 
HETATM   27  C14 UNL     1      25.937   8.253  48.252  1.00  0.00     0.001 A 
HETATM   28  C15 UNL     1      25.713   8.723  49.512  1.00  0.00     0.000 A 
HETATM   29  C16 UNL     1      24.490   8.497  50.123  1.00  0.00     0.001 A 
HETATM   30  C17 UNL     1      23.522   7.784  49.406  1.00  0.00     0.017 A 
ENDBRANCH  21  25
ENDBRANCH  15  17
ENDBRANCH   9  15
BRANCH   4  31
HETATM   31  C3  UNL     1      28.980   0.970  54.185  1.00  0.00     0.237 C 
HETATM   32  O1  UNL     1      29.349   1.819  55.033  1.00  0.00    -0.278 OA
BRANCH  31  33
HETATM   33  S1  UNL     1      29.759  -0.620  53.816  1.00  0.00    -0.099 SA
HETATM   34  H4  UNL     1      31.065  -0.430  53.390  1.00  0.00     0.110 HD
ENDBRANCH  31  33
ENDBRANCH   4  31
TORSDOF 5
ENDMDL
MODEL 5
REMARK VINA RESULT:      -8.8      5.103      8.923
REMARK  5 active torsions:
REMARK  status: ('A' for Active; 'I' for Inactive)
REMARK    1  A    between atoms: C2_4  and  C3_5 
REMARK    2  A    between atoms: C3_5  and  S1_7 
REMARK    3  A    between atoms: C7_12  and  N4_13 
REMARK    4  A    between atoms: N4_13  and  C8_14 
REMARK       I    between atoms: N5_17  and  C11_18 
REMARK    5  A    between atoms: C11_18  and  C12_20 
ROOT
HETATM    1  C1  UNL     1      26.528   3.112  50.624  1.00  0.00     0.180 C 
HETATM    2  N1  UNL     1      26.727   2.215  51.746  1.00  0.00    -0.271 N 
HETATM    3  N2  UNL     1      27.831   1.973  52.436  1.00  0.00    -0.167 NA
HETATM    4  C2  UNL     1      27.618   1.068  53.413  1.00  0.00     0.142 A 
HETATM    5  C4  UNL     1      26.292   0.715  53.337  1.00  0.00     0.008 A 
HETATM    6  C5  UNL     1      25.776   1.451  52.287  1.00  0.00     0.091 A 
HETATM    7  C6  UNL     1      24.361   1.249  51.993  1.00  0.00     0.112 A 
HETATM    8  N3  UNL     1      23.746   1.927  50.991  1.00  0.00    -0.060 NA
HETATM    9  C7  UNL     1      22.419   1.725  50.743  1.00  0.00     0.723 A 
HETATM   10  N6  UNL     1      21.749   0.851  51.508  1.00  0.00    -0.075 NA
HETATM   11  C20 UNL     1      22.318   0.148  52.523  1.00  0.00     0.146 A 
HETATM   12  C21 UNL     1      23.665   0.353  52.775  1.00  0.00    -0.008 A 
HETATM   13  C22 UNL     1      24.181  -0.464  53.898  1.00  0.00     0.047 A 
HETATM   14  C23 UNL     1      25.617  -0.251  54.225  1.00  0.00     0.048 A 
ENDROOT
BRANCH   9  15
HETATM   15  N4  UNL     1      21.749   2.433  49.702  1.00  0.00    -0.218 N 
HETATM   16  H5  UNL     1      21.157   1.876  49.038  1.00  0.00     0.178 HD
BRANCH  15  17
HETATM   17  C8  UNL     1      21.919   3.884  49.615  1.00  0.00     0.102 C 
HETATM   18  C9  UNL     1      20.630   4.631  49.536  1.00  0.00     0.045 C 
HETATM   19  C10 UNL     1      20.253   5.022  48.118  1.00  0.00     0.128 C 
HETATM   20  N5  UNL     1      21.348   5.621  47.413  1.00  0.00    -0.348 N 
HETATM   21  C11 UNL     1      21.441   6.976  46.950  1.00  0.00     0.253 C 
HETATM   22  C18 UNL     1      22.370   4.612  47.238  1.00  0.00     0.128 C 
HETATM   23  O2  UNL     1      20.422   7.641  47.219  1.00  0.00    -0.267 OA
HETATM   24  C19 UNL     1      22.922   4.291  48.585  1.00  0.00     0.045 C 
BRANCH  21  25
HETATM   25  C12 UNL     1      22.661   7.369  46.264  1.00  0.00     0.032 A 
HETATM   26  C13 UNL     1      23.859   7.857  46.720  1.00  0.00     0.017 A 
HETATM   27  C14 UNL     1      24.857   8.153  45.819  1.00  0.00     0.001 A 
HETATM   28  C15 UNL     1      24.698   7.976  44.476  1.00  0.00     0.000 A 
HETATM   29  C16 UNL     1      23.501   7.485  43.984  1.00  0.00     0.001 A 
HETATM   30  C17 UNL     1      22.488   7.187  44.903  1.00  0.00     0.017 A 
ENDBRANCH  21  25
ENDBRANCH  15  17
ENDBRANCH   9  15
BRANCH   4  31
HETATM   31  C3  UNL     1      28.721   0.674  54.281  1.00  0.00     0.237 C 
HETATM   32  O1  UNL     1      28.950   1.319  55.334  1.00  0.00    -0.278 OA
BRANCH  31  33
HETATM   33  S1  UNL     1      29.631  -0.759  53.656  1.00  0.00    -0.099 SA
HETATM   34  H4  UNL     1      29.128  -1.928  54.208  1.00  0.00     0.110 HD
ENDBRANCH  31  33
ENDBRANCH   4  31
TORSDOF 5
ENDMDL
MODEL 6
REMARK VINA RESULT:      -8.8      6.647      9.199
REMARK  5 active torsions:
REMARK  status: ('A' for Active; 'I' for Inactive)
REMARK    1  A    between atoms: C2_4  and  C3_5 
REMARK    2  A    between atoms: C3_5  and  S1_7 
REMARK    3  A    between atoms: C7_12  and  N4_13 
REMARK    4  A    between atoms: N4_13  and  C8_14 
REMARK       I    between atoms: N5_17  and  C11_18 
REMARK    5  A    between atoms: C11_18  and  C12_20 
ROOT
HETATM    1  C1  UNL     1      25.413   9.541  48.586  1.00  0.00     0.180 C 
HETATM    2  N1  UNL     1      26.782   9.531  48.108  1.00  0.00    -0.271 N 
HETATM    3  N2  UNL     1      27.515  10.536  47.655  1.00  0.00    -0.167 NA
HETATM    4  C2  UNL     1      28.751  10.129  47.301  1.00  0.00     0.142 A 
HETATM    5  C4  UNL     1      28.804   8.779  47.547  1.00  0.00     0.008 A 
HETATM    6  C5  UNL     1      27.559   8.448  48.048  1.00  0.00     0.091 A 
HETATM    7  C6  UNL     1      27.354   7.044  48.389  1.00  0.00     0.112 A 
HETATM    8  N3  UNL     1      26.174   6.607  48.898  1.00  0.00    -0.060 NA
HETATM    9  C7  UNL     1      26.013   5.290  49.217  1.00  0.00     0.723 A 
HETATM   10  N6  UNL     1      27.039   4.451  49.015  1.00  0.00    -0.075 NA
HETATM   11  C20 UNL     1      28.239   4.837  48.508  1.00  0.00     0.146 A 
HETATM   12  C21 UNL     1      28.404   6.175  48.185  1.00  0.00    -0.008 A 
HETATM   13  C22 UNL     1      29.746   6.484  47.640  1.00  0.00     0.047 A 
HETATM   14  C23 UNL     1      29.978   7.916  47.311  1.00  0.00     0.048 A 
ENDROOT
BRANCH   9  15
HETATM   15  N4  UNL     1      24.786   4.810  49.763  1.00  0.00    -0.218 N 
HETATM   16  H5  UNL     1      24.090   5.522  50.096  1.00  0.00     0.178 HD
BRANCH  15  17
HETATM   17  C8  UNL     1      24.562   3.365  49.829  1.00  0.00     0.102 C 
HETATM   18  C9  UNL     1      23.351   2.915  49.084  1.00  0.00     0.045 C 
HETATM   19  C10 UNL     1      22.142   2.709  49.978  1.00  0.00     0.128 C 
HETATM   20  N5  UNL     1      22.458   1.941  51.146  1.00  0.00    -0.348 N 
HETATM   21  C11 UNL     1      21.975   0.631  51.478  1.00  0.00     0.253 C 
HETATM   22  C18 UNL     1      23.367   2.720  51.960  1.00  0.00     0.128 C 
HETATM   23  O2  UNL     1      21.195   0.180  50.616  1.00  0.00    -0.267 OA
HETATM   24  C19 UNL     1      24.657   2.825  51.219  1.00  0.00     0.045 C 
BRANCH  21  25
HETATM   25  C12 UNL     1      22.443   0.036  52.719  1.00  0.00     0.032 A 
HETATM   26  C13 UNL     1      23.701  -0.241  53.190  1.00  0.00     0.017 A 
HETATM   27  C14 UNL     1      23.845  -0.826  54.429  1.00  0.00     0.001 A 
HETATM   28  C15 UNL     1      22.775  -1.141  55.213  1.00  0.00     0.000 A 
HETATM   29  C16 UNL     1      21.492  -0.874  54.765  1.00  0.00     0.001 A 
HETATM   30  C17 UNL     1      21.349  -0.281  53.505  1.00  0.00     0.017 A 
ENDBRANCH  21  25
ENDBRANCH  15  17
ENDBRANCH   9  15
BRANCH   4  31
HETATM   31  C3  UNL     1      29.705  11.101  46.778  1.00  0.00     0.237 C 
HETATM   32  O1  UNL     1      29.675  11.414  45.563  1.00  0.00    -0.278 OA
BRANCH  31  33
HETATM   33  S1  UNL     1      30.837  11.725  48.042  1.00  0.00    -0.099 SA
HETATM   34  H4  UNL     1      32.110  11.887  47.513  1.00  0.00     0.110 HD
ENDBRANCH  31  33
ENDBRANCH   4  31
TORSDOF 5
ENDMDL
MODEL 7
REMARK VINA RESULT:      -8.7      5.118      7.580
REMARK  5 active torsions:
REMARK  status: ('A' for Active; 'I' for Inactive)
REMARK    1  A    between atoms: C2_4  and  C3_5 
REMARK    2  A    between atoms: C3_5  and  S1_7 
REMARK    3  A    between atoms: C7_12  and  N4_13 
REMARK    4  A    between atoms: N4_13  and  C8_14 
REMARK       I    between atoms: N5_17  and  C11_18 
REMARK    5  A    between atoms: C11_18  and  C12_20 
ROOT
HETATM    1  C1  UNL     1      26.122   3.064  50.669  1.00  0.00     0.180 C 
HETATM    2  N1  UNL     1      26.608   2.291  51.797  1.00  0.00    -0.271 N 
HETATM    3  N2  UNL     1      27.810   2.288  52.351  1.00  0.00    -0.167 NA
HETATM    4  C2  UNL     1      27.877   1.428  53.387  1.00  0.00     0.142 A 
HETATM    5  C4  UNL     1      26.636   0.850  53.497  1.00  0.00     0.008 A 
HETATM    6  C5  UNL     1      25.878   1.415  52.489  1.00  0.00     0.091 A 
HETATM    7  C6  UNL     1      24.497   0.955  52.387  1.00  0.00     0.112 A 
HETATM    8  N3  UNL     1      23.657   1.448  51.441  1.00  0.00    -0.060 NA
HETATM    9  C7  UNL     1      22.367   1.006  51.374  1.00  0.00     0.723 A 
HETATM   10  N6  UNL     1      21.959   0.084  52.257  1.00  0.00    -0.075 NA
HETATM   11  C20 UNL     1      22.759  -0.441  53.222  1.00  0.00     0.146 A 
HETATM   12  C21 UNL     1      24.068   0.007  53.291  1.00  0.00    -0.008 A 
HETATM   13  C22 UNL     1      24.849  -0.632  54.375  1.00  0.00     0.047 A 
HETATM   14  C23 UNL     1      26.252  -0.155  54.507  1.00  0.00     0.048 A 
ENDROOT
BRANCH   9  15
HETATM   15  N4  UNL     1      21.465   1.517  50.395  1.00  0.00    -0.218 N 
HETATM   16  H5  UNL     1      20.446   1.291  50.508  1.00  0.00     0.178 HD
BRANCH  15  17
HETATM   17  C8  UNL     1      22.001   2.322  49.296  1.00  0.00     0.102 C 
HETATM   18  C9  UNL     1      22.229   3.751  49.661  1.00  0.00     0.045 C 
HETATM   19  C10 UNL     1      21.106   4.668  49.214  1.00  0.00     0.128 C 
HETATM   20  N5  UNL     1      20.732   4.440  47.849  1.00  0.00    -0.348 N 
HETATM   21  C11 UNL     1      20.886   5.347  46.747  1.00  0.00     0.253 C 
HETATM   22  C18 UNL     1      20.158   3.115  47.759  1.00  0.00     0.128 C 
HETATM   23  O2  UNL     1      21.398   6.429  47.091  1.00  0.00    -0.267 OA
HETATM   24  C19 UNL     1      21.251   2.133  48.018  1.00  0.00     0.045 C 
BRANCH  21  25
HETATM   25  C12 UNL     1      20.443   4.894  45.438  1.00  0.00     0.032 A 
HETATM   26  C13 UNL     1      21.028   4.086  44.497  1.00  0.00     0.017 A 
HETATM   27  C14 UNL     1      20.362   3.828  43.319  1.00  0.00     0.001 A 
HETATM   28  C15 UNL     1      19.131   4.350  43.051  1.00  0.00     0.000 A 
HETATM   29  C16 UNL     1      18.515   5.170  43.982  1.00  0.00     0.001 A 
HETATM   30  C17 UNL     1      19.195   5.431  45.177  1.00  0.00     0.017 A 
ENDBRANCH  21  25
ENDBRANCH  15  17
ENDBRANCH   9  15
BRANCH   4  31
HETATM   31  C3  UNL     1      29.128   1.289  54.125  1.00  0.00     0.237 C 
HETATM   32  O1  UNL     1      29.495   2.197  54.911  1.00  0.00    -0.278 OA
BRANCH  31  33
HETATM   33  S1  UNL     1      29.990  -0.258  53.760  1.00  0.00    -0.099 SA
HETATM   34  H4  UNL     1      29.433  -1.304  54.480  1.00  0.00     0.110 HD
ENDBRANCH  31  33
ENDBRANCH   4  31
TORSDOF 5
ENDMDL
MODEL 8
REMARK VINA RESULT:      -8.6      4.265      7.653
REMARK  5 active torsions:
REMARK  status: ('A' for Active; 'I' for Inactive)
REMARK    1  A    between atoms: C2_4  and  C3_5 
REMARK    2  A    between atoms: C3_5  and  S1_7 
REMARK    3  A    between atoms: C7_12  and  N4_13 
REMARK    4  A    between atoms: N4_13  and  C8_14 
REMARK       I    between atoms: N5_17  and  C11_18 
REMARK    5  A    between atoms: C11_18  and  C12_20 
ROOT
HETATM    1  C1  UNL     1      24.590   2.077  51.050  1.00  0.00     0.180 C 
HETATM    2  N1  UNL     1      25.152   1.195  52.056  1.00  0.00    -0.271 N 
HETATM    3  N2  UNL     1      26.418   0.875  52.272  1.00  0.00    -0.167 NA
HETATM    4  C2  UNL     1      26.545   0.019  53.306  1.00  0.00     0.142 A 
HETATM    5  C4  UNL     1      25.276  -0.219  53.775  1.00  0.00     0.008 A 
HETATM    6  C5  UNL     1      24.440   0.532  52.969  1.00  0.00     0.091 A 
HETATM    7  C6  UNL     1      23.014   0.447  53.264  1.00  0.00     0.112 A 
HETATM    8  N3  UNL     1      22.102   1.150  52.545  1.00  0.00    -0.060 NA
HETATM    9  C7  UNL     1      20.775   1.059  52.848  1.00  0.00     0.723 A 
HETATM   10  N6  UNL     1      20.402   0.267  53.863  1.00  0.00    -0.075 NA
HETATM   11  C20 UNL     1      21.274  -0.456  54.614  1.00  0.00     0.146 A 
HETATM   12  C21 UNL     1      22.622  -0.364  54.307  1.00  0.00    -0.008 A 
HETATM   13  C22 UNL     1      23.480  -1.194  55.184  1.00  0.00     0.047 A 
HETATM   14  C23 UNL     1      24.939  -1.098  54.911  1.00  0.00     0.048 A 
ENDROOT
BRANCH   9  15
HETATM   15  N4  UNL     1      19.800   1.795  52.112  1.00  0.00    -0.218 N 
HETATM   16  H5  UNL     1      19.037   1.253  51.638  1.00  0.00     0.178 HD
BRANCH  15  17
HETATM   17  C8  UNL     1      19.914   3.254  52.057  1.00  0.00     0.102 C 
HETATM   18  C9  UNL     1      18.763   3.915  51.374  1.00  0.00     0.045 C 
HETATM   19  C10 UNL     1      19.051   4.267  49.926  1.00  0.00     0.128 C 
HETATM   20  N5  UNL     1      20.312   4.929  49.771  1.00  0.00    -0.348 N 
HETATM   21  C11 UNL     1      20.533   6.283  49.349  1.00  0.00     0.253 C 
HETATM   22  C18 UNL     1      21.355   3.986  50.115  1.00  0.00     0.128 C 
HETATM   23  O2  UNL     1      19.470   6.883  49.102  1.00  0.00    -0.267 OA
HETATM   24  C19 UNL     1      21.251   3.715  51.577  1.00  0.00     0.045 C 
BRANCH  21  25
HETATM   25  C12 UNL     1      21.909   6.747  49.275  1.00  0.00     0.032 A 
HETATM   26  C13 UNL     1      22.847   6.692  48.276  1.00  0.00     0.017 A 
HETATM   27  C14 UNL     1      24.100   7.222  48.495  1.00  0.00     0.001 A 
HETATM   28  C15 UNL     1      24.446   7.805  49.677  1.00  0.00     0.000 A 
HETATM   29  C16 UNL     1      23.520   7.876  50.706  1.00  0.00     0.001 A 
HETATM   30  C17 UNL     1      22.249   7.336  50.481  1.00  0.00     0.017 A 
ENDBRANCH  21  25
ENDBRANCH  15  17
ENDBRANCH   9  15
BRANCH   4  31
HETATM   31  C3  UNL     1      27.871  -0.447  53.694  1.00  0.00     0.237 C 
HETATM   32  O1  UNL     1      28.193  -1.646  53.505  1.00  0.00    -0.278 OA
BRANCH  31  33
HETATM   33  S1  UNL     1      28.887   0.856  54.428  1.00  0.00    -0.099 SA
HETATM   34  H4  UNL     1      29.746   0.323  55.378  1.00  0.00     0.110 HD
ENDBRANCH  31  33
ENDBRANCH   4  31
TORSDOF 5
ENDMDL
MODEL 9
REMARK VINA RESULT:      -8.6      4.466      8.054
REMARK  5 active torsions:
REMARK  status: ('A' for Active; 'I' for Inactive)
REMARK    1  A    between atoms: C2_4  and  C3_5 
REMARK    2  A    between atoms: C3_5  and  S1_7 
REMARK    3  A    between atoms: C7_12  and  N4_13 
REMARK    4  A    between atoms: N4_13  and  C8_14 
REMARK       I    between atoms: N5_17  and  C11_18 
REMARK    5  A    between atoms: C11_18  and  C12_20 
ROOT
HETATM    1  C1  UNL     1      23.417   5.102  52.424  1.00  0.00     0.180 C 
HETATM    2  N1  UNL     1      23.628   5.708  51.124  1.00  0.00    -0.271 N 
HETATM    3  N2  UNL     1      24.395   6.735  50.795  1.00  0.00    -0.167 NA
HETATM    4  C2  UNL     1      24.327   7.006  49.476  1.00  0.00     0.142 A 
HETATM    5  C4  UNL     1      23.459   6.090  48.934  1.00  0.00     0.008 A 
HETATM    6  C5  UNL     1      23.048   5.302  49.993  1.00  0.00     0.091 A 
HETATM    7  C6  UNL     1      22.102   4.238  49.674  1.00  0.00     0.112 A 
HETATM    8  N3  UNL     1      21.638   3.397  50.633  1.00  0.00    -0.060 NA
HETATM    9  C7  UNL     1      20.760   2.404  50.306  1.00  0.00     0.723 A 
HETATM   10  N6  UNL     1      20.375   2.284  49.028  1.00  0.00    -0.075 NA
HETATM   11  C20 UNL     1      20.809   3.099  48.031  1.00  0.00     0.146 A 
HETATM   12  C21 UNL     1      21.700   4.107  48.362  1.00  0.00    -0.008 A 
HETATM   13  C22 UNL     1      22.105   4.935  47.202  1.00  0.00     0.047 A 
HETATM   14  C23 UNL     1      23.089   6.009  47.508  1.00  0.00     0.048 A 
ENDROOT
BRANCH   9  15
HETATM   15  N4  UNL     1      20.267   1.503  51.295  1.00  0.00    -0.218 N 
HETATM   16  H5  UNL     1      19.324   1.704  51.711  1.00  0.00     0.178 HD
BRANCH  15  17
HETATM   17  C8  UNL     1      21.093   0.355  51.676  1.00  0.00     0.102 C 
HETATM   18  C9  UNL     1      20.685  -0.268  52.969  1.00  0.00     0.045 C 
HETATM   19  C10 UNL     1      21.534   0.186  54.144  1.00  0.00     0.128 C 
HETATM   20  N5  UNL     1      22.936   0.125  53.853  1.00  0.00    -0.348 N 
HETATM   21  C11 UNL     1      23.909  -0.736  54.463  1.00  0.00     0.253 C 
HETATM   22  C18 UNL     1      23.220   1.097  52.820  1.00  0.00     0.128 C 
HETATM   23  O2  UNL     1      23.411  -1.475  55.333  1.00  0.00    -0.267 OA
HETATM   24  C19 UNL     1      22.557   0.631  51.568  1.00  0.00     0.045 C 
BRANCH  21  25
HETATM   25  C12 UNL     1      25.283  -0.632  53.998  1.00  0.00     0.032 A 
HETATM   26  C13 UNL     1      25.906  -1.075  52.859  1.00  0.00     0.017 A 
HETATM   27  C14 UNL     1      27.250  -0.831  52.685  1.00  0.00     0.001 A 
HETATM   28  C15 UNL     1      27.992  -0.159  53.610  1.00  0.00     0.000 A 
HETATM   29  C16 UNL     1      27.392   0.301  54.771  1.00  0.00     0.001 A 
HETATM   30  C17 UNL     1      26.026   0.050  54.945  1.00  0.00     0.017 A 
ENDBRANCH  21  25
ENDBRANCH  15  17
ENDBRANCH   9  15
BRANCH   4  31
HETATM   31  C3  UNL     1      25.108   8.108  48.927  1.00  0.00     0.237 C 
HETATM   32  O1  UNL     1      24.524   9.115  48.456  1.00  0.00    -0.278 OA
BRANCH  31  33
HETATM   33  S1  UNL     1      26.891   7.820  49.021  1.00  0.00    -0.099 SA
HETATM   34  H4  UNL     1      27.277   6.868  48.088  1.00  0.00     0.110 HD
ENDBRANCH  31  33
ENDBRANCH   4  31
TORSDOF 5
ENDMDL
