MODEL 1
REMARK VINA RESULT:      -9.3      0.000      0.000
REMARK  3 active torsions:
REMARK  status: ('A' for Active; 'I' for Inactive)
REMARK    1  A    between atoms: C5_6  and  C6_7 
REMARK    2  A    between atoms: C7_8  and  C8_9 
REMARK    3  A    between atoms: C8_9  and  C9_10 
ROOT
HETATM    1  C6  UNL     1      25.127   1.385  52.368  1.00  0.00    -0.036 C 
HETATM    2  C7  UNL     1      23.870   1.835  52.595  1.00  0.00    -0.054 C 
HETATM    3  C15 UNL     1      23.102   3.050  52.312  1.00  0.00     0.007 C 
HETATM    4  C16 UNL     1      23.868   3.942  51.731  1.00  0.00     0.126 C 
HETATM    5  N2  UNL     1      23.863   5.250  51.193  1.00  0.00    -0.412 N 
HETATM    6  C17 UNL     1      24.058   6.216  50.185  1.00  0.00     0.116 C 
HETATM    7  C18 UNL     1      25.369   6.729  49.830  1.00  0.00     0.038 C 
HETATM    8  C19 UNL     1      26.463   6.004  49.161  1.00  0.00     0.115 C 
HETATM    9  N3  UNL     1      27.013   4.836  49.718  1.00  0.00    -0.421 N 
HETATM   10  C20 UNL     1      26.235   3.651  49.554  1.00  0.00     0.119 C 
HETATM   11  C21 UNL     1      26.690   2.542  50.425  1.00  0.00     0.018 C 
HETATM   12  C22 UNL     1      25.667   2.229  51.259  1.00  0.00     0.032 C 
HETATM   13  H21 UNL     1      23.671   6.063  51.908  1.00  0.00     0.153 HD
HETATM   14  H28 UNL     1      27.526   4.927  50.616  1.00  0.00     0.153 HD
ENDROOT
BRANCH   2  15
HETATM   15  C8  UNL     1      23.293   0.846  53.493  1.00  0.00     0.049 C 
BRANCH  15  16
HETATM   16  C9  UNL     1      22.453  -0.250  52.851  1.00  0.00     0.034 A 
HETATM   17  C10 UNL     1      22.114  -1.277  53.842  1.00  0.00    -0.020 A 
HETATM   18  C11 UNL     1      20.926  -1.658  54.262  1.00  0.00    -0.004 A 
HETATM   19  C12 UNL     1      19.712  -1.047  53.730  1.00  0.00    -0.003 A 
HETATM   20  C13 UNL     1      19.942  -0.103  52.809  1.00  0.00    -0.006 A 
HETATM   21  C14 UNL     1      21.204   0.395  52.268  1.00  0.00     0.113 A 
HETATM   22 CL1  UNL     1      21.275   0.357  50.489  1.00  0.00    -0.120 Cl
ENDBRANCH  15  16
ENDBRANCH   2  15
BRANCH   1  23
HETATM   23  C5  UNL     1      25.719   0.131  52.986  1.00  0.00     0.252 C 
HETATM   24  N1  UNL     1      26.791   0.578  53.918  1.00  0.00     0.092 N 
HETATM   25  C1  UNL     1      26.463   0.381  55.283  1.00  0.00     0.310 C 
HETATM   26  C2  UNL     1      28.028   0.058  53.473  1.00  0.00     0.273 C 
HETATM   27  C3  UNL     1      27.649  -1.217  52.760  1.00  0.00     0.033 C 
HETATM   28  C4  UNL     1      26.429  -0.715  51.989  1.00  0.00     0.042 C 
ENDBRANCH   1  23
TORSDOF 3
ENDMDL
MODEL 2
REMARK VINA RESULT:      -9.2      2.860      6.896
REMARK  3 active torsions:
REMARK  status: ('A' for Active; 'I' for Inactive)
REMARK    1  A    between atoms: C5_6  and  C6_7 
REMARK    2  A    between atoms: C7_8  and  C8_9 
REMARK    3  A    between atoms: C8_9  and  C9_10 
ROOT
HETATM    1  C6  UNL     1      22.574   1.472  51.965  1.00  0.00    -0.036 C 
HETATM    2  C7  UNL     1      22.978   0.500  52.818  1.00  0.00    -0.054 C 
HETATM    3  C15 UNL     1      22.349  -0.570  53.596  1.00  0.00     0.007 C 
HETATM    4  C16 UNL     1      21.046  -0.524  53.454  1.00  0.00     0.126 C 
HETATM    5  N2  UNL     1      19.848  -1.163  53.849  1.00  0.00    -0.412 N 
HETATM    6  C17 UNL     1      18.623  -1.824  53.630  1.00  0.00     0.116 C 
HETATM    7  C18 UNL     1      17.409  -1.126  53.246  1.00  0.00     0.038 C 
HETATM    8  C19 UNL     1      17.128  -0.463  51.960  1.00  0.00     0.115 C 
HETATM    9  N3  UNL     1      17.942   0.579  51.483  1.00  0.00    -0.421 N 
HETATM   10  C20 UNL     1      19.184   0.175  50.910  1.00  0.00     0.119 C 
HETATM   11  C21 UNL     1      20.125   1.306  50.727  1.00  0.00     0.018 C 
HETATM   12  C22 UNL     1      21.221   1.054  51.485  1.00  0.00     0.032 C 
HETATM   13  H21 UNL     1      19.608  -1.114  54.921  1.00  0.00     0.153 HD
HETATM   14  H28 UNL     1      17.952   1.467  52.020  1.00  0.00     0.153 HD
ENDROOT
BRANCH   2  15
HETATM   15  C8  UNL     1      24.379   0.806  53.069  1.00  0.00     0.049 C 
BRANCH  15  16
HETATM   16  C9  UNL     1      25.257  -0.350  53.530  1.00  0.00     0.034 A 
HETATM   17  C10 UNL     1      26.298  -0.626  52.535  1.00  0.00    -0.020 A 
HETATM   18  C11 UNL     1      27.606  -0.569  52.671  1.00  0.00    -0.004 A 
HETATM   19  C12 UNL     1      28.211  -0.199  53.947  1.00  0.00    -0.003 A 
HETATM   20  C13 UNL     1      27.320   0.060  54.912  1.00  0.00    -0.006 A 
HETATM   21  C14 UNL     1      25.859   0.025  54.877  1.00  0.00     0.113 A 
HETATM   22 CL1  UNL     1      25.144  -0.978  56.162  1.00  0.00    -0.120 Cl
ENDBRANCH  15  16
ENDBRANCH   2  15
BRANCH   1  23
HETATM   23  C5  UNL     1      23.455   2.603  51.466  1.00  0.00     0.252 C 
HETATM   24  N1  UNL     1      22.738   3.871  51.772  1.00  0.00     0.092 N 
HETATM   25  C1  UNL     1      23.358   4.632  52.795  1.00  0.00     0.310 C 
HETATM   26  C2  UNL     1      22.452   4.538  50.559  1.00  0.00     0.273 C 
HETATM   27  C3  UNL     1      23.558   4.094  49.633  1.00  0.00     0.033 C 
HETATM   28  C4  UNL     1      23.591   2.608  49.985  1.00  0.00     0.042 C 
ENDBRANCH   1  23
TORSDOF 3
ENDMDL
MODEL 3
REMARK VINA RESULT:      -9.0      2.694      6.042
REMARK  3 active torsions:
REMARK  status: ('A' for Active; 'I' for Inactive)
REMARK    1  A    between atoms: C5_6  and  C6_7 
REMARK    2  A    between atoms: C7_8  and  C8_9 
REMARK    3  A    between atoms: C8_9  and  C9_10 
ROOT
HETATM    1  C6  UNL     1      23.456   1.199  51.965  1.00  0.00    -0.036 C 
HETATM    2  C7  UNL     1      24.108   2.065  51.153  1.00  0.00    -0.054 C 
HETATM    3  C15 UNL     1      25.446   2.657  51.075  1.00  0.00     0.007 C 
HETATM    4  C16 UNL     1      26.169   2.275  52.099  1.00  0.00     0.126 C 
HETATM    5  N2  UNL     1      27.450   2.405  52.684  1.00  0.00    -0.412 N 
HETATM    6  C17 UNL     1      28.670   1.927  53.202  1.00  0.00     0.116 C 
HETATM    7  C18 UNL     1      28.790   1.354  54.531  1.00  0.00     0.038 C 
HETATM    8  C19 UNL     1      28.241   0.072  55.005  1.00  0.00     0.115 C 
HETATM    9  N3  UNL     1      26.861  -0.192  54.958  1.00  0.00    -0.421 N 
HETATM   10  C20 UNL     1      26.345  -0.539  53.675  1.00  0.00     0.119 C 
HETATM   11  C21 UNL     1      24.865  -0.485  53.619  1.00  0.00     0.018 C 
HETATM   12  C22 UNL     1      24.522   0.453  52.702  1.00  0.00     0.032 C 
HETATM   13  H21 UNL     1      27.721   3.413  53.029  1.00  0.00     0.153 HD
HETATM   14  H28 UNL     1      26.240   0.380  55.563  1.00  0.00     0.153 HD
ENDROOT
BRANCH   2  15
HETATM   15  C8  UNL     1      23.067   2.591  50.282  1.00  0.00     0.049 C 
BRANCH  15  16
HETATM   16  C9  UNL     1      23.507   3.071  48.905  1.00  0.00     0.034 A 
HETATM   17  C10 UNL     1      22.704   2.426  47.862  1.00  0.00    -0.020 A 
HETATM   18  C11 UNL     1      21.911   2.983  46.969  1.00  0.00    -0.004 A 
HETATM   19  C12 UNL     1      21.741   4.431  46.918  1.00  0.00    -0.003 A 
HETATM   20  C13 UNL     1      22.453   5.091  47.839  1.00  0.00    -0.006 A 
HETATM   21  C14 UNL     1      23.361   4.585  48.866  1.00  0.00     0.113 A 
HETATM   22 CL1  UNL     1      24.967   5.351  48.831  1.00  0.00    -0.120 Cl
ENDBRANCH  15  16
ENDBRANCH   2  15
BRANCH   1  23
HETATM   23  C5  UNL     1      21.963   0.930  51.919  1.00  0.00     0.252 C 
HETATM   24  N1  UNL     1      21.361   1.658  53.070  1.00  0.00     0.092 N 
HETATM   25  C1  UNL     1      20.573   2.770  52.679  1.00  0.00     0.310 C 
HETATM   26  C2  UNL     1      20.761   0.719  53.939  1.00  0.00     0.273 C 
HETATM   27  C3  UNL     1      20.368  -0.419  53.028  1.00  0.00     0.033 C 
HETATM   28  C4  UNL     1      21.633  -0.497  52.174  1.00  0.00     0.042 C 
ENDBRANCH   1  23
TORSDOF 3
ENDMDL
MODEL 4
REMARK VINA RESULT:      -8.8      2.484      6.543
REMARK  3 active torsions:
REMARK  status: ('A' for Active; 'I' for Inactive)
REMARK    1  A    between atoms: C5_6  and  C6_7 
REMARK    2  A    between atoms: C7_8  and  C8_9 
REMARK    3  A    between atoms: C8_9  and  C9_10 
ROOT
HETATM    1  C6  UNL     1      23.695   2.404  51.844  1.00  0.00    -0.036 C 
HETATM    2  C7  UNL     1      23.988   1.653  52.932  1.00  0.00    -0.054 C 
HETATM    3  C15 UNL     1      23.295   0.678  53.778  1.00  0.00     0.007 C 
HETATM    4  C16 UNL     1      22.048   0.552  53.392  1.00  0.00     0.126 C 
HETATM    5  N2  UNL     1      20.845  -0.134  53.678  1.00  0.00    -0.412 N 
HETATM    6  C17 UNL     1      19.742  -0.956  53.372  1.00  0.00     0.116 C 
HETATM    7  C18 UNL     1      18.584  -0.478  52.639  1.00  0.00     0.038 C 
HETATM    8  C19 UNL     1      18.520  -0.095  51.218  1.00  0.00     0.115 C 
HETATM    9  N3  UNL     1      19.335   0.928  50.701  1.00  0.00    -0.421 N 
HETATM   10  C20 UNL     1      20.694   0.569  50.460  1.00  0.00     0.119 C 
HETATM   11  C21 UNL     1      21.566   1.745  50.233  1.00  0.00     0.018 C 
HETATM   12  C22 UNL     1      22.501   1.758  51.215  1.00  0.00     0.032 C 
HETATM   13  H21 UNL     1      20.390   0.081  54.655  1.00  0.00     0.153 HD
HETATM   14  H28 UNL     1      19.170   1.895  51.044  1.00  0.00     0.153 HD
ENDROOT
BRANCH   2  15
HETATM   15  C8  UNL     1      25.283   2.153  53.372  1.00  0.00     0.049 C 
BRANCH  15  16
HETATM   16  C9  UNL     1      26.507   1.367  52.921  1.00  0.00     0.034 A 
HETATM   17  C10 UNL     1      27.697   2.224  52.943  1.00  0.00    -0.020 A 
HETATM   18  C11 UNL     1      28.802   2.082  53.645  1.00  0.00    -0.004 A 
HETATM   19  C12 UNL     1      28.974   0.950  54.550  1.00  0.00    -0.003 A 
HETATM   20  C13 UNL     1      27.928   0.116  54.577  1.00  0.00    -0.006 A 
HETATM   21  C14 UNL     1      26.664   0.169  53.845  1.00  0.00     0.113 A 
HETATM   22 CL1  UNL     1      26.293  -1.332  52.963  1.00  0.00    -0.120 Cl
ENDBRANCH  15  16
ENDBRANCH   2  15
BRANCH   1  23
HETATM   23  C5  UNL     1      24.572   3.517  51.301  1.00  0.00     0.252 C 
HETATM   24  N1  UNL     1      23.662   4.629  50.912  1.00  0.00     0.092 N 
HETATM   25  C1  UNL     1      23.769   5.762  51.758  1.00  0.00     0.310 C 
HETATM   26  C2  UNL     1      23.782   4.851  49.521  1.00  0.00     0.273 C 
HETATM   27  C3  UNL     1      25.195   4.423  49.207  1.00  0.00     0.033 C 
HETATM   28  C4  UNL     1      25.252   3.139  50.033  1.00  0.00     0.042 C 
ENDBRANCH   1  23
TORSDOF 3
ENDMDL
MODEL 5
REMARK VINA RESULT:      -8.6      2.740      7.534
REMARK  3 active torsions:
REMARK  status: ('A' for Active; 'I' for Inactive)
REMARK    1  A    between atoms: C5_6  and  C6_7 
REMARK    2  A    between atoms: C7_8  and  C8_9 
REMARK    3  A    between atoms: C8_9  and  C9_10 
ROOT
HETATM    1  C6  UNL     1      22.762   2.221  50.671  1.00  0.00    -0.036 C 
HETATM    2  C7  UNL     1      24.114   2.255  50.737  1.00  0.00    -0.054 C 
HETATM    3  C15 UNL     1      25.156   1.710  51.611  1.00  0.00     0.007 C 
HETATM    4  C16 UNL     1      24.612   1.066  52.615  1.00  0.00     0.126 C 
HETATM    5  N2  UNL     1      24.924   0.327  53.779  1.00  0.00    -0.412 N 
HETATM    6  C17 UNL     1      24.883  -0.801  54.624  1.00  0.00     0.116 C 
HETATM    7  C18 UNL     1      23.743  -1.111  55.467  1.00  0.00     0.038 C 
HETATM    8  C19 UNL     1      22.405  -1.551  55.037  1.00  0.00     0.115 C 
HETATM    9  N3  UNL     1      21.620  -0.764  54.175  1.00  0.00    -0.421 N 
HETATM   10  C20 UNL     1      21.988  -0.807  52.798  1.00  0.00     0.119 C 
HETATM   11  C21 UNL     1      21.354   0.270  52.001  1.00  0.00     0.018 C 
HETATM   12  C22 UNL     1      22.345   1.045  51.495  1.00  0.00     0.032 C 
HETATM   13  H21 UNL     1      25.440   0.881  54.577  1.00  0.00     0.153 HD
HETATM   14  H28 UNL     1      21.283   0.151  54.531  1.00  0.00     0.153 HD
ENDROOT
BRANCH   2  15
HETATM   15  C8  UNL     1      24.495   3.243  49.739  1.00  0.00     0.049 C 
BRANCH  15  16
HETATM   16  C9  UNL     1      25.511   4.292  50.171  1.00  0.00     0.034 A 
HETATM   17  C10 UNL     1      26.805   4.042  49.527  1.00  0.00    -0.020 A 
HETATM   18  C11 UNL     1      27.482   4.817  48.706  1.00  0.00    -0.004 A 
HETATM   19  C12 UNL     1      26.971   6.129  48.323  1.00  0.00    -0.003 A 
HETATM   20  C13 UNL     1      25.793   6.434  48.880  1.00  0.00    -0.006 A 
HETATM   21  C14 UNL     1      24.961   5.662  49.800  1.00  0.00     0.113 A 
HETATM   22 CL1  UNL     1      24.516   6.557  51.273  1.00  0.00    -0.120 Cl
ENDBRANCH  15  16
ENDBRANCH   2  15
BRANCH   1  23
HETATM   23  C5  UNL     1      21.920   3.084  49.749  1.00  0.00     0.252 C 
HETATM   24  N1  UNL     1      20.925   3.784  50.608  1.00  0.00     0.092 N 
HETATM   25  C1  UNL     1      21.165   5.177  50.722  1.00  0.00     0.310 C 
HETATM   26  C2  UNL     1      19.626   3.385  50.217  1.00  0.00     0.273 C 
HETATM   27  C3  UNL     1      19.776   3.049  48.754  1.00  0.00     0.033 C 
HETATM   28  C4  UNL     1      21.094   2.278  48.812  1.00  0.00     0.042 C 
ENDBRANCH   1  23
TORSDOF 3
ENDMDL
MODEL 6
REMARK VINA RESULT:      -8.3      2.797      5.746
REMARK  3 active torsions:
REMARK  status: ('A' for Active; 'I' for Inactive)
REMARK    1  A    between atoms: C5_6  and  C6_7 
REMARK    2  A    between atoms: C7_8  and  C8_9 
REMARK    3  A    between atoms: C8_9  and  C9_10 
ROOT
HETATM    1  C6  UNL     1      24.205   4.410  49.227  1.00  0.00    -0.036 C 
HETATM    2  C7  UNL     1      25.183   3.659  49.786  1.00  0.00    -0.054 C 
HETATM    3  C15 UNL     1      26.648   3.641  49.791  1.00  0.00     0.007 C 
HETATM    4  C16 UNL     1      27.113   4.575  48.997  1.00  0.00     0.126 C 
HETATM    5  N2  UNL     1      28.313   5.144  48.510  1.00  0.00    -0.412 N 
HETATM    6  C17 UNL     1      29.220   6.195  48.267  1.00  0.00     0.116 C 
HETATM    7  C18 UNL     1      29.042   7.155  47.194  1.00  0.00     0.038 C 
HETATM    8  C19 UNL     1      28.010   8.201  47.091  1.00  0.00     0.115 C 
HETATM    9  N3  UNL     1      26.641   7.879  47.100  1.00  0.00    -0.421 N 
HETATM   10  C20 UNL     1      26.090   7.576  48.381  1.00  0.00     0.119 C 
HETATM   11  C21 UNL     1      24.756   6.937  48.293  1.00  0.00     0.018 C 
HETATM   12  C22 UNL     1      24.854   5.703  48.846  1.00  0.00     0.032 C 
HETATM   13  H21 UNL     1      28.943   4.484  47.897  1.00  0.00     0.153 HD
HETATM   14  H28 UNL     1      26.269   7.333  46.299  1.00  0.00     0.153 HD
ENDROOT
BRANCH   2  15
HETATM   15  C8  UNL     1      24.476   2.525  50.364  1.00  0.00     0.049 C 
BRANCH  15  16
HETATM   16  C9  UNL     1      24.546   2.376  51.878  1.00  0.00     0.034 A 
HETATM   17  C10 UNL     1      23.208   2.133  52.427  1.00  0.00    -0.020 A 
HETATM   18  C11 UNL     1      22.771   1.091  53.102  1.00  0.00    -0.004 A 
HETATM   19  C12 UNL     1      23.655  -0.028  53.408  1.00  0.00    -0.003 A 
HETATM   20  C13 UNL     1      24.902   0.126  52.945  1.00  0.00    -0.006 A 
HETATM   21  C14 UNL     1      25.496   1.230  52.195  1.00  0.00     0.113 A 
HETATM   22 CL1  UNL     1      26.988   1.864  52.930  1.00  0.00    -0.120 Cl
ENDBRANCH  15  16
ENDBRANCH   2  15
BRANCH   1  23
HETATM   23  C5  UNL     1      22.731   4.049  49.228  1.00  0.00     0.252 C 
HETATM   24  N1  UNL     1      22.276   4.102  47.811  1.00  0.00     0.092 N 
HETATM   25  C1  UNL     1      21.982   2.826  47.270  1.00  0.00     0.310 C 
HETATM   26  C2  UNL     1      21.280   5.097  47.690  1.00  0.00     0.273 C 
HETATM   27  C3  UNL     1      20.638   5.135  49.056  1.00  0.00     0.033 C 
HETATM   28  C4  UNL     1      21.896   5.066  49.920  1.00  0.00     0.042 C 
ENDBRANCH   1  23
TORSDOF 3
ENDMDL
MODEL 7
REMARK VINA RESULT:      -8.3      3.176      7.883
REMARK  3 active torsions:
REMARK  status: ('A' for Active; 'I' for Inactive)
REMARK    1  A    between atoms: C5_6  and  C6_7 
REMARK    2  A    between atoms: C7_8  and  C8_9 
REMARK    3  A    between atoms: C8_9  and  C9_10 
ROOT
HETATM    1  C6  UNL     1      22.629   2.963  49.407  1.00  0.00    -0.036 C 
HETATM    2  C7  UNL     1      23.888   2.792  49.876  1.00  0.00    -0.054 C 
HETATM    3  C15 UNL     1      24.520   2.162  51.038  1.00  0.00     0.007 C 
HETATM    4  C16 UNL     1      23.605   1.689  51.848  1.00  0.00     0.126 C 
HETATM    5  N2  UNL     1      23.431   1.002  53.072  1.00  0.00    -0.412 N 
HETATM    6  C17 UNL     1      22.952  -0.037  53.895  1.00  0.00     0.116 C 
HETATM    7  C18 UNL     1      21.580  -0.100  54.364  1.00  0.00     0.038 C 
HETATM    8  C19 UNL     1      20.372  -0.360  53.563  1.00  0.00     0.115 C 
HETATM    9  N3  UNL     1      20.020   0.470  52.483  1.00  0.00    -0.421 N 
HETATM   10  C20 UNL     1      20.762   0.265  51.283  1.00  0.00     0.119 C 
HETATM   11  C21 UNL     1      20.582   1.362  50.303  1.00  0.00     0.018 C 
HETATM   12  C22 UNL     1      21.795   1.933  50.098  1.00  0.00     0.032 C 
HETATM   13  H21 UNL     1      23.778   1.530  53.973  1.00  0.00     0.153 HD
HETATM   14  H28 UNL     1      19.755   1.451  52.697  1.00  0.00     0.153 HD
ENDROOT
BRANCH   2  15
HETATM   15  C8  UNL     1      24.708   3.630  49.013  1.00  0.00     0.049 C 
BRANCH  15  16
HETATM   16  C9  UNL     1      25.731   4.524  49.700  1.00  0.00     0.034 A 
HETATM   17  C10 UNL     1      27.079   4.225  49.208  1.00  0.00    -0.020 A 
HETATM   18  C11 UNL     1      27.925   5.020  48.585  1.00  0.00    -0.004 A 
HETATM   19  C12 UNL     1      27.578   6.409  48.302  1.00  0.00    -0.003 A 
HETATM   20  C13 UNL     1      26.360   6.759  48.732  1.00  0.00    -0.006 A 
HETATM   21  C14 UNL     1      25.347   5.972  49.432  1.00  0.00     0.113 A 
HETATM   22 CL1  UNL     1      24.769   6.736  50.932  1.00  0.00    -0.120 Cl
ENDBRANCH  15  16
ENDBRANCH   2  15
BRANCH   1  23
HETATM   23  C5  UNL     1      22.255   3.872  48.251  1.00  0.00     0.252 C 
HETATM   24  N1  UNL     1      21.137   4.733  48.727  1.00  0.00     0.092 N 
HETATM   25  C1  UNL     1      21.509   6.090  48.900  1.00  0.00     0.310 C 
HETATM   26  C2  UNL     1      19.994   4.475  47.935  1.00  0.00     0.273 C 
HETATM   27  C3  UNL     1      20.565   4.046  46.606  1.00  0.00     0.033 C 
HETATM   28  C4  UNL     1      21.679   3.125  47.101  1.00  0.00     0.042 C 
ENDBRANCH   1  23
TORSDOF 3
ENDMDL
MODEL 8
REMARK VINA RESULT:      -8.2      2.274      6.296
REMARK  3 active torsions:
REMARK  status: ('A' for Active; 'I' for Inactive)
REMARK    1  A    between atoms: C5_6  and  C6_7 
REMARK    2  A    between atoms: C7_8  and  C8_9 
REMARK    3  A    between atoms: C8_9  and  C9_10 
ROOT
HETATM    1  C6  UNL     1      23.198   1.805  51.267  1.00  0.00    -0.036 C 
HETATM    2  C7  UNL     1      24.041   2.523  50.487  1.00  0.00    -0.054 C 
HETATM    3  C15 UNL     1      25.450   2.923  50.519  1.00  0.00     0.007 C 
HETATM    4  C16 UNL     1      26.011   2.509  51.630  1.00  0.00     0.126 C 
HETATM    5  N2  UNL     1      27.235   2.499  52.337  1.00  0.00    -0.412 N 
HETATM    6  C17 UNL     1      28.321   1.893  53.000  1.00  0.00     0.116 C 
HETATM    7  C18 UNL     1      28.231   1.391  54.359  1.00  0.00     0.038 C 
HETATM    8  C19 UNL     1      27.464   0.227  54.834  1.00  0.00     0.115 C 
HETATM    9  N3  UNL     1      26.071   0.150  54.658  1.00  0.00    -0.421 N 
HETATM   10  C20 UNL     1      25.636  -0.201  53.346  1.00  0.00     0.119 C 
HETATM   11  C21 UNL     1      24.190   0.049  53.135  1.00  0.00     0.018 C 
HETATM   12  C22 UNL     1      24.073   0.968  52.145  1.00  0.00     0.032 C 
HETATM   13  H21 UNL     1      27.611   3.481  52.660  1.00  0.00     0.153 HD
HETATM   14  H28 UNL     1      25.482   0.837  55.168  1.00  0.00     0.153 HD
ENDROOT
BRANCH   2  15
HETATM   15  C8  UNL     1      23.173   3.131  49.489  1.00  0.00     0.049 C 
BRANCH  15  16
HETATM   16  C9  UNL     1      22.945   4.633  49.607  1.00  0.00     0.034 A 
HETATM   17  C10 UNL     1      23.227   5.083  50.974  1.00  0.00    -0.020 A 
HETATM   18  C11 UNL     1      24.126   5.951  51.387  1.00  0.00    -0.004 A 
HETATM   19  C12 UNL     1      25.012   6.621  50.440  1.00  0.00    -0.003 A 
HETATM   20  C13 UNL     1      24.807   6.266  49.166  1.00  0.00    -0.006 A 
HETATM   21  C14 UNL     1      23.845   5.327  48.595  1.00  0.00     0.113 A 
HETATM   22 CL1  UNL     1      22.861   6.028  47.287  1.00  0.00    -0.120 Cl
ENDBRANCH  15  16
ENDBRANCH   2  15
BRANCH   1  23
HETATM   23  C5  UNL     1      21.694   1.739  51.080  1.00  0.00     0.252 C 
HETATM   24  N1  UNL     1      21.083   2.125  52.381  1.00  0.00     0.092 N 
HETATM   25  C1  UNL     1      20.437   3.387  52.344  1.00  0.00     0.310 C 
HETATM   26  C2  UNL     1      20.333   1.033  52.875  1.00  0.00     0.273 C 
HETATM   27  C3  UNL     1      19.900   0.300  51.629  1.00  0.00     0.033 C 
HETATM   28  C4  UNL     1      21.210   0.353  50.844  1.00  0.00     0.042 C 
ENDBRANCH   1  23
TORSDOF 3
ENDMDL
MODEL 9
REMARK VINA RESULT:      -8.1      1.999      5.733
REMARK  3 active torsions:
REMARK  status: ('A' for Active; 'I' for Inactive)
REMARK    1  A    between atoms: C5_6  and  C6_7 
REMARK    2  A    between atoms: C7_8  and  C8_9 
REMARK    3  A    between atoms: C8_9  and  C9_10 
ROOT
HETATM    1  C6  UNL     1      23.359   1.428  52.895  1.00  0.00    -0.036 C 
HETATM    2  C7  UNL     1      23.799   2.693  52.694  1.00  0.00    -0.054 C 
HETATM    3  C15 UNL     1      25.058   3.426  52.853  1.00  0.00     0.007 C 
HETATM    4  C16 UNL     1      25.971   2.645  53.378  1.00  0.00     0.126 C 
HETATM    5  N2  UNL     1      27.320   2.616  53.799  1.00  0.00    -0.412 N 
HETATM    6  C17 UNL     1      28.643   2.128  53.815  1.00  0.00     0.116 C 
HETATM    7  C18 UNL     1      29.028   0.924  54.528  1.00  0.00     0.038 C 
HETATM    8  C19 UNL     1      28.661  -0.465  54.203  1.00  0.00     0.115 C 
HETATM    9  N3  UNL     1      27.316  -0.869  54.142  1.00  0.00    -0.421 N 
HETATM   10  C20 UNL     1      26.614  -0.492  52.959  1.00  0.00     0.119 C 
HETATM   11  C21 UNL     1      25.146  -0.652  53.088  1.00  0.00     0.018 C 
HETATM   12  C22 UNL     1      24.586   0.574  52.942  1.00  0.00     0.032 C 
HETATM   13  H21 UNL     1      27.573   3.271  54.646  1.00  0.00     0.153 HD
HETATM   14  H28 UNL     1      26.768  -0.855  55.024  1.00  0.00     0.153 HD
ENDROOT
BRANCH   2  15
HETATM   15  C8  UNL     1      22.590   3.451  52.408  1.00  0.00     0.049 C 
BRANCH  15  16
HETATM   16  C9  UNL     1      22.464   4.031  51.005  1.00  0.00     0.034 A 
HETATM   17  C10 UNL     1      22.959   5.411  50.980  1.00  0.00    -0.020 A 
HETATM   18  C11 UNL     1      23.954   5.918  50.283  1.00  0.00    -0.004 A 
HETATM   19  C12 UNL     1      24.733   5.083  49.374  1.00  0.00    -0.003 A 
HETATM   20  C13 UNL     1      24.332   3.807  49.336  1.00  0.00    -0.006 A 
HETATM   21  C14 UNL     1      23.249   3.139  50.054  1.00  0.00     0.113 A 
HETATM   22 CL1  UNL     1      22.132   2.255  48.988  1.00  0.00    -0.120 Cl
ENDBRANCH  15  16
ENDBRANCH   2  15
BRANCH   1  23
HETATM   23  C5  UNL     1      21.903   1.002  52.843  1.00  0.00     0.252 C 
HETATM   24  N1  UNL     1      21.663   0.149  54.039  1.00  0.00     0.092 N 
HETATM   25  C1  UNL     1      20.833   0.765  55.009  1.00  0.00     0.310 C 
HETATM   26  C2  UNL     1      21.297  -1.147  53.608  1.00  0.00     0.273 C 
HETATM   27  C3  UNL     1      20.634  -0.910  52.273  1.00  0.00     0.033 C 
HETATM   28  C4  UNL     1      21.612   0.109  51.690  1.00  0.00     0.042 C 
ENDBRANCH   1  23
TORSDOF 3
ENDMDL
