MODEL 1
REMARK VINA RESULT:     -10.2      0.000      0.000
REMARK  2 active torsions:
REMARK  status: ('A' for Active; 'I' for Inactive)
REMARK    1  A    between atoms: C6_6  and  C7_7 
REMARK    2  A    between atoms: C11_11  and  O1_12 
ROOT
HETATM    1  C7  UNL     1      24.510   3.954  50.681  1.00  0.00     0.136 C 
HETATM    2  C8  UNL     1      23.738   4.405  51.858  1.00  0.00     0.058 C 
HETATM    3  C9  UNL     1      22.521   5.176  51.535  1.00  0.00    -0.022 C 
HETATM    4  C10 UNL     1      21.295   4.691  51.675  1.00  0.00     0.032 C 
HETATM    5  C11 UNL     1      20.510   3.535  52.056  1.00  0.00     0.062 C 
HETATM    6  C12 UNL     1      20.932   2.296  52.455  1.00  0.00     0.019 C 
HETATM    7  C13 UNL     1      21.893   1.189  52.804  1.00  0.00     0.047 C 
HETATM    8  C14 UNL     1      23.154   0.869  52.901  1.00  0.00     0.014 C 
HETATM    9  C15 UNL     1      24.601   1.143  52.808  1.00  0.00     0.056 A 
HETATM   10  C16 UNL     1      25.284   0.452  53.777  1.00  0.00     0.049 A 
HETATM   11  C17 UNL     1      26.599   0.792  53.642  1.00  0.00     0.043 A 
HETATM   12  C18 UNL     1      26.658   1.675  52.596  1.00  0.00     0.161 A 
HETATM   13  N1  UNL     1      25.401   1.890  52.079  1.00  0.00    -0.241 N 
HETATM   14  N2  UNL     1      25.358   2.808  51.003  1.00  0.00    -0.318 N 
HETATM   15  N3  UNL     1      28.047   1.989  52.512  1.00  0.00    -0.238 NA
HETATM   16  C19 UNL     1      28.783   1.413  53.357  1.00  0.00     0.151 A 
HETATM   17  C20 UNL     1      27.946   0.569  54.192  1.00  0.00     0.079 A 
HETATM   18  N4  UNL     1      28.316  -0.184  55.170  1.00  0.00    -0.298 NA
HETATM   19  H17 UNL     1      26.031   2.729  50.181  1.00  0.00     0.181 HD
HETATM   20  H19 UNL     1      29.308  -0.270  55.481  1.00  0.00     0.187 HD
ENDROOT
BRANCH   1  21
HETATM   21  C6  UNL     1      25.095   4.940  49.793  1.00  0.00    -0.033 A 
HETATM   22  C5  UNL     1      24.381   5.993  49.231  1.00  0.00     0.009 A 
HETATM   23  C4  UNL     1      25.027   6.877  48.394  1.00  0.00     0.001 A 
HETATM   24  C3  UNL     1      26.375   6.725  48.113  1.00  0.00     0.007 A 
HETATM   25  C2  UNL     1      27.119   5.708  48.640  1.00  0.00    -0.061 A 
HETATM   26  C1  UNL     1      28.548   5.586  48.312  1.00  0.00     0.048 C 
HETATM   27  C21 UNL     1      26.438   4.858  49.461  1.00  0.00     0.016 A 
ENDBRANCH   1  21
BRANCH   5  28
HETATM   28  O1  UNL     1      19.127   3.568  52.059  1.00  0.00    -0.361 OA
HETATM   29  H12 UNL     1      18.612   2.869  52.591  1.00  0.00     0.217 HD
ENDBRANCH   5  28
TORSDOF 2
ENDMDL
MODEL 2
REMARK VINA RESULT:     -10.1      2.010      3.036
REMARK  2 active torsions:
REMARK  status: ('A' for Active; 'I' for Inactive)
REMARK    1  A    between atoms: C6_6  and  C7_7 
REMARK    2  A    between atoms: C11_11  and  O1_12 
ROOT
HETATM    1  C7  UNL     1      23.293   1.660  51.247  1.00  0.00     0.136 C 
HETATM    2  C8  UNL     1      22.567   2.027  52.481  1.00  0.00     0.058 C 
HETATM    3  C9  UNL     1      21.096   1.969  52.369  1.00  0.00    -0.022 C 
HETATM    4  C10 UNL     1      20.361   1.026  52.942  1.00  0.00     0.032 C 
HETATM    5  C11 UNL     1      20.387  -0.177  53.748  1.00  0.00     0.062 C 
HETATM    6  C12 UNL     1      21.463  -0.861  54.247  1.00  0.00     0.019 C 
HETATM    7  C13 UNL     1      22.906  -1.192  54.522  1.00  0.00     0.047 C 
HETATM    8  C14 UNL     1      24.139  -0.816  54.320  1.00  0.00     0.014 C 
HETATM    9  C15 UNL     1      25.179   0.077  53.771  1.00  0.00     0.056 A 
HETATM   10  C16 UNL     1      26.251   0.147  54.624  1.00  0.00     0.049 A 
HETATM   11  C17 UNL     1      27.140   1.015  54.060  1.00  0.00     0.043 A 
HETATM   12  C18 UNL     1      26.569   1.435  52.888  1.00  0.00     0.161 A 
HETATM   13  N1  UNL     1      25.339   0.843  52.714  1.00  0.00    -0.241 N 
HETATM   14  N2  UNL     1      24.660   1.233  51.535  1.00  0.00    -0.318 N 
HETATM   15  N3  UNL     1      27.540   2.335  52.356  1.00  0.00    -0.238 NA
HETATM   16  C19 UNL     1      28.577   2.486  53.056  1.00  0.00     0.151 A 
HETATM   17  C20 UNL     1      28.453   1.656  54.241  1.00  0.00     0.079 A 
HETATM   18  N4  UNL     1      29.300   1.527  55.203  1.00  0.00    -0.298 NA
HETATM   19  H17 UNL     1      25.149   1.234  50.589  1.00  0.00     0.181 HD
HETATM   20  H19 UNL     1      30.212   2.033  55.233  1.00  0.00     0.187 HD
ENDROOT
BRANCH   1  21
HETATM   21  C6  UNL     1      23.123   2.467  50.055  1.00  0.00    -0.033 A 
HETATM   22  C5  UNL     1      22.316   2.101  48.983  1.00  0.00     0.009 A 
HETATM   23  C4  UNL     1      22.223   2.937  47.891  1.00  0.00     0.001 A 
HETATM   24  C3  UNL     1      22.923   4.132  47.856  1.00  0.00     0.007 A 
HETATM   25  C2  UNL     1      23.728   4.535  48.882  1.00  0.00    -0.061 A 
HETATM   26  C1  UNL     1      24.452   5.813  48.800  1.00  0.00     0.048 C 
HETATM   27  C21 UNL     1      23.790   3.677  49.941  1.00  0.00     0.016 A 
ENDBRANCH   1  21
BRANCH   5  28
HETATM   28  O1  UNL     1      19.222  -0.816  54.133  1.00  0.00    -0.361 OA
HETATM   29  H12 UNL     1      18.639  -0.398  54.856  1.00  0.00     0.217 HD
ENDBRANCH   5  28
TORSDOF 2
ENDMDL
MODEL 3
REMARK VINA RESULT:      -9.8      2.127      6.016
REMARK  2 active torsions:
REMARK  status: ('A' for Active; 'I' for Inactive)
REMARK    1  A    between atoms: C6_6  and  C7_7 
REMARK    2  A    between atoms: C11_11  and  O1_12 
ROOT
HETATM    1  C7  UNL     1      25.414   1.673  53.075  1.00  0.00     0.136 C 
HETATM    2  C8  UNL     1      24.584   0.617  52.460  1.00  0.00     0.058 C 
HETATM    3  C9  UNL     1      24.412  -0.591  53.290  1.00  0.00    -0.022 C 
HETATM    4  C10 UNL     1      23.274  -0.898  53.899  1.00  0.00     0.032 C 
HETATM    5  C11 UNL     1      21.911  -0.480  54.152  1.00  0.00     0.062 C 
HETATM    6  C12 UNL     1      21.265   0.658  53.748  1.00  0.00     0.019 C 
HETATM    7  C13 UNL     1      21.066   1.991  53.076  1.00  0.00     0.047 C 
HETATM    8  C14 UNL     1      21.642   2.912  52.353  1.00  0.00     0.014 C 
HETATM    9  C15 UNL     1      22.776   3.498  51.611  1.00  0.00     0.056 A 
HETATM   10  C16 UNL     1      22.326   4.201  50.523  1.00  0.00     0.049 A 
HETATM   11  C17 UNL     1      23.434   4.673  49.880  1.00  0.00     0.043 A 
HETATM   12  C18 UNL     1      24.509   4.235  50.607  1.00  0.00     0.161 A 
HETATM   13  N1  UNL     1      24.089   3.498  51.690  1.00  0.00    -0.241 N 
HETATM   14  N2  UNL     1      25.135   2.984  52.493  1.00  0.00    -0.318 N 
HETATM   15  N3  UNL     1      25.624   4.755  49.884  1.00  0.00    -0.238 NA
HETATM   16  C19 UNL     1      25.337   5.423  48.855  1.00  0.00     0.151 A 
HETATM   17  C20 UNL     1      23.892   5.456  48.721  1.00  0.00     0.079 A 
HETATM   18  N4  UNL     1      23.200   6.037  47.803  1.00  0.00    -0.298 NA
HETATM   19  H17 UNL     1      25.936   3.603  52.821  1.00  0.00     0.181 HD
HETATM   20  H19 UNL     1      23.629   6.573  47.017  1.00  0.00     0.187 HD
ENDROOT
BRANCH   1  21
HETATM   21  C6  UNL     1      26.807   1.401  53.374  1.00  0.00    -0.033 A 
HETATM   22  C5  UNL     1      27.708   2.369  53.802  1.00  0.00     0.009 A 
HETATM   23  C4  UNL     1      29.015   2.011  54.057  1.00  0.00     0.001 A 
HETATM   24  C3  UNL     1      29.431   0.700  53.892  1.00  0.00     0.007 A 
HETATM   25  C2  UNL     1      28.585  -0.286  53.473  1.00  0.00    -0.061 A 
HETATM   26  C1  UNL     1      29.073  -1.664  53.311  1.00  0.00     0.048 C 
HETATM   27  C21 UNL     1      27.303   0.114  53.232  1.00  0.00     0.016 A 
ENDBRANCH   1  21
BRANCH   5  28
HETATM   28  O1  UNL     1      21.041  -1.257  54.896  1.00  0.00    -0.361 OA
HETATM   29  H12 UNL     1      20.058  -1.299  54.632  1.00  0.00     0.217 HD
ENDBRANCH   5  28
TORSDOF 2
ENDMDL
MODEL 4
REMARK VINA RESULT:      -9.7      3.057      6.863
REMARK  2 active torsions:
REMARK  status: ('A' for Active; 'I' for Inactive)
REMARK    1  A    between atoms: C6_6  and  C7_7 
REMARK    2  A    between atoms: C11_11  and  O1_12 
ROOT
HETATM    1  C7  UNL     1      21.286   0.729  51.613  1.00  0.00     0.136 C 
HETATM    2  C8  UNL     1      21.548   1.131  53.011  1.00  0.00     0.058 C 
HETATM    3  C9  UNL     1      20.922   0.263  54.027  1.00  0.00    -0.022 C 
HETATM    4  C10 UNL     1      21.608  -0.585  54.781  1.00  0.00     0.032 C 
HETATM    5  C11 UNL     1      22.921  -1.124  55.071  1.00  0.00     0.062 C 
HETATM    6  C12 UNL     1      24.120  -0.852  54.470  1.00  0.00     0.019 C 
HETATM    7  C13 UNL     1      25.094  -0.218  53.512  1.00  0.00     0.047 C 
HETATM    8  C14 UNL     1      25.216   0.629  52.527  1.00  0.00     0.014 C 
HETATM    9  C15 UNL     1      24.700   1.610  51.553  1.00  0.00     0.056 A 
HETATM   10  C16 UNL     1      25.635   2.585  51.312  1.00  0.00     0.049 A 
HETATM   11  C17 UNL     1      25.064   3.463  50.436  1.00  0.00     0.043 A 
HETATM   12  C18 UNL     1      23.807   2.982  50.182  1.00  0.00     0.161 A 
HETATM   13  N1  UNL     1      23.586   1.821  50.886  1.00  0.00    -0.241 N 
HETATM   14  N2  UNL     1      22.300   1.259  50.703  1.00  0.00    -0.318 N 
HETATM   15  N3  UNL     1      23.270   3.940  49.271  1.00  0.00    -0.238 NA
HETATM   16  C19 UNL     1      24.040   4.892  48.972  1.00  0.00     0.151 A 
HETATM   17  C20 UNL     1      25.292   4.707  49.683  1.00  0.00     0.079 A 
HETATM   18  N4  UNL     1      26.336   5.461  49.646  1.00  0.00    -0.298 NA
HETATM   19  H17 UNL     1      21.889   1.124  49.730  1.00  0.00     0.181 HD
HETATM   20  H19 UNL     1      26.393   6.330  49.072  1.00  0.00     0.187 HD
ENDROOT
BRANCH   1  21
HETATM   21  C6  UNL     1      19.926   0.739  51.112  1.00  0.00    -0.033 A 
HETATM   22  C5  UNL     1      19.492   1.549  50.069  1.00  0.00     0.009 A 
HETATM   23  C4  UNL     1      18.175   1.487  49.667  1.00  0.00     0.001 A 
HETATM   24  C3  UNL     1      17.287   0.627  50.291  1.00  0.00     0.007 A 
HETATM   25  C2  UNL     1      17.664  -0.189  51.320  1.00  0.00    -0.061 A 
HETATM   26  C1  UNL     1      16.685  -1.087  51.953  1.00  0.00     0.048 C 
HETATM   27  C21 UNL     1      18.975  -0.094  51.684  1.00  0.00     0.016 A 
ENDBRANCH   1  21
BRANCH   5  28
HETATM   28  O1  UNL     1      23.116  -2.052  56.078  1.00  0.00    -0.361 OA
HETATM   29  H12 UNL     1      23.521  -2.959  55.850  1.00  0.00     0.217 HD
ENDBRANCH   5  28
TORSDOF 2
ENDMDL
MODEL 5
REMARK VINA RESULT:      -9.6      1.630      2.135
REMARK  2 active torsions:
REMARK  status: ('A' for Active; 'I' for Inactive)
REMARK    1  A    between atoms: C6_6  and  C7_7 
REMARK    2  A    between atoms: C11_11  and  O1_12 
ROOT
HETATM    1  C7  UNL     1      25.802   4.562  49.366  1.00  0.00     0.136 C 
HETATM    2  C8  UNL     1      24.683   5.139  50.139  1.00  0.00     0.058 C 
HETATM    3  C9  UNL     1      23.760   5.978  49.349  1.00  0.00    -0.022 C 
HETATM    4  C10 UNL     1      22.534   5.594  49.016  1.00  0.00     0.032 C 
HETATM    5  C11 UNL     1      21.561   4.525  49.095  1.00  0.00     0.062 C 
HETATM    6  C12 UNL     1      21.682   3.284  49.659  1.00  0.00     0.019 C 
HETATM    7  C13 UNL     1      22.328   2.133  50.384  1.00  0.00     0.047 C 
HETATM    8  C14 UNL     1      23.421   1.726  50.970  1.00  0.00     0.014 C 
HETATM    9  C15 UNL     1      24.812   1.886  51.438  1.00  0.00     0.056 A 
HETATM   10  C16 UNL     1      25.004   1.207  52.614  1.00  0.00     0.049 A 
HETATM   11  C17 UNL     1      26.295   1.438  52.990  1.00  0.00     0.043 A 
HETATM   12  C18 UNL     1      26.832   2.249  52.025  1.00  0.00     0.161 A 
HETATM   13  N1  UNL     1      25.896   2.526  51.055  1.00  0.00    -0.241 N 
HETATM   14  N2  UNL     1      26.353   3.378  50.022  1.00  0.00    -0.318 N 
HETATM   15  N3  UNL     1      28.170   2.454  52.477  1.00  0.00    -0.238 NA
HETATM   16  C19 UNL     1      28.469   1.877  53.557  1.00  0.00     0.151 A 
HETATM   17  C20 UNL     1      27.302   1.150  54.025  1.00  0.00     0.079 A 
HETATM   18  N4  UNL     1      27.197   0.433  55.089  1.00  0.00    -0.298 NA
HETATM   19  H17 UNL     1      27.279   3.199  49.528  1.00  0.00     0.181 HD
HETATM   20  H19 UNL     1      27.981   0.292  55.763  1.00  0.00     0.187 HD
ENDROOT
BRANCH   1  21
HETATM   21  C6  UNL     1      26.771   5.445  48.747  1.00  0.00    -0.033 A 
HETATM   22  C5  UNL     1      26.466   6.717  48.276  1.00  0.00     0.009 A 
HETATM   23  C4  UNL     1      27.458   7.481  47.699  1.00  0.00     0.001 A 
HETATM   24  C3  UNL     1      28.749   6.992  47.588  1.00  0.00     0.007 A 
HETATM   25  C2  UNL     1      29.099   5.750  48.035  1.00  0.00    -0.061 A 
HETATM   26  C1  UNL     1      30.483   5.274  47.895  1.00  0.00     0.048 C 
HETATM   27  C21 UNL     1      28.086   5.031  48.597  1.00  0.00     0.016 A 
ENDBRANCH   1  21
BRANCH   5  28
HETATM   28  O1  UNL     1      20.292   4.661  48.560  1.00  0.00    -0.361 OA
HETATM   29  H12 UNL     1      19.725   3.829  48.404  1.00  0.00     0.217 HD
ENDBRANCH   5  28
TORSDOF 2
ENDMDL
MODEL 6
REMARK VINA RESULT:      -9.6      3.626      6.119
REMARK  2 active torsions:
REMARK  status: ('A' for Active; 'I' for Inactive)
REMARK    1  A    between atoms: C6_6  and  C7_7 
REMARK    2  A    between atoms: C11_11  and  O1_12 
ROOT
HETATM    1  C7  UNL     1      23.678   1.842  52.274  1.00  0.00     0.136 C 
HETATM    2  C8  UNL     1      24.438   0.605  52.001  1.00  0.00     0.058 C 
HETATM    3  C9  UNL     1      25.895   0.796  51.864  1.00  0.00    -0.022 C 
HETATM    4  C10 UNL     1      26.769   0.408  52.784  1.00  0.00     0.032 C 
HETATM    5  C11 UNL     1      26.931  -0.209  54.084  1.00  0.00     0.062 C 
HETATM    6  C12 UNL     1      25.975  -0.652  54.957  1.00  0.00     0.019 C 
HETATM    7  C13 UNL     1      24.599  -0.945  55.497  1.00  0.00     0.047 C 
HETATM    8  C14 UNL     1      23.321  -0.863  55.247  1.00  0.00     0.014 C 
HETATM    9  C15 UNL     1      22.154  -0.506  54.418  1.00  0.00     0.056 A 
HETATM   10  C16 UNL     1      21.140  -1.411  54.601  1.00  0.00     0.049 A 
HETATM   11  C17 UNL     1      20.123  -1.029  53.774  1.00  0.00     0.043 A 
HETATM   12  C18 UNL     1      20.564   0.094  53.125  1.00  0.00     0.161 A 
HETATM   13  N1  UNL     1      21.838   0.416  53.534  1.00  0.00    -0.241 N 
HETATM   14  N2  UNL     1      22.389   1.555  52.899  1.00  0.00    -0.318 N 
HETATM   15  N3  UNL     1      19.465   0.437  52.283  1.00  0.00    -0.238 NA
HETATM   16  C19 UNL     1      18.466  -0.328  52.360  1.00  0.00     0.151 A 
HETATM   17  C20 UNL     1      18.762  -1.367  53.330  1.00  0.00     0.079 A 
HETATM   18  N4  UNL     1      18.000  -2.340  53.696  1.00  0.00    -0.298 NA
HETATM   19  H17 UNL     1      21.841   2.464  52.823  1.00  0.00     0.181 HD
HETATM   20  H19 UNL     1      17.041  -2.491  53.314  1.00  0.00     0.187 HD
ENDROOT
BRANCH   1  21
HETATM   21  C6  UNL     1      23.676   2.908  51.290  1.00  0.00    -0.033 A 
HETATM   22  C5  UNL     1      23.443   2.707  49.935  1.00  0.00     0.009 A 
HETATM   23  C4  UNL     1      23.466   3.786  49.077  1.00  0.00     0.001 A 
HETATM   24  C3  UNL     1      23.714   5.061  49.556  1.00  0.00     0.007 A 
HETATM   25  C2  UNL     1      23.948   5.311  50.878  1.00  0.00    -0.061 A 
HETATM   26  C1  UNL     1      24.208   6.683  51.340  1.00  0.00     0.048 C 
HETATM   27  C21 UNL     1      23.917   4.214  51.689  1.00  0.00     0.016 A 
ENDBRANCH   1  21
BRANCH   5  28
HETATM   28  O1  UNL     1      28.183  -0.436  54.626  1.00  0.00    -0.361 OA
HETATM   29  H12 UNL     1      28.950  -0.711  54.014  1.00  0.00     0.217 HD
ENDBRANCH   5  28
TORSDOF 2
ENDMDL
MODEL 7
REMARK VINA RESULT:      -9.5      3.317      7.459
REMARK  2 active torsions:
REMARK  status: ('A' for Active; 'I' for Inactive)
REMARK    1  A    between atoms: C6_6  and  C7_7 
REMARK    2  A    between atoms: C11_11  and  O1_12 
ROOT
HETATM    1  C7  UNL     1      22.296   0.976  51.937  1.00  0.00     0.136 C 
HETATM    2  C8  UNL     1      23.225   1.076  53.081  1.00  0.00     0.058 C 
HETATM    3  C9  UNL     1      23.605  -0.219  53.680  1.00  0.00    -0.022 C 
HETATM    4  C10 UNL     1      24.805  -0.763  53.533  1.00  0.00     0.032 C 
HETATM    5  C11 UNL     1      26.111  -0.616  52.925  1.00  0.00     0.062 C 
HETATM    6  C12 UNL     1      26.574   0.372  52.098  1.00  0.00     0.019 C 
HETATM    7  C13 UNL     1      26.554   1.635  51.279  1.00  0.00     0.047 C 
HETATM    8  C14 UNL     1      25.821   2.649  50.907  1.00  0.00     0.014 C 
HETATM    9  C15 UNL     1      24.579   3.447  50.882  1.00  0.00     0.056 A 
HETATM   10  C16 UNL     1      24.870   4.785  50.791  1.00  0.00     0.049 A 
HETATM   11  C17 UNL     1      23.675   5.444  50.812  1.00  0.00     0.043 A 
HETATM   12  C18 UNL     1      22.710   4.477  50.914  1.00  0.00     0.161 A 
HETATM   13  N1  UNL     1      23.285   3.228  50.958  1.00  0.00    -0.241 N 
HETATM   14  N2  UNL     1      22.363   2.161  51.085  1.00  0.00    -0.318 N 
HETATM   15  N3  UNL     1      21.497   5.228  50.934  1.00  0.00    -0.238 NA
HETATM   16  C19 UNL     1      21.635   6.479  50.857  1.00  0.00     0.151 A 
HETATM   17  C20 UNL     1      23.053   6.777  50.769  1.00  0.00     0.079 A 
HETATM   18  N4  UNL     1      23.609   7.936  50.675  1.00  0.00    -0.298 NA
HETATM   19  H17 UNL     1      21.505   2.094  50.458  1.00  0.00     0.181 HD
HETATM   20  H19 UNL     1      23.068   8.828  50.653  1.00  0.00     0.187 HD
ENDROOT
BRANCH   1  21
HETATM   21  C6  UNL     1      20.971   0.424  52.142  1.00  0.00    -0.033 A 
HETATM   22  C5  UNL     1      20.591  -0.267  53.287  1.00  0.00     0.009 A 
HETATM   23  C4  UNL     1      19.307  -0.757  53.387  1.00  0.00     0.001 A 
HETATM   24  C3  UNL     1      18.398  -0.565  52.360  1.00  0.00     0.007 A 
HETATM   25  C2  UNL     1      18.721   0.107  51.216  1.00  0.00    -0.061 A 
HETATM   26  C1  UNL     1      17.722   0.285  50.151  1.00  0.00     0.048 C 
HETATM   27  C21 UNL     1      20.002   0.573  51.161  1.00  0.00     0.016 A 
ENDBRANCH   1  21
BRANCH   5  28
HETATM   28  O1  UNL     1      27.117  -1.541  53.137  1.00  0.00    -0.361 OA
HETATM   29  H12 UNL     1      27.881  -1.610  52.467  1.00  0.00     0.217 HD
ENDBRANCH   5  28
TORSDOF 2
ENDMDL
MODEL 8
REMARK VINA RESULT:      -9.4      3.694      6.373
REMARK  2 active torsions:
REMARK  status: ('A' for Active; 'I' for Inactive)
REMARK    1  A    between atoms: C6_6  and  C7_7 
REMARK    2  A    between atoms: C11_11  and  O1_12 
ROOT
HETATM    1  C7  UNL     1      22.853   2.181  52.329  1.00  0.00     0.136 C 
HETATM    2  C8  UNL     1      23.403   0.823  52.140  1.00  0.00     0.058 C 
HETATM    3  C9  UNL     1      24.737   0.612  52.736  1.00  0.00    -0.022 C 
HETATM    4  C10 UNL     1      24.939  -0.115  53.827  1.00  0.00     0.032 C 
HETATM    5  C11 UNL     1      24.308  -0.907  54.861  1.00  0.00     0.062 C 
HETATM    6  C12 UNL     1      22.979  -1.167  55.062  1.00  0.00     0.019 C 
HETATM    7  C13 UNL     1      21.493  -1.125  54.823  1.00  0.00     0.047 C 
HETATM    8  C14 UNL     1      20.555  -0.657  54.046  1.00  0.00     0.014 C 
HETATM    9  C15 UNL     1      20.053   0.112  52.890  1.00  0.00     0.056 A 
HETATM   10  C16 UNL     1      18.939  -0.487  52.362  1.00  0.00     0.049 A 
HETATM   11  C17 UNL     1      18.567   0.264  51.284  1.00  0.00     0.043 A 
HETATM   12  C18 UNL     1      19.474   1.288  51.206  1.00  0.00     0.161 A 
HETATM   13  N1  UNL     1      20.402   1.186  52.216  1.00  0.00    -0.241 N 
HETATM   14  N2  UNL     1      21.397   2.193  52.204  1.00  0.00    -0.318 N 
HETATM   15  N3  UNL     1      19.034   2.026  50.067  1.00  0.00    -0.238 NA
HETATM   16  C19 UNL     1      18.011   1.570  49.489  1.00  0.00     0.151 A 
HETATM   17  C20 UNL     1      17.580   0.378  50.199  1.00  0.00     0.079 A 
HETATM   18  N4  UNL     1      16.574  -0.378  49.926  1.00  0.00    -0.298 NA
HETATM   19  H17 UNL     1      21.140   3.222  52.111  1.00  0.00     0.181 HD
HETATM   20  H19 UNL     1      15.929  -0.205  49.124  1.00  0.00     0.187 HD
ENDROOT
BRANCH   1  21
HETATM   21  C6  UNL     1      23.543   3.316  51.748  1.00  0.00    -0.033 A 
HETATM   22  C5  UNL     1      23.188   4.640  51.983  1.00  0.00     0.009 A 
HETATM   23  C4  UNL     1      23.905   5.650  51.381  1.00  0.00     0.001 A 
HETATM   24  C3  UNL     1      24.973   5.357  50.548  1.00  0.00     0.007 A 
HETATM   25  C2  UNL     1      25.361   4.074  50.286  1.00  0.00    -0.061 A 
HETATM   26  C1  UNL     1      26.501   3.811  49.394  1.00  0.00     0.048 C 
HETATM   27  C21 UNL     1      24.622   3.108  50.902  1.00  0.00     0.016 A 
ENDBRANCH   1  21
BRANCH   5  28
HETATM   28  O1  UNL     1      25.050  -1.542  55.841  1.00  0.00    -0.361 OA
HETATM   29  H12 UNL     1      24.697  -2.403  56.256  1.00  0.00     0.217 HD
ENDBRANCH   5  28
TORSDOF 2
ENDMDL
MODEL 9
REMARK VINA RESULT:      -9.2      3.086      6.431
REMARK  2 active torsions:
REMARK  status: ('A' for Active; 'I' for Inactive)
REMARK    1  A    between atoms: C6_6  and  C7_7 
REMARK    2  A    between atoms: C11_11  and  O1_12 
ROOT
HETATM    1  C7  UNL     1      21.136   1.064  51.408  1.00  0.00     0.136 C 
HETATM    2  C8  UNL     1      21.799   0.780  50.117  1.00  0.00     0.058 C 
HETATM    3  C9  UNL     1      21.013   1.161  48.927  1.00  0.00    -0.022 C 
HETATM    4  C10 UNL     1      21.314   2.202  48.161  1.00  0.00     0.032 C 
HETATM    5  C11 UNL     1      22.220   3.314  47.969  1.00  0.00     0.062 C 
HETATM    6  C12 UNL     1      23.274   3.716  48.745  1.00  0.00     0.019 C 
HETATM    7  C13 UNL     1      24.251   3.709  49.891  1.00  0.00     0.047 C 
HETATM    8  C14 UNL     1      24.601   3.090  50.985  1.00  0.00     0.014 C 
HETATM    9  C15 UNL     1      24.474   2.032  52.006  1.00  0.00     0.056 A 
HETATM   10  C16 UNL     1      25.709   1.677  52.486  1.00  0.00     0.049 A 
HETATM   11  C17 UNL     1      25.501   0.676  53.390  1.00  0.00     0.043 A 
HETATM   12  C18 UNL     1      24.147   0.467  53.421  1.00  0.00     0.161 A 
HETATM   13  N1  UNL     1      23.510   1.321  52.551  1.00  0.00    -0.241 N 
HETATM   14  N2  UNL     1      22.105   1.165  52.498  1.00  0.00    -0.318 N 
HETATM   15  N3  UNL     1      24.001  -0.584  54.375  1.00  0.00    -0.238 NA
HETATM   16  C19 UNL     1      25.074  -1.000  54.888  1.00  0.00     0.151 A 
HETATM   17  C20 UNL     1      26.176  -0.243  54.321  1.00  0.00     0.079 A 
HETATM   18  N4  UNL     1      27.431  -0.364  54.585  1.00  0.00    -0.298 NA
HETATM   19  H17 UNL     1      21.519   1.121  53.386  1.00  0.00     0.181 HD
HETATM   20  H19 UNL     1      27.807  -1.056  55.269  1.00  0.00     0.187 HD
ENDROOT
BRANCH   1  21
HETATM   21  C6  UNL     1      19.893   0.393  51.732  1.00  0.00    -0.033 A 
HETATM   22  C5  UNL     1      19.671  -0.291  52.922  1.00  0.00     0.009 A 
HETATM   23  C4  UNL     1      18.453  -0.900  53.135  1.00  0.00     0.001 A 
HETATM   24  C3  UNL     1      17.454  -0.834  52.178  1.00  0.00     0.007 A 
HETATM   25  C2  UNL     1      17.623  -0.174  50.994  1.00  0.00    -0.061 A 
HETATM   26  C1  UNL     1      16.533  -0.131  50.007  1.00  0.00     0.048 C 
HETATM   27  C21 UNL     1      18.843   0.412  50.826  1.00  0.00     0.016 A 
ENDBRANCH   1  21
BRANCH   5  28
HETATM   28  O1  UNL     1      22.105   4.163  46.882  1.00  0.00    -0.361 OA
HETATM   29  H12 UNL     1      21.879   3.776  45.968  1.00  0.00     0.217 HD
ENDBRANCH   5  28
TORSDOF 2
ENDMDL
