MODEL 1
REMARK VINA RESULT:      -8.1      0.000      0.000
REMARK  2 active torsions:
REMARK  status: ('A' for Active; 'I' for Inactive)
REMARK    1  A    between atoms: O1_1  and  C1_2 
REMARK    2  A    between atoms: C1_2  and  C2_3 
ROOT
HETATM    1  C2  UNL     1      21.771   3.986  51.869  1.00  0.00     0.024 A 
HETATM    2  C3  UNL     1      20.671   3.495  50.940  1.00  0.00     0.057 C 
HETATM    3  C4  UNL     1      21.295   2.643  49.948  1.00  0.00     0.255 A 
HETATM    4  N1  UNL     1      21.752   1.891  50.922  1.00  0.00     0.144 N 
HETATM    5  N2  UNL     1      22.401   2.673  51.832  1.00  0.00     0.000 N 
HETATM    6  C5  UNL     1      23.445   2.777  52.695  1.00  0.00     0.030 A 
HETATM    7  C6  UNL     1      24.668   2.966  53.244  1.00  0.00    -0.035 A 
HETATM    8  C7  UNL     1      24.486   3.207  51.718  1.00  0.00    -0.004 A 
HETATM    9  C8  UNL     1      23.179   3.612  51.337  1.00  0.00     0.006 A 
HETATM   10  C9  UNL     1      23.397   3.447  49.869  1.00  0.00     0.182 C 
HETATM   11  O2  UNL     1      23.460   2.111  49.494  1.00  0.00    -0.356 OA
HETATM   12  C10 UNL     1      22.182   1.489  49.933  1.00  0.00     0.381 A 
HETATM   13  C11 UNL     1      22.477   1.210  51.344  1.00  0.00     0.288 A 
HETATM   14  C12 UNL     1      21.664   0.544  52.329  1.00  0.00     0.067 C 
HETATM   15  C13 UNL     1      22.549  -0.089  53.338  1.00  0.00    -0.028 C 
HETATM   16  C14 UNL     1      23.835  -0.220  53.474  1.00  0.00    -0.031 C 
HETATM   17  C15 UNL     1      25.220  -0.480  53.820  1.00  0.00     0.027 C 
HETATM   18  C16 UNL     1      26.095  -1.210  52.810  1.00  0.00     0.007 C 
HETATM   19  C17 UNL     1      27.492  -0.543  52.840  1.00  0.00     0.027 C 
HETATM   20  C18 UNL     1      27.275   0.887  52.298  1.00  0.00    -0.031 C 
HETATM   21  C19 UNL     1      26.515   1.797  51.744  1.00  0.00    -0.029 C 
HETATM   22  C20 UNL     1      25.738   2.863  51.134  1.00  0.00     0.041 C 
ENDROOT
BRANCH   1  23
HETATM   23  C1  UNL     1      21.872   5.561  51.561  1.00  0.00     0.169 C 
BRANCH  23  24
HETATM   24  O1  UNL     1      20.781   5.903  50.806  1.00  0.00    -0.400 OA
HETATM   25  H1  UNL     1      20.335   5.036  50.522  1.00  0.00     0.209 HD
ENDBRANCH  23  24
ENDBRANCH   1  23
TORSDOF 2
ENDMDL
MODEL 2
REMARK VINA RESULT:      -8.0      1.741      4.012
REMARK  2 active torsions:
REMARK  status: ('A' for Active; 'I' for Inactive)
REMARK    1  A    between atoms: O1_1  and  C1_2 
REMARK    2  A    between atoms: C1_2  and  C2_3 
ROOT
HETATM    1  C2  UNL     1      23.489   3.851  49.566  1.00  0.00     0.024 A 
HETATM    2  C3  UNL     1      24.236   5.011  50.209  1.00  0.00     0.057 C 
HETATM    3  C4  UNL     1      23.624   5.254  51.499  1.00  0.00     0.255 A 
HETATM    4  N1  UNL     1      23.885   4.009  51.825  1.00  0.00     0.144 N 
HETATM    5  N2  UNL     1      23.409   3.177  50.855  1.00  0.00     0.000 N 
HETATM    6  C5  UNL     1      22.823   1.984  50.574  1.00  0.00     0.030 A 
HETATM    7  C6  UNL     1      21.932   0.983  50.383  1.00  0.00    -0.035 A 
HETATM    8  C7  UNL     1      21.404   2.387  50.795  1.00  0.00    -0.004 A 
HETATM    9  C8  UNL     1      22.220   3.471  50.372  1.00  0.00     0.006 A 
HETATM   10  C9  UNL     1      21.522   4.507  51.189  1.00  0.00     0.182 C 
HETATM   11  O2  UNL     1      21.800   4.384  52.544  1.00  0.00    -0.356 OA
HETATM   12  C10 UNL     1      23.277   4.480  52.682  1.00  0.00     0.381 A 
HETATM   13  C11 UNL     1      23.677   3.101  52.373  1.00  0.00     0.288 A 
HETATM   14  C12 UNL     1      24.989   2.507  52.397  1.00  0.00     0.067 C 
HETATM   15  C13 UNL     1      24.857   1.056  52.677  1.00  0.00    -0.028 C 
HETATM   16  C14 UNL     1      23.866   0.264  52.960  1.00  0.00    -0.031 C 
HETATM   17  C15 UNL     1      22.919  -0.786  53.283  1.00  0.00     0.027 C 
HETATM   18  C16 UNL     1      22.043  -0.618  54.517  1.00  0.00     0.007 C 
HETATM   19  C17 UNL     1      20.630  -1.142  54.157  1.00  0.00     0.027 C 
HETATM   20  C18 UNL     1      20.092  -0.167  53.086  1.00  0.00    -0.031 C 
HETATM   21  C19 UNL     1      20.196   0.935  52.387  1.00  0.00    -0.029 C 
HETATM   22  C20 UNL     1      20.237   2.135  51.570  1.00  0.00     0.041 C 
ENDROOT
BRANCH   1  23
HETATM   23  C1  UNL     1      22.721   4.520  48.321  1.00  0.00     0.169 C 
BRANCH  23  24
HETATM   24  O1  UNL     1      23.468   5.591  47.904  1.00  0.00    -0.400 OA
HETATM   25  H1  UNL     1      22.887   6.416  48.014  1.00  0.00     0.209 HD
ENDBRANCH  23  24
ENDBRANCH   1  23
TORSDOF 2
ENDMDL
MODEL 3
REMARK VINA RESULT:      -7.7      9.400     11.840
REMARK  2 active torsions:
REMARK  status: ('A' for Active; 'I' for Inactive)
REMARK    1  A    between atoms: O1_1  and  C1_2 
REMARK    2  A    between atoms: C1_2  and  C2_3 
ROOT
HETATM    1  C2  UNL     1      34.395   7.740  48.397  1.00  0.00     0.024 A 
HETATM    2  C3  UNL     1      34.934   8.571  47.242  1.00  0.00     0.057 C 
HETATM    3  C4  UNL     1      34.091   8.307  46.093  1.00  0.00     0.255 A 
HETATM    4  N1  UNL     1      33.057   8.706  46.796  1.00  0.00     0.144 N 
HETATM    5  N2  UNL     1      33.029   8.035  47.983  1.00  0.00     0.000 N 
HETATM    6  C5  UNL     1      32.256   7.457  48.938  1.00  0.00     0.030 A 
HETATM    7  C6  UNL     1      31.488   6.598  49.650  1.00  0.00    -0.035 A 
HETATM    8  C7  UNL     1      32.073   6.128  48.287  1.00  0.00    -0.004 A 
HETATM    9  C8  UNL     1      33.299   6.748  47.927  1.00  0.00     0.006 A 
HETATM   10  C9  UNL     1      33.315   6.238  46.524  1.00  0.00     0.182 C 
HETATM   11  O2  UNL     1      32.369   6.867  45.724  1.00  0.00    -0.356 OA
HETATM   12  C10 UNL     1      32.669   8.322  45.783  1.00  0.00     0.381 A 
HETATM   13  C11 UNL     1      32.004   8.695  47.037  1.00  0.00     0.288 A 
HETATM   14  C12 UNL     1      31.863   9.996  47.640  1.00  0.00     0.067 C 
HETATM   15  C13 UNL     1      30.628  10.016  48.463  1.00  0.00    -0.028 C 
HETATM   16  C14 UNL     1      29.663   9.175  48.686  1.00  0.00    -0.031 C 
HETATM   17  C15 UNL     1      28.499   8.399  49.072  1.00  0.00     0.027 C 
HETATM   18  C16 UNL     1      27.584   7.871  47.976  1.00  0.00     0.007 C 
HETATM   19  C17 UNL     1      27.149   6.442  48.385  1.00  0.00     0.027 C 
HETATM   20  C18 UNL     1      28.439   5.593  48.343  1.00  0.00    -0.031 C 
HETATM   21  C19 UNL     1      29.708   5.454  48.052  1.00  0.00    -0.029 C 
HETATM   22  C20 UNL     1      31.112   5.218  47.762  1.00  0.00     0.041 C 
ENDROOT
BRANCH   1  23
HETATM   23  C1  UNL     1      35.538   6.640  48.658  1.00  0.00     0.169 C 
BRANCH  23  24
HETATM   24  O1  UNL     1      36.671   7.307  49.043  1.00  0.00    -0.400 OA
HETATM   25  H1  UNL     1      36.749   8.125  48.446  1.00  0.00     0.209 HD
ENDBRANCH  23  24
ENDBRANCH   1  23
TORSDOF 2
ENDMDL
MODEL 4
REMARK VINA RESULT:      -7.7      2.709      4.520
REMARK  2 active torsions:
REMARK  status: ('A' for Active; 'I' for Inactive)
REMARK    1  A    between atoms: O1_1  and  C1_2 
REMARK    2  A    between atoms: C1_2  and  C2_3 
ROOT
HETATM    1  C2  UNL     1      23.005   5.731  48.385  1.00  0.00     0.024 A 
HETATM    2  C3  UNL     1      23.677   7.069  48.116  1.00  0.00     0.057 C 
HETATM    3  C4  UNL     1      24.259   7.516  49.366  1.00  0.00     0.255 A 
HETATM    4  N1  UNL     1      24.951   6.401  49.410  1.00  0.00     0.144 N 
HETATM    5  N2  UNL     1      24.110   5.339  49.250  1.00  0.00     0.000 N 
HETATM    6  C5  UNL     1      23.821   4.061  49.607  1.00  0.00     0.030 A 
HETATM    7  C6  UNL     1      23.377   2.957  50.253  1.00  0.00    -0.035 A 
HETATM    8  C7  UNL     1      23.062   4.356  50.857  1.00  0.00    -0.004 A 
HETATM    9  C8  UNL     1      22.967   5.402  49.901  1.00  0.00     0.006 A 
HETATM   10  C9  UNL     1      22.950   6.512  50.899  1.00  0.00     0.182 C 
HETATM   11  O2  UNL     1      24.191   6.707  51.492  1.00  0.00    -0.356 OA
HETATM   12  C10 UNL     1      25.148   6.978  50.386  1.00  0.00     0.381 A 
HETATM   13  C11 UNL     1      25.461   5.613  49.945  1.00  0.00     0.288 A 
HETATM   14  C12 UNL     1      26.390   5.174  48.936  1.00  0.00     0.067 C 
HETATM   15  C13 UNL     1      26.862   3.809  49.276  1.00  0.00    -0.028 C 
HETATM   16  C14 UNL     1      26.678   2.998  50.276  1.00  0.00    -0.031 C 
HETATM   17  C15 UNL     1      26.610   1.950  51.276  1.00  0.00     0.027 C 
HETATM   18  C16 UNL     1      27.009   2.285  52.706  1.00  0.00     0.007 C 
HETATM   19  C17 UNL     1      26.018   1.557  53.647  1.00  0.00     0.027 C 
HETATM   20  C18 UNL     1      24.648   2.224  53.394  1.00  0.00    -0.031 C 
HETATM   21  C19 UNL     1      23.915   3.158  52.841  1.00  0.00    -0.029 C 
HETATM   22  C20 UNL     1      23.030   4.157  52.266  1.00  0.00     0.041 C 
ENDROOT
BRANCH   1  23
HETATM   23  C1  UNL     1      21.435   6.040  48.226  1.00  0.00     0.169 C 
BRANCH  23  24
HETATM   24  O1  UNL     1      21.305   7.038  47.296  1.00  0.00    -0.400 OA
HETATM   25  H1  UNL     1      21.367   6.600  46.383  1.00  0.00     0.209 HD
ENDBRANCH  23  24
ENDBRANCH   1  23
TORSDOF 2
ENDMDL
MODEL 5
REMARK VINA RESULT:      -7.7      1.788      2.803
REMARK  2 active torsions:
REMARK  status: ('A' for Active; 'I' for Inactive)
REMARK    1  A    between atoms: O1_1  and  C1_2 
REMARK    2  A    between atoms: C1_2  and  C2_3 
ROOT
HETATM    1  C2  UNL     1      23.029   5.865  50.776  1.00  0.00     0.024 A 
HETATM    2  C3  UNL     1      22.249   6.065  49.485  1.00  0.00     0.057 C 
HETATM    3  C4  UNL     1      22.337   4.830  48.733  1.00  0.00     0.255 A 
HETATM    4  N1  UNL     1      21.811   4.201  49.759  1.00  0.00     0.144 N 
HETATM    5  N2  UNL     1      22.514   4.507  50.887  1.00  0.00     0.000 N 
HETATM    6  C5  UNL     1      23.002   4.059  52.073  1.00  0.00     0.030 A 
HETATM    7  C6  UNL     1      23.759   3.482  53.035  1.00  0.00    -0.035 A 
HETATM    8  C7  UNL     1      24.263   3.445  51.564  1.00  0.00    -0.004 A 
HETATM    9  C8  UNL     1      23.824   4.533  50.764  1.00  0.00     0.006 A 
HETATM   10  C9  UNL     1      24.278   3.953  49.465  1.00  0.00     0.182 C 
HETATM   11  O2  UNL     1      23.482   2.890  49.057  1.00  0.00    -0.356 OA
HETATM   12  C10 UNL     1      22.093   3.414  48.968  1.00  0.00     0.381 A 
HETATM   13  C11 UNL     1      21.669   3.322  50.371  1.00  0.00     0.288 A 
HETATM   14  C12 UNL     1      20.386   3.618  50.955  1.00  0.00     0.067 C 
HETATM   15  C13 UNL     1      20.208   2.791  52.174  1.00  0.00    -0.028 C 
HETATM   16  C14 UNL     1      20.900   1.856  52.756  1.00  0.00    -0.031 C 
HETATM   17  C15 UNL     1      21.502   0.810  53.560  1.00  0.00     0.027 C 
HETATM   18  C16 UNL     1      21.843  -0.515  52.890  1.00  0.00     0.007 C 
HETATM   19  C17 UNL     1      23.203  -0.986  53.462  1.00  0.00     0.027 C 
HETATM   20  C18 UNL     1      24.236   0.049  52.966  1.00  0.00    -0.031 C 
HETATM   21  C19 UNL     1      24.557   1.085  52.232  1.00  0.00    -0.029 C 
HETATM   22  C20 UNL     1      24.994   2.228  51.450  1.00  0.00     0.041 C 
ENDROOT
BRANCH   1  23
HETATM   23  C1  UNL     1      24.301   6.838  50.621  1.00  0.00     0.169 C 
BRANCH  23  24
HETATM   24  O1  UNL     1      24.187   7.817  51.573  1.00  0.00    -0.400 OA
HETATM   25  H1  UNL     1      25.108   7.939  51.982  1.00  0.00     0.209 HD
ENDBRANCH  23  24
ENDBRANCH   1  23
TORSDOF 2
ENDMDL
MODEL 6
REMARK VINA RESULT:      -7.5      2.853      4.810
REMARK  2 active torsions:
REMARK  status: ('A' for Active; 'I' for Inactive)
REMARK    1  A    between atoms: O1_1  and  C1_2 
REMARK    2  A    between atoms: C1_2  and  C2_3 
ROOT
HETATM    1  C2  UNL     1      25.424   6.314  50.118  1.00  0.00     0.024 A 
HETATM    2  C3  UNL     1      24.879   7.505  50.893  1.00  0.00     0.057 C 
HETATM    3  C4  UNL     1      23.437   7.487  50.752  1.00  0.00     0.255 A 
HETATM    4  N1  UNL     1      23.431   6.278  51.265  1.00  0.00     0.144 N 
HETATM    5  N2  UNL     1      24.315   5.492  50.585  1.00  0.00     0.000 N 
HETATM    6  C5  UNL     1      24.583   4.255  50.093  1.00  0.00     0.030 A 
HETATM    7  C6  UNL     1      24.633   3.141  49.325  1.00  0.00    -0.035 A 
HETATM    8  C7  UNL     1      23.838   4.374  48.806  1.00  0.00    -0.004 A 
HETATM    9  C8  UNL     1      24.318   5.625  49.276  1.00  0.00     0.006 A 
HETATM   10  C9  UNL     1      23.154   6.422  48.788  1.00  0.00     0.182 C 
HETATM   11  O2  UNL     1      22.008   6.194  49.541  1.00  0.00    -0.356 OA
HETATM   12  C10 UNL     1      22.355   6.533  50.947  1.00  0.00     0.381 A 
HETATM   13  C11 UNL     1      23.007   5.291  51.381  1.00  0.00     0.288 A 
HETATM   14  C12 UNL     1      23.521   4.939  52.680  1.00  0.00     0.067 C 
HETATM   15  C13 UNL     1      23.462   3.465  52.840  1.00  0.00    -0.028 C 
HETATM   16  C14 UNL     1      23.005   2.484  52.121  1.00  0.00    -0.031 C 
HETATM   17  C15 UNL     1      22.569   1.253  51.489  1.00  0.00     0.027 C 
HETATM   18  C16 UNL     1      21.104   1.120  51.093  1.00  0.00     0.007 C 
HETATM   19  C17 UNL     1      21.058   0.401  49.723  1.00  0.00     0.027 C 
HETATM   20  C18 UNL     1      21.708   1.382  48.723  1.00  0.00    -0.031 C 
HETATM   21  C19 UNL     1      22.206   2.557  48.433  1.00  0.00    -0.029 C 
HETATM   22  C20 UNL     1      22.774   3.832  48.030  1.00  0.00     0.041 C 
ENDROOT
BRANCH   1  23
HETATM   23  C1  UNL     1      26.211   6.975  48.882  1.00  0.00     0.169 C 
BRANCH  23  24
HETATM   24  O1  UNL     1      27.504   7.184  49.282  1.00  0.00    -0.400 OA
HETATM   25  H1  UNL     1      27.715   8.161  49.101  1.00  0.00     0.209 HD
ENDBRANCH  23  24
ENDBRANCH   1  23
TORSDOF 2
ENDMDL
MODEL 7
REMARK VINA RESULT:      -7.4      1.427      2.019
REMARK  2 active torsions:
REMARK  status: ('A' for Active; 'I' for Inactive)
REMARK    1  A    between atoms: O1_1  and  C1_2 
REMARK    2  A    between atoms: C1_2  and  C2_3 
ROOT
HETATM    1  C2  UNL     1      20.309   3.806  50.036  1.00  0.00     0.024 A 
HETATM    2  C3  UNL     1      19.476   2.833  49.215  1.00  0.00     0.057 C 
HETATM    3  C4  UNL     1      20.396   2.045  48.420  1.00  0.00     0.255 A 
HETATM    4  N1  UNL     1      20.987   1.669  49.530  1.00  0.00     0.144 N 
HETATM    5  N2  UNL     1      21.306   2.770  50.270  1.00  0.00     0.000 N 
HETATM    6  C5  UNL     1      22.206   3.351  51.104  1.00  0.00     0.030 A 
HETATM    7  C6  UNL     1      23.273   4.009  51.615  1.00  0.00    -0.035 A 
HETATM    8  C7  UNL     1      23.136   3.890  50.070  1.00  0.00    -0.004 A 
HETATM    9  C8  UNL     1      21.798   3.792  49.603  1.00  0.00     0.006 A 
HETATM   10  C9  UNL     1      22.159   3.429  48.201  1.00  0.00     0.182 C 
HETATM   11  O2  UNL     1      22.647   2.132  48.102  1.00  0.00    -0.356 OA
HETATM   12  C10 UNL     1      21.588   1.240  48.646  1.00  0.00     0.381 A 
HETATM   13  C11 UNL     1      21.852   1.338  50.087  1.00  0.00     0.288 A 
HETATM   14  C12 UNL     1      21.210   0.651  51.178  1.00  0.00     0.067 C 
HETATM   15  C13 UNL     1      22.170   0.524  52.302  1.00  0.00    -0.028 C 
HETATM   16  C14 UNL     1      23.423   0.825  52.474  1.00  0.00    -0.031 C 
HETATM   17  C15 UNL     1      24.794   1.076  52.878  1.00  0.00     0.027 C 
HETATM   18  C16 UNL     1      25.918   0.475  52.044  1.00  0.00     0.007 C 
HETATM   19  C17 UNL     1      27.043   1.535  51.952  1.00  0.00     0.027 C 
HETATM   20  C18 UNL     1      26.445   2.699  51.132  1.00  0.00    -0.031 C 
HETATM   21  C19 UNL     1      25.487   3.208  50.398  1.00  0.00    -0.029 C 
HETATM   22  C20 UNL     1      24.472   3.846  49.579  1.00  0.00     0.041 C 
ENDROOT
BRANCH   1  23
HETATM   23  C1  UNL     1      19.952   5.248  49.419  1.00  0.00     0.169 C 
BRANCH  23  24
HETATM   24  O1  UNL     1      18.681   5.564  49.820  1.00  0.00    -0.400 OA
HETATM   25  H1  UNL     1      18.077   4.810  49.510  1.00  0.00     0.209 HD
ENDBRANCH  23  24
ENDBRANCH   1  23
TORSDOF 2
ENDMDL
MODEL 8
REMARK VINA RESULT:      -7.2      2.432      4.793
REMARK  2 active torsions:
REMARK  status: ('A' for Active; 'I' for Inactive)
REMARK    1  A    between atoms: O1_1  and  C1_2 
REMARK    2  A    between atoms: C1_2  and  C2_3 
ROOT
HETATM    1  C2  UNL     1      21.500  -0.316  52.865  1.00  0.00     0.024 A 
HETATM    2  C3  UNL     1      19.990  -0.504  52.848  1.00  0.00     0.057 C 
HETATM    3  C4  UNL     1      19.395   0.810  52.703  1.00  0.00     0.255 A 
HETATM    4  N1  UNL     1      20.077   0.964  51.591  1.00  0.00     0.144 N 
HETATM    5  N2  UNL     1      21.394   0.701  51.827  1.00  0.00     0.000 N 
HETATM    6  C5  UNL     1      22.682   1.030  51.547  1.00  0.00     0.030 A 
HETATM    7  C6  UNL     1      23.899   1.622  51.519  1.00  0.00    -0.035 A 
HETATM    8  C7  UNL     1      22.828   2.157  52.513  1.00  0.00    -0.004 A 
HETATM    9  C8  UNL     1      21.889   1.184  52.947  1.00  0.00     0.006 A 
HETATM   10  C9  UNL     1      20.962   2.155  53.600  1.00  0.00     0.182 C 
HETATM   11  O2  UNL     1      20.259   2.915  52.673  1.00  0.00    -0.356 OA
HETATM   12  C10 UNL     1      19.525   1.951  51.809  1.00  0.00     0.381 A 
HETATM   13  C11 UNL     1      20.576   1.577  50.854  1.00  0.00     0.288 A 
HETATM   14  C12 UNL     1      20.493   0.714  49.703  1.00  0.00     0.067 C 
HETATM   15  C13 UNL     1      21.512   1.135  48.710  1.00  0.00    -0.028 C 
HETATM   16  C14 UNL     1      22.370   2.108  48.634  1.00  0.00    -0.031 C 
HETATM   17  C15 UNL     1      23.387   3.102  48.348  1.00  0.00     0.027 C 
HETATM   18  C16 UNL     1      22.983   4.571  48.336  1.00  0.00     0.007 C 
HETATM   19  C17 UNL     1      24.130   5.371  49.002  1.00  0.00     0.027 C 
HETATM   20  C18 UNL     1      24.143   4.919  50.478  1.00  0.00    -0.031 C 
HETATM   21  C19 UNL     1      23.614   4.257  51.477  1.00  0.00    -0.029 C 
HETATM   22  C20 UNL     1      23.095   3.550  52.635  1.00  0.00     0.041 C 
ENDROOT
BRANCH   1  23
HETATM   23  C1  UNL     1      21.927  -0.698  54.368  1.00  0.00     0.169 C 
BRANCH  23  24
HETATM   24  O1  UNL     1      20.955  -1.520  54.875  1.00  0.00    -0.400 OA
HETATM   25  H1  UNL     1      20.756  -2.216  54.163  1.00  0.00     0.209 HD
ENDBRANCH  23  24
ENDBRANCH   1  23
TORSDOF 2
ENDMDL
MODEL 9
REMARK VINA RESULT:      -7.1     10.122     12.230
REMARK  2 active torsions:
REMARK  status: ('A' for Active; 'I' for Inactive)
REMARK    1  A    between atoms: O1_1  and  C1_2 
REMARK    2  A    between atoms: C1_2  and  C2_3 
ROOT
HETATM    1  C2  UNL     1      34.783   5.715  47.905  1.00  0.00     0.024 A 
HETATM    2  C3  UNL     1      34.716   4.223  47.610  1.00  0.00     0.057 C 
HETATM    3  C4  UNL     1      33.327   3.825  47.723  1.00  0.00     0.255 A 
HETATM    4  N1  UNL     1      33.027   4.715  46.806  1.00  0.00     0.144 N 
HETATM    5  N2  UNL     1      33.547   5.925  47.163  1.00  0.00     0.000 N 
HETATM    6  C5  UNL     1      33.373   7.272  47.176  1.00  0.00     0.030 A 
HETATM    7  C6  UNL     1      32.995   8.534  47.488  1.00  0.00    -0.035 A 
HETATM    8  C7  UNL     1      32.543   7.367  48.412  1.00  0.00    -0.004 A 
HETATM    9  C8  UNL     1      33.427   6.255  48.431  1.00  0.00     0.006 A 
HETATM   10  C9  UNL     1      32.501   5.344  49.165  1.00  0.00     0.182 C 
HETATM   11  O2  UNL     1      31.442   4.920  48.372  1.00  0.00    -0.356 OA
HETATM   12  C10 UNL     1      32.044   4.253  47.186  1.00  0.00     0.381 A 
HETATM   13  C11 UNL     1      32.347   5.412  46.338  1.00  0.00     0.288 A 
HETATM   14  C12 UNL     1      32.890   5.446  45.003  1.00  0.00     0.067 C 
HETATM   15  C13 UNL     1      32.417   6.674  44.320  1.00  0.00    -0.028 C 
HETATM   16  C14 UNL     1      31.604   7.640  44.631  1.00  0.00    -0.031 C 
HETATM   17  C15 UNL     1      30.747   8.802  44.770  1.00  0.00     0.027 C 
HETATM   18  C16 UNL     1      29.272   8.584  45.078  1.00  0.00     0.007 C 
HETATM   19  C17 UNL     1      28.846   9.672  46.094  1.00  0.00     0.027 C 
HETATM   20  C18 UNL     1      29.629   9.355  47.388  1.00  0.00    -0.031 C 
HETATM   21  C19 UNL     1      30.413   8.575  48.088  1.00  0.00    -0.029 C 
HETATM   22  C20 UNL     1      31.279   7.768  48.930  1.00  0.00     0.041 C 
ENDROOT
BRANCH   1  23
HETATM   23  C1  UNL     1      35.571   5.805  49.304  1.00  0.00     0.169 C 
BRANCH  23  24
HETATM   24  O1  UNL     1      36.519   6.787  49.179  1.00  0.00    -0.400 OA
HETATM   25  H1  UNL     1      36.158   7.461  48.511  1.00  0.00     0.209 HD
ENDBRANCH  23  24
ENDBRANCH   1  23
TORSDOF 2
ENDMDL
