MODEL 1
REMARK VINA RESULT:      -8.2      0.000      0.000
REMARK  0 active torsions:
REMARK  status: ('A' for Active; 'I' for Inactive)
ROOT
HETATM    1  C1  UNL     1      27.730  10.285  45.545  1.00  0.00     0.044 C 
HETATM    2  C2  UNL     1      27.464   9.251  46.287  1.00  0.00     0.040 A 
HETATM    3  C3  UNL     1      28.148   8.101  46.850  1.00  0.00     0.018 A 
HETATM    4  C4  UNL     1      29.261   7.321  47.053  1.00  0.00     0.016 A 
HETATM    5  C5  UNL     1      29.217   6.180  47.799  1.00  0.00     0.002 A 
HETATM    6  C6  UNL     1      27.988   5.861  48.335  1.00  0.00     0.014 A 
HETATM    7  C7  UNL     1      26.865   6.625  48.146  1.00  0.00    -0.007 A 
HETATM    8  C8  UNL     1      26.967   7.745  47.395  1.00  0.00     0.059 A 
HETATM    9  N1  UNL     1      26.237   8.855  46.868  1.00  0.00    -0.323 N 
HETATM   10  C9  UNL     1      24.860   8.720  47.311  1.00  0.00     0.300 C 
HETATM   11  O1  UNL     1      24.100   7.929  46.530  1.00  0.00    -0.362 OA
HETATM   12  C10 UNL     1      22.841   7.676  47.045  1.00  0.00     0.153 C 
HETATM   13  C11 UNL     1      21.870   8.462  46.191  1.00  0.00     0.045 C 
HETATM   14  C12 UNL     1      22.517   6.229  47.041  1.00  0.00    -0.019 A 
HETATM   15  C13 UNL     1      22.316   5.895  45.690  1.00  0.00     0.010 A 
HETATM   16  C14 UNL     1      21.992   4.615  45.208  1.00  0.00     0.001 A 
HETATM   17  C15 UNL     1      21.855   3.590  46.123  1.00  0.00     0.001 A 
HETATM   18  C16 UNL     1      22.058   3.939  47.448  1.00  0.00     0.012 A 
HETATM   19  C17 UNL     1      22.376   5.192  47.926  1.00  0.00    -0.027 A 
HETATM   20  C18 UNL     1      22.516   5.177  49.363  1.00  0.00     0.022 C 
HETATM   21  C19 UNL     1      23.513   5.537  50.151  1.00  0.00    -0.024 C 
HETATM   22  C20 UNL     1      23.684   5.531  51.638  1.00  0.00     0.162 C 
HETATM   23  N2  UNL     1      24.026   6.962  51.834  1.00  0.00    -0.353 N 
HETATM   24  C21 UNL     1      25.034   7.004  50.805  1.00  0.00     0.252 C 
HETATM   25  O2  UNL     1      26.071   7.732  50.813  1.00  0.00    -0.268 OA
HETATM   26  C22 UNL     1      24.749   6.092  49.689  1.00  0.00     0.040 C 
HETATM   27  C23 UNL     1      25.694   6.191  48.786  1.00  0.00     0.031 C 
HETATM   28  H19 UNL     1      23.708   7.738  52.464  1.00  0.00     0.163 HD
ENDROOT
TORSDOF 0
ENDMDL
MODEL 2
REMARK VINA RESULT:      -8.1      6.077      9.196
REMARK  0 active torsions:
REMARK  status: ('A' for Active; 'I' for Inactive)
ROOT
HETATM    1  C1  UNL     1      35.352   9.252  42.135  1.00  0.00     0.044 C 
HETATM    2  C2  UNL     1      34.792   8.164  42.574  1.00  0.00     0.040 A 
HETATM    3  C3  UNL     1      34.248   6.924  42.051  1.00  0.00     0.018 A 
HETATM    4  C4  UNL     1      33.927   6.067  41.025  1.00  0.00     0.016 A 
HETATM    5  C5  UNL     1      33.327   4.863  41.251  1.00  0.00     0.002 A 
HETATM    6  C6  UNL     1      33.063   4.562  42.569  1.00  0.00     0.014 A 
HETATM    7  C7  UNL     1      33.375   5.402  43.608  1.00  0.00    -0.007 A 
HETATM    8  C8  UNL     1      33.968   6.584  43.326  1.00  0.00     0.059 A 
HETATM    9  N1  UNL     1      34.487   7.785  43.901  1.00  0.00    -0.323 N 
HETATM   10  C9  UNL     1      34.300   7.694  45.339  1.00  0.00     0.300 C 
HETATM   11  O1  UNL     1      33.085   8.086  45.768  1.00  0.00    -0.362 OA
HETATM   12  C10 UNL     1      32.861   7.845  47.111  1.00  0.00     0.153 C 
HETATM   13  C11 UNL     1      32.893   9.195  47.794  1.00  0.00     0.045 C 
HETATM   14  C12 UNL     1      31.570   7.151  47.346  1.00  0.00    -0.019 A 
HETATM   15  C13 UNL     1      30.577   8.112  47.085  1.00  0.00     0.010 A 
HETATM   16  C14 UNL     1      29.192   7.893  47.174  1.00  0.00     0.001 A 
HETATM   17  C15 UNL     1      28.752   6.638  47.546  1.00  0.00     0.001 A 
HETATM   18  C16 UNL     1      29.746   5.707  47.798  1.00  0.00     0.012 A 
HETATM   19  C17 UNL     1      31.106   5.915  47.712  1.00  0.00    -0.027 A 
HETATM   20  C18 UNL     1      31.835   4.713  48.041  1.00  0.00     0.022 C 
HETATM   21  C19 UNL     1      32.740   4.025  47.369  1.00  0.00    -0.024 C 
HETATM   22  C20 UNL     1      33.509   2.780  47.685  1.00  0.00     0.162 C 
HETATM   23  N2  UNL     1      34.884   3.306  47.494  1.00  0.00    -0.353 N 
HETATM   24  C21 UNL     1      34.623   3.910  46.213  1.00  0.00     0.252 C 
HETATM   25  O2  UNL     1      35.460   4.039  45.270  1.00  0.00    -0.268 OA
HETATM   26  C22 UNL     1      33.242   4.391  46.079  1.00  0.00     0.040 C 
HETATM   27  C23 UNL     1      33.078   4.941  44.900  1.00  0.00     0.031 C 
HETATM   28  H19 UNL     1      35.782   3.292  48.036  1.00  0.00     0.163 HD
ENDROOT
TORSDOF 0
ENDMDL
MODEL 3
REMARK VINA RESULT:      -7.8      5.550      8.482
REMARK  0 active torsions:
REMARK  status: ('A' for Active; 'I' for Inactive)
ROOT
HETATM    1  C1  UNL     1      31.562  13.312  44.455  1.00  0.00     0.044 C 
HETATM    2  C2  UNL     1      32.010  12.102  44.615  1.00  0.00     0.040 A 
HETATM    3  C3  UNL     1      32.589  11.035  43.820  1.00  0.00     0.018 A 
HETATM    4  C4  UNL     1      33.030  10.495  42.635  1.00  0.00     0.016 A 
HETATM    5  C5  UNL     1      33.540   9.232  42.562  1.00  0.00     0.002 A 
HETATM    6  C6  UNL     1      33.585   8.534  43.750  1.00  0.00     0.014 A 
HETATM    7  C7  UNL     1      33.152   9.053  44.943  1.00  0.00    -0.007 A 
HETATM    8  C8  UNL     1      32.654  10.310  44.956  1.00  0.00     0.059 A 
HETATM    9  N1  UNL     1      32.087  11.322  45.791  1.00  0.00    -0.323 N 
HETATM   10  C9  UNL     1      32.024  10.787  47.140  1.00  0.00     0.300 C 
HETATM   11  O1  UNL     1      30.926  10.049  47.395  1.00  0.00    -0.362 OA
HETATM   12  C10 UNL     1      30.953   9.412  48.623  1.00  0.00     0.153 C 
HETATM   13  C11 UNL     1      29.953  10.139  49.496  1.00  0.00     0.045 C 
HETATM   14  C12 UNL     1      30.625   7.970  48.510  1.00  0.00    -0.019 A 
HETATM   15  C13 UNL     1      29.250   7.920  48.222  1.00  0.00     0.010 A 
HETATM   16  C14 UNL     1      28.503   6.747  48.022  1.00  0.00     0.001 A 
HETATM   17  C15 UNL     1      29.157   5.534  48.114  1.00  0.00     0.001 A 
HETATM   18  C16 UNL     1      30.510   5.605  48.398  1.00  0.00     0.012 A 
HETATM   19  C17 UNL     1      31.249   6.752  48.594  1.00  0.00    -0.027 A 
HETATM   20  C18 UNL     1      32.632   6.438  48.864  1.00  0.00     0.022 C 
HETATM   21  C19 UNL     1      33.749   6.818  48.273  1.00  0.00    -0.024 C 
HETATM   22  C20 UNL     1      35.191   6.508  48.531  1.00  0.00     0.162 C 
HETATM   23  N2  UNL     1      35.700   7.894  48.676  1.00  0.00    -0.353 N 
HETATM   24  C21 UNL     1      35.081   8.394  47.476  1.00  0.00     0.252 C 
HETATM   25  O2  UNL     1      35.540   9.311  46.732  1.00  0.00    -0.268 OA
HETATM   26  C22 UNL     1      33.811   7.724  47.166  1.00  0.00     0.040 C 
HETATM   27  C23 UNL     1      33.296   8.235  46.074  1.00  0.00     0.031 C 
HETATM   28  H19 UNL     1      36.298   8.414  49.364  1.00  0.00     0.163 HD
ENDROOT
TORSDOF 0
ENDMDL
MODEL 4
REMARK VINA RESULT:      -7.7      3.734      8.062
REMARK  0 active torsions:
REMARK  status: ('A' for Active; 'I' for Inactive)
ROOT
HETATM    1  C1  UNL     1      26.095   7.987  49.879  1.00  0.00     0.044 C 
HETATM    2  C2  UNL     1      26.795   8.091  48.788  1.00  0.00     0.040 A 
HETATM    3  C3  UNL     1      26.584   8.271  47.363  1.00  0.00     0.018 A 
HETATM    4  C4  UNL     1      25.782   8.430  46.258  1.00  0.00     0.016 A 
HETATM    5  C5  UNL     1      26.300   8.557  45.003  1.00  0.00     0.002 A 
HETATM    6  C6  UNL     1      27.675   8.516  44.914  1.00  0.00     0.014 A 
HETATM    7  C7  UNL     1      28.493   8.359  46.004  1.00  0.00    -0.007 A 
HETATM    8  C8  UNL     1      27.924   8.236  47.224  1.00  0.00     0.059 A 
HETATM    9  N1  UNL     1      28.198   8.056  48.616  1.00  0.00    -0.323 N 
HETATM   10  C9  UNL     1      29.640   7.972  48.768  1.00  0.00     0.300 C 
HETATM   11  O1  UNL     1      30.149   6.740  48.571  1.00  0.00    -0.362 OA
HETATM   12  C10 UNL     1      31.532   6.702  48.558  1.00  0.00     0.153 C 
HETATM   13  C11 UNL     1      31.948   6.032  49.850  1.00  0.00     0.045 C 
HETATM   14  C12 UNL     1      32.058   5.974  47.377  1.00  0.00    -0.019 A 
HETATM   15  C13 UNL     1      31.763   4.620  47.611  1.00  0.00     0.010 A 
HETATM   16  C14 UNL     1      32.074   3.559  46.744  1.00  0.00     0.001 A 
HETATM   17  C15 UNL     1      32.724   3.852  45.561  1.00  0.00     0.001 A 
HETATM   18  C16 UNL     1      33.005   5.192  45.350  1.00  0.00     0.012 A 
HETATM   19  C17 UNL     1      32.702   6.237  46.196  1.00  0.00    -0.027 A 
HETATM   20  C18 UNL     1      33.142   7.495  45.642  1.00  0.00     0.022 C 
HETATM   21  C19 UNL     1      32.491   8.614  45.381  1.00  0.00    -0.024 C 
HETATM   22  C20 UNL     1      32.922   9.929  44.808  1.00  0.00     0.162 C 
HETATM   23  N2  UNL     1      32.457  10.817  45.902  1.00  0.00    -0.353 N 
HETATM   24  C21 UNL     1      31.135  10.254  45.984  1.00  0.00     0.252 C 
HETATM   25  O2  UNL     1      30.081  10.879  46.306  1.00  0.00    -0.268 OA
HETATM   26  C22 UNL     1      31.101   8.823  45.651  1.00  0.00     0.040 C 
HETATM   27  C23 UNL     1      29.875   8.373  45.759  1.00  0.00     0.031 C 
HETATM   28  H19 UNL     1      32.868  11.599  46.470  1.00  0.00     0.163 HD
ENDROOT
TORSDOF 0
ENDMDL
MODEL 5
REMARK VINA RESULT:      -7.7      2.776      6.003
REMARK  0 active torsions:
REMARK  status: ('A' for Active; 'I' for Inactive)
ROOT
HETATM    1  C1  UNL     1      21.255   0.464  49.705  1.00  0.00     0.044 C 
HETATM    2  C2  UNL     1      22.061   1.422  50.055  1.00  0.00     0.040 A 
HETATM    3  C3  UNL     1      22.734   1.907  51.246  1.00  0.00     0.018 A 
HETATM    4  C4  UNL     1      23.037   1.852  52.586  1.00  0.00     0.016 A 
HETATM    5  C5  UNL     1      23.864   2.761  53.177  1.00  0.00     0.002 A 
HETATM    6  C6  UNL     1      24.375   3.736  52.347  1.00  0.00     0.014 A 
HETATM    7  C7  UNL     1      24.086   3.809  51.008  1.00  0.00    -0.007 A 
HETATM    8  C8  UNL     1      23.258   2.881  50.476  1.00  0.00     0.059 A 
HETATM    9  N1  UNL     1      22.622   2.454  49.269  1.00  0.00    -0.323 N 
HETATM   10  C9  UNL     1      23.021   3.375  48.219  1.00  0.00     0.300 C 
HETATM   11  O1  UNL     1      22.272   4.492  48.145  1.00  0.00    -0.362 OA
HETATM   12  C10 UNL     1      22.756   5.432  47.253  1.00  0.00     0.153 C 
HETATM   13  C11 UNL     1      21.809   5.421  46.073  1.00  0.00     0.045 C 
HETATM   14  C12 UNL     1      22.847   6.783  47.861  1.00  0.00    -0.019 A 
HETATM   15  C13 UNL     1      21.518   7.219  48.002  1.00  0.00     0.010 A 
HETATM   16  C14 UNL     1      21.122   8.453  48.546  1.00  0.00     0.001 A 
HETATM   17  C15 UNL     1      22.104   9.320  48.982  1.00  0.00     0.001 A 
HETATM   18  C16 UNL     1      23.406   8.871  48.834  1.00  0.00     0.012 A 
HETATM   19  C17 UNL     1      23.802   7.662  48.302  1.00  0.00    -0.027 A 
HETATM   20  C18 UNL     1      25.240   7.537  48.314  1.00  0.00     0.022 C 
HETATM   21  C19 UNL     1      26.036   6.621  48.834  1.00  0.00    -0.024 C 
HETATM   22  C20 UNL     1      27.526   6.468  48.861  1.00  0.00     0.162 C 
HETATM   23  N2  UNL     1      27.627   5.113  48.264  1.00  0.00    -0.353 N 
HETATM   24  C21 UNL     1      26.637   4.511  49.120  1.00  0.00     0.252 C 
HETATM   25  O2  UNL     1      26.630   3.306  49.511  1.00  0.00    -0.268 OA
HETATM   26  C22 UNL     1      25.582   5.451  49.523  1.00  0.00     0.040 C 
HETATM   27  C23 UNL     1      24.711   4.836  50.285  1.00  0.00     0.031 C 
HETATM   28  H19 UNL     1      28.185   4.663  47.497  1.00  0.00     0.163 HD
ENDROOT
TORSDOF 0
ENDMDL
MODEL 6
REMARK VINA RESULT:      -7.6     11.720     14.874
REMARK  0 active torsions:
REMARK  status: ('A' for Active; 'I' for Inactive)
ROOT
HETATM    1  C1  UNL     1      12.914   4.590  51.984  1.00  0.00     0.044 C 
HETATM    2  C2  UNL     1      12.824   3.416  52.535  1.00  0.00     0.040 A 
HETATM    3  C3  UNL     1      12.343   2.818  53.767  1.00  0.00     0.018 A 
HETATM    4  C4  UNL     1      11.768   2.884  55.014  1.00  0.00     0.016 A 
HETATM    5  C5  UNL     1      11.576   1.772  55.780  1.00  0.00     0.002 A 
HETATM    6  C6  UNL     1      11.994   0.582  55.226  1.00  0.00     0.014 A 
HETATM    7  C7  UNL     1      12.569   0.493  53.983  1.00  0.00    -0.007 A 
HETATM    8  C8  UNL     1      12.737   1.629  53.269  1.00  0.00     0.059 A 
HETATM    9  N1  UNL     1      13.230   2.157  52.036  1.00  0.00    -0.323 N 
HETATM   10  C9  UNL     1      13.750   1.044  51.262  1.00  0.00     0.300 C 
HETATM   11  O1  UNL     1      15.021   0.708  51.555  1.00  0.00    -0.362 OA
HETATM   12  C10 UNL     1      15.452  -0.450  50.933  1.00  0.00     0.153 C 
HETATM   13  C11 UNL     1      16.430  -0.015  49.863  1.00  0.00     0.045 C 
HETATM   14  C12 UNL     1      16.080  -1.396  51.888  1.00  0.00    -0.019 A 
HETATM   15  C13 UNL     1      17.312  -0.813  52.235  1.00  0.00     0.010 A 
HETATM   16  C14 UNL     1      18.247  -1.362  53.129  1.00  0.00     0.001 A 
HETATM   17  C15 UNL     1      17.949  -2.571  53.724  1.00  0.00     0.001 A 
HETATM   18  C16 UNL     1      16.731  -3.128  53.370  1.00  0.00     0.012 A 
HETATM   19  C17 UNL     1      15.809  -2.595  52.495  1.00  0.00    -0.027 A 
HETATM   20  C18 UNL     1      14.653  -3.451  52.375  1.00  0.00     0.022 C 
HETATM   21  C19 UNL     1      13.367  -3.220  52.563  1.00  0.00    -0.024 C 
HETATM   22  C20 UNL     1      12.152  -4.087  52.447  1.00  0.00     0.162 C 
HETATM   23  N2  UNL     1      11.375  -3.263  51.487  1.00  0.00    -0.353 N 
HETATM   24  C21 UNL     1      11.540  -2.025  52.203  1.00  0.00     0.252 C 
HETATM   25  O2  UNL     1      10.705  -1.073  52.240  1.00  0.00    -0.268 OA
HETATM   26  C22 UNL     1      12.818  -1.947  52.924  1.00  0.00     0.040 C 
HETATM   27  C23 UNL     1      12.909  -0.793  53.539  1.00  0.00     0.031 C 
HETATM   28  H19 UNL     1      10.857  -3.432  50.590  1.00  0.00     0.163 HD
ENDROOT
TORSDOF 0
ENDMDL
MODEL 7
REMARK VINA RESULT:      -7.4      2.819      7.076
REMARK  0 active torsions:
REMARK  status: ('A' for Active; 'I' for Inactive)
ROOT
HETATM    1  C1  UNL     1      17.782   3.891  51.204  1.00  0.00     0.044 C 
HETATM    2  C2  UNL     1      18.738   4.056  50.338  1.00  0.00     0.040 A 
HETATM    3  C3  UNL     1      19.006   3.781  48.938  1.00  0.00     0.018 A 
HETATM    4  C4  UNL     1      18.663   3.286  47.702  1.00  0.00     0.016 A 
HETATM    5  C5  UNL     1      19.514   3.347  46.638  1.00  0.00     0.002 A 
HETATM    6  C6  UNL     1      20.736   3.934  46.881  1.00  0.00     0.014 A 
HETATM    7  C7  UNL     1      21.100   4.435  48.105  1.00  0.00    -0.007 A 
HETATM    8  C8  UNL     1      20.216   4.346  49.125  1.00  0.00     0.059 A 
HETATM    9  N1  UNL     1      20.013   4.642  50.509  1.00  0.00    -0.323 N 
HETATM   10  C9  UNL     1      21.222   5.281  50.999  1.00  0.00     0.300 C 
HETATM   11  O1  UNL     1      22.185   4.423  51.388  1.00  0.00    -0.362 OA
HETATM   12  C10 UNL     1      23.386   5.034  51.699  1.00  0.00     0.153 C 
HETATM   13  C11 UNL     1      23.522   4.955  53.204  1.00  0.00     0.045 C 
HETATM   14  C12 UNL     1      24.534   4.386  51.018  1.00  0.00    -0.019 A 
HETATM   15  C13 UNL     1      24.699   3.147  51.661  1.00  0.00     0.010 A 
HETATM   16  C14 UNL     1      25.673   2.187  51.337  1.00  0.00     0.001 A 
HETATM   17  C15 UNL     1      26.548   2.467  50.306  1.00  0.00     0.001 A 
HETATM   18  C16 UNL     1      26.368   3.693  49.686  1.00  0.00     0.012 A 
HETATM   19  C17 UNL     1      25.415   4.638  49.998  1.00  0.00    -0.027 A 
HETATM   20  C18 UNL     1      25.526   5.790  49.135  1.00  0.00     0.022 C 
HETATM   21  C19 UNL     1      24.650   6.379  48.343  1.00  0.00    -0.024 C 
HETATM   22  C20 UNL     1      24.738   7.570  47.439  1.00  0.00     0.162 C 
HETATM   23  N2  UNL     1      23.614   8.364  47.997  1.00  0.00    -0.353 N 
HETATM   24  C21 UNL     1      22.662   7.283  47.982  1.00  0.00     0.252 C 
HETATM   25  O2  UNL     1      21.413   7.398  47.808  1.00  0.00    -0.268 OA
HETATM   26  C22 UNL     1      23.285   5.970  48.199  1.00  0.00     0.040 C 
HETATM   27  C23 UNL     1      22.364   5.037  48.188  1.00  0.00     0.031 C 
HETATM   28  H19 UNL     1      23.470   9.353  48.314  1.00  0.00     0.163 HD
ENDROOT
TORSDOF 0
ENDMDL
MODEL 8
REMARK VINA RESULT:      -7.3     24.871     27.722
REMARK  0 active torsions:
REMARK  status: ('A' for Active; 'I' for Inactive)
ROOT
HETATM    1  C1  UNL     1      39.193   3.820  71.082  1.00  0.00     0.044 C 
HETATM    2  C2  UNL     1      38.870   2.589  70.815  1.00  0.00     0.040 A 
HETATM    3  C3  UNL     1      37.873   1.609  71.205  1.00  0.00     0.018 A 
HETATM    4  C4  UNL     1      36.777   1.203  71.930  1.00  0.00     0.016 A 
HETATM    5  C5  UNL     1      36.261  -0.054  71.814  1.00  0.00     0.002 A 
HETATM    6  C6  UNL     1      36.907  -0.889  70.928  1.00  0.00     0.014 A 
HETATM    7  C7  UNL     1      38.001  -0.504  70.194  1.00  0.00    -0.007 A 
HETATM    8  C8  UNL     1      38.471   0.754  70.351  1.00  0.00     0.059 A 
HETATM    9  N1  UNL     1      39.480   1.674  69.927  1.00  0.00    -0.323 N 
HETATM   10  C9  UNL     1      40.318   0.985  68.961  1.00  0.00     0.300 C 
HETATM   11  O1  UNL     1      41.305   0.248  69.507  1.00  0.00    -0.362 OA
HETATM   12  C10 UNL     1      41.994  -0.530  68.594  1.00  0.00     0.153 C 
HETATM   13  C11 UNL     1      43.354   0.112  68.434  1.00  0.00     0.045 C 
HETATM   14  C12 UNL     1      42.110  -1.941  69.038  1.00  0.00    -0.019 A 
HETATM   15  C13 UNL     1      43.025  -1.922  70.105  1.00  0.00     0.010 A 
HETATM   16  C14 UNL     1      43.435  -3.046  70.843  1.00  0.00     0.001 A 
HETATM   17  C15 UNL     1      42.907  -4.276  70.506  1.00  0.00     0.001 A 
HETATM   18  C16 UNL     1      42.008  -4.272  69.452  1.00  0.00     0.012 A 
HETATM   19  C17 UNL     1      41.601  -3.175  68.725  1.00  0.00    -0.027 A 
HETATM   20  C18 UNL     1      40.649  -3.552  67.707  1.00  0.00     0.022 C 
HETATM   21  C19 UNL     1      39.423  -3.131  67.454  1.00  0.00    -0.024 C 
HETATM   22  C20 UNL     1      38.418  -3.505  66.409  1.00  0.00     0.162 C 
HETATM   23  N2  UNL     1      38.174  -2.158  65.835  1.00  0.00    -0.353 N 
HETATM   24  C21 UNL     1      37.966  -1.504  67.102  1.00  0.00     0.252 C 
HETATM   25  O2  UNL     1      37.200  -0.517  67.310  1.00  0.00    -0.268 OA
HETATM   26  C22 UNL     1      38.753  -2.102  68.189  1.00  0.00     0.040 C 
HETATM   27  C23 UNL     1      38.528  -1.453  69.306  1.00  0.00     0.031 C 
HETATM   28  H19 UNL     1      38.143  -1.738  64.874  1.00  0.00     0.163 HD
ENDROOT
TORSDOF 0
ENDMDL
MODEL 9
REMARK VINA RESULT:      -7.1      3.421      6.014
REMARK  0 active torsions:
REMARK  status: ('A' for Active; 'I' for Inactive)
ROOT
HETATM    1  C1  UNL     1      24.201  12.699  46.258  1.00  0.00     0.044 C 
HETATM    2  C2  UNL     1      24.954  11.711  45.872  1.00  0.00     0.040 A 
HETATM    3  C3  UNL     1      25.165  10.890  44.694  1.00  0.00     0.018 A 
HETATM    4  C4  UNL     1      24.888  10.514  43.401  1.00  0.00     0.016 A 
HETATM    5  C5  UNL     1      25.554   9.495  42.787  1.00  0.00     0.002 A 
HETATM    6  C6  UNL     1      26.520   8.867  43.544  1.00  0.00     0.014 A 
HETATM    7  C7  UNL     1      26.813   9.226  44.835  1.00  0.00    -0.007 A 
HETATM    8  C8  UNL     1      26.119  10.243  45.394  1.00  0.00     0.059 A 
HETATM    9  N1  UNL     1      25.957  11.017  46.586  1.00  0.00    -0.323 N 
HETATM   10  C9  UNL     1      26.902  10.509  47.565  1.00  0.00     0.300 C 
HETATM   11  O1  UNL     1      26.457   9.448  48.267  1.00  0.00    -0.362 OA
HETATM   12  C10 UNL     1      27.418   8.873  49.080  1.00  0.00     0.153 C 
HETATM   13  C11 UNL     1      27.040   9.233  50.500  1.00  0.00     0.045 C 
HETATM   14  C12 UNL     1      27.495   7.402  48.896  1.00  0.00    -0.019 A 
HETATM   15  C13 UNL     1      26.322   6.891  49.479  1.00  0.00     0.010 A 
HETATM   16  C14 UNL     1      25.966   5.533  49.532  1.00  0.00     0.001 A 
HETATM   17  C15 UNL     1      26.827   4.611  48.971  1.00  0.00     0.001 A 
HETATM   18  C16 UNL     1      27.976   5.135  48.402  1.00  0.00     0.012 A 
HETATM   19  C17 UNL     1      28.331   6.465  48.346  1.00  0.00    -0.027 A 
HETATM   20  C18 UNL     1      29.595   6.637  47.671  1.00  0.00     0.022 C 
HETATM   21  C19 UNL     1      29.938   7.362  46.622  1.00  0.00    -0.024 C 
HETATM   22  C20 UNL     1      31.238   7.556  45.904  1.00  0.00     0.162 C 
HETATM   23  N2  UNL     1      31.329   9.035  45.993  1.00  0.00    -0.353 N 
HETATM   24  C21 UNL     1      29.989   9.284  45.527  1.00  0.00     0.252 C 
HETATM   25  O2  UNL     1      29.611  10.292  44.860  1.00  0.00    -0.268 OA
HETATM   26  C22 UNL     1      29.045   8.223  45.907  1.00  0.00     0.040 C 
HETATM   27  C23 UNL     1      27.847   8.518  45.465  1.00  0.00     0.031 C 
HETATM   28  H19 UNL     1      32.058   9.733  46.278  1.00  0.00     0.163 HD
ENDROOT
TORSDOF 0
ENDMDL
