MODEL 1
REMARK VINA RESULT:      -9.4      0.000      0.000
REMARK  5 active torsions:
REMARK  status: ('A' for Active; 'I' for Inactive)
REMARK    1  A    between atoms: C5_5  and  N1_6 
REMARK       I    between atoms: N1_6  and  C6_7 
REMARK    2  A    between atoms: C6_7  and  C7_9 
REMARK    3  A    between atoms: C13_15  and  N2_16 
REMARK    4  A    between atoms: N2_16  and  C14_17 
REMARK    5  A    between atoms: C17_21  and  C18_22 
ROOT
HETATM    1  C1  UNL     1      20.574   3.336  52.330  1.00  0.00     0.050 C 
HETATM    2  C2  UNL     1      21.920   3.759  51.838  1.00  0.00    -0.035 A 
HETATM    3  C3  UNL     1      22.177   5.100  51.673  1.00  0.00     0.011 A 
HETATM    4  C4  UNL     1      23.401   5.548  51.222  1.00  0.00     0.030 A 
HETATM    5  C5  UNL     1      24.372   4.614  50.938  1.00  0.00     0.037 A 
HETATM    6  C12 UNL     1      24.060   3.285  51.121  1.00  0.00     0.060 A 
HETATM    7  C13 UNL     1      22.862   2.775  51.567  1.00  0.00     0.057 A 
ENDROOT
BRANCH   7   8
HETATM    8  N2  UNL     1      22.567   1.404  51.747  1.00  0.00    -0.188 N 
HETATM    9  H13 UNL     1      21.935   0.989  51.019  1.00  0.00     0.184 HD
BRANCH   8  10
HETATM   10  C14 UNL     1      23.020   0.546  52.780  1.00  0.00     0.727 A 
HETATM   11  N3  UNL     1      22.277  -0.181  53.619  1.00  0.00    -0.075 NA
HETATM   12  C15 UNL     1      22.726  -0.984  54.585  1.00  0.00     0.139 A 
HETATM   13  C16 UNL     1      24.079  -1.076  54.736  1.00  0.00     0.053 A 
HETATM   14  C17 UNL     1      24.907  -0.356  53.907  1.00  0.00     0.089 A 
HETATM   15  N5  UNL     1      24.343   0.418  52.971  1.00  0.00    -0.062 NA
BRANCH  14  16
HETATM   16  C18 UNL     1      26.360  -0.388  53.989  1.00  0.00     0.011 A 
HETATM   17  C19 UNL     1      27.055  -1.140  53.070  1.00  0.00     0.017 A 
HETATM   18  C20 UNL     1      28.444  -1.235  53.063  1.00  0.00     0.020 A 
HETATM   19  C21 UNL     1      29.086  -0.523  54.047  1.00  0.00     0.116 A 
HETATM   20  N4  UNL     1      28.416   0.216  54.954  1.00  0.00    -0.272 NA
HETATM   21  C22 UNL     1      27.086   0.291  54.938  1.00  0.00     0.130 A 
ENDBRANCH  14  16
ENDBRANCH   8  10
ENDBRANCH   7   8
BRANCH   5  22
HETATM   22  N1  UNL     1      25.644   5.048  50.471  1.00  0.00    -0.323 N 
HETATM   23  C6  UNL     1      25.756   5.577  49.157  1.00  0.00     0.252 C 
HETATM   24  O1  UNL     1      24.683   5.625  48.480  1.00  0.00    -0.268 OA
HETATM   25  H6  UNL     1      26.546   5.020  51.009  1.00  0.00     0.169 HD
BRANCH  23  26
HETATM   26  C7  UNL     1      26.998   6.062  48.543  1.00  0.00     0.013 A 
HETATM   27  C8  UNL     1      27.293   7.209  47.926  1.00  0.00     0.013 A 
HETATM   28  C9  UNL     1      28.674   7.168  47.508  1.00  0.00    -0.003 A 
HETATM   29  C10 UNL     1      29.241   6.044  47.842  1.00  0.00    -0.022 A 
HETATM   30  C11 UNL     1      28.222   5.217  48.543  1.00  0.00     0.071 A 
ENDBRANCH  23  26
ENDBRANCH   5  22
TORSDOF 5
ENDMDL
MODEL 2
REMARK VINA RESULT:      -9.4      1.450      1.826
REMARK  5 active torsions:
REMARK  status: ('A' for Active; 'I' for Inactive)
REMARK    1  A    between atoms: C5_5  and  N1_6 
REMARK       I    between atoms: N1_6  and  C6_7 
REMARK    2  A    between atoms: C6_7  and  C7_9 
REMARK    3  A    between atoms: C13_15  and  N2_16 
REMARK    4  A    between atoms: N2_16  and  C14_17 
REMARK    5  A    between atoms: C17_21  and  C18_22 
ROOT
HETATM    1  C1  UNL     1      20.900   0.569  50.301  1.00  0.00     0.050 C 
HETATM    2  C2  UNL     1      21.887   1.645  49.985  1.00  0.00    -0.035 A 
HETATM    3  C3  UNL     1      22.179   1.914  48.668  1.00  0.00     0.011 A 
HETATM    4  C4  UNL     1      23.082   2.895  48.316  1.00  0.00     0.030 A 
HETATM    5  C5  UNL     1      23.693   3.609  49.324  1.00  0.00     0.037 A 
HETATM    6  C12 UNL     1      23.364   3.297  50.624  1.00  0.00     0.060 A 
HETATM    7  C13 UNL     1      22.474   2.332  51.039  1.00  0.00     0.057 A 
ENDROOT
BRANCH   7   8
HETATM    8  N2  UNL     1      22.153   2.032  52.383  1.00  0.00    -0.188 N 
HETATM    9  H13 UNL     1      21.481   2.699  52.835  1.00  0.00     0.184 HD
BRANCH   8  10
HETATM   10  C14 UNL     1      22.628   0.954  53.170  1.00  0.00     0.727 A 
HETATM   11  N3  UNL     1      21.902   0.048  53.833  1.00  0.00    -0.075 NA
HETATM   12  C15 UNL     1      22.371  -0.961  54.568  1.00  0.00     0.139 A 
HETATM   13  C16 UNL     1      23.727  -1.086  54.657  1.00  0.00     0.053 A 
HETATM   14  C17 UNL     1      24.537  -0.190  54.001  1.00  0.00     0.089 A 
HETATM   15  N5  UNL     1      23.954   0.784  53.291  1.00  0.00    -0.062 NA
BRANCH  14  16
HETATM   16  C18 UNL     1      25.992  -0.240  54.035  1.00  0.00     0.011 A 
HETATM   17  C19 UNL     1      26.645  -1.025  53.112  1.00  0.00     0.017 A 
HETATM   18  C20 UNL     1      28.031  -1.140  53.062  1.00  0.00     0.020 A 
HETATM   19  C21 UNL     1      28.717  -0.412  54.004  1.00  0.00     0.116 A 
HETATM   20  N4  UNL     1      28.087   0.359  54.913  1.00  0.00    -0.272 NA
HETATM   21  C22 UNL     1      26.759   0.452  54.940  1.00  0.00     0.130 A 
ENDBRANCH  14  16
ENDBRANCH   8  10
ENDBRANCH   7   8
BRANCH   5  22
HETATM   22  N1  UNL     1      24.630   4.627  48.990  1.00  0.00    -0.323 N 
HETATM   23  C6  UNL     1      26.018   4.329  49.026  1.00  0.00     0.252 C 
HETATM   24  O1  UNL     1      26.329   3.145  49.363  1.00  0.00    -0.268 OA
HETATM   25  H6  UNL     1      24.401   5.613  48.708  1.00  0.00     0.169 HD
BRANCH  23  26
HETATM   26  C7  UNL     1      27.095   5.275  48.708  1.00  0.00     0.013 A 
HETATM   27  C8  UNL     1      28.399   5.093  48.483  1.00  0.00     0.013 A 
HETATM   28  C9  UNL     1      29.006   6.374  48.214  1.00  0.00    -0.003 A 
HETATM   29  C10 UNL     1      28.131   7.338  48.264  1.00  0.00    -0.022 A 
HETATM   30  C11 UNL     1      26.812   6.730  48.587  1.00  0.00     0.071 A 
ENDBRANCH  23  26
ENDBRANCH   5  22
TORSDOF 5
ENDMDL
MODEL 3
REMARK VINA RESULT:      -9.3      2.240      7.369
REMARK  5 active torsions:
REMARK  status: ('A' for Active; 'I' for Inactive)
REMARK    1  A    between atoms: C5_5  and  N1_6 
REMARK       I    between atoms: N1_6  and  C6_7 
REMARK    2  A    between atoms: C6_7  and  C7_9 
REMARK    3  A    between atoms: C13_15  and  N2_16 
REMARK    4  A    between atoms: N2_16  and  C14_17 
REMARK    5  A    between atoms: C17_21  and  C18_22 
ROOT
HETATM    1  C1  UNL     1      21.359   4.040  52.315  1.00  0.00     0.050 C 
HETATM    2  C2  UNL     1      22.565   3.158  52.271  1.00  0.00    -0.035 A 
HETATM    3  C3  UNL     1      22.415   1.814  52.518  1.00  0.00     0.011 A 
HETATM    4  C4  UNL     1      23.491   0.952  52.492  1.00  0.00     0.030 A 
HETATM    5  C5  UNL     1      24.735   1.473  52.208  1.00  0.00     0.037 A 
HETATM    6  C12 UNL     1      24.827   2.825  51.968  1.00  0.00     0.060 A 
HETATM    7  C13 UNL     1      23.794   3.735  51.980  1.00  0.00     0.057 A 
ENDROOT
BRANCH   7   8
HETATM    8  N2  UNL     1      23.915   5.122  51.730  1.00  0.00    -0.188 N 
HETATM    9  H13 UNL     1      23.802   5.734  52.574  1.00  0.00     0.184 HD
BRANCH   8  10
HETATM   10  C14 UNL     1      24.170   5.762  50.492  1.00  0.00     0.727 A 
HETATM   11  N3  UNL     1      23.291   6.390  49.705  1.00  0.00    -0.075 NA
HETATM   12  C15 UNL     1      23.553   6.988  48.541  1.00  0.00     0.139 A 
HETATM   13  C16 UNL     1      24.845   6.958  48.106  1.00  0.00     0.053 A 
HETATM   14  C17 UNL     1      25.805   6.330  48.864  1.00  0.00     0.089 A 
HETATM   15  N5  UNL     1      25.425   5.764  50.017  1.00  0.00    -0.062 NA
BRANCH  14  16
HETATM   16  C18 UNL     1      27.208   6.245  48.485  1.00  0.00     0.011 A 
HETATM   17  C19 UNL     1      27.830   7.376  48.007  1.00  0.00     0.017 A 
HETATM   18  C20 UNL     1      29.166   7.399  47.619  1.00  0.00     0.020 A 
HETATM   19  C21 UNL     1      29.835   6.205  47.744  1.00  0.00     0.116 A 
HETATM   20  N4  UNL     1      29.236   5.092  48.210  1.00  0.00    -0.272 NA
HETATM   21  C22 UNL     1      27.955   5.096  48.576  1.00  0.00     0.130 A 
ENDBRANCH  14  16
ENDBRANCH   8  10
ENDBRANCH   7   8
BRANCH   5  22
HETATM   22  N1  UNL     1      25.864   0.607  52.174  1.00  0.00    -0.323 N 
HETATM   23  C6  UNL     1      26.757   0.590  53.278  1.00  0.00     0.252 C 
HETATM   24  O1  UNL     1      26.475   1.371  54.239  1.00  0.00    -0.268 OA
HETATM   25  H6  UNL     1      26.121  -0.048  51.394  1.00  0.00     0.169 HD
BRANCH  23  26
HETATM   26  C7  UNL     1      27.958  -0.248  53.383  1.00  0.00     0.013 A 
HETATM   27  C8  UNL     1      28.165  -1.539  53.111  1.00  0.00     0.013 A 
HETATM   28  C9  UNL     1      29.544  -1.857  53.395  1.00  0.00    -0.003 A 
HETATM   29  C10 UNL     1      30.195  -0.816  53.830  1.00  0.00    -0.022 A 
HETATM   30  C11 UNL     1      29.242   0.326  53.867  1.00  0.00     0.071 A 
ENDBRANCH  23  26
ENDBRANCH   5  22
TORSDOF 5
ENDMDL
MODEL 4
REMARK VINA RESULT:      -9.2      2.401      6.806
REMARK  5 active torsions:
REMARK  status: ('A' for Active; 'I' for Inactive)
REMARK    1  A    between atoms: C5_5  and  N1_6 
REMARK       I    between atoms: N1_6  and  C6_7 
REMARK    2  A    between atoms: C6_7  and  C7_9 
REMARK    3  A    between atoms: C13_15  and  N2_16 
REMARK    4  A    between atoms: N2_16  and  C14_17 
REMARK    5  A    between atoms: C17_21  and  C18_22 
ROOT
HETATM    1  C1  UNL     1      20.055   0.452  54.132  1.00  0.00     0.050 C 
HETATM    2  C2  UNL     1      21.499   0.120  53.943  1.00  0.00    -0.035 A 
HETATM    3  C3  UNL     1      22.115  -0.709  54.852  1.00  0.00     0.011 A 
HETATM    4  C4  UNL     1      23.445  -1.051  54.730  1.00  0.00     0.030 A 
HETATM    5  C5  UNL     1      24.153  -0.539  53.664  1.00  0.00     0.037 A 
HETATM    6  C12 UNL     1      23.487   0.286  52.786  1.00  0.00     0.060 A 
HETATM    7  C13 UNL     1      22.165   0.664  52.853  1.00  0.00     0.057 A 
ENDROOT
BRANCH   7   8
HETATM    8  N2  UNL     1      21.504   1.513  51.936  1.00  0.00    -0.188 N 
HETATM    9  H13 UNL     1      20.652   1.994  52.315  1.00  0.00     0.184 HD
BRANCH   8  10
HETATM   10  C14 UNL     1      21.857   1.782  50.590  1.00  0.00     0.727 A 
HETATM   11  N3  UNL     1      21.374   1.197  49.490  1.00  0.00    -0.075 NA
HETATM   12  C15 UNL     1      21.721   1.467  48.230  1.00  0.00     0.139 A 
HETATM   13  C16 UNL     1      22.663   2.435  48.040  1.00  0.00     0.053 A 
HETATM   14  C17 UNL     1      23.205   3.080  49.127  1.00  0.00     0.089 A 
HETATM   15  N5  UNL     1      22.779   2.726  50.346  1.00  0.00    -0.062 NA
BRANCH  14  16
HETATM   16  C18 UNL     1      24.214   4.124  49.027  1.00  0.00     0.011 A 
HETATM   17  C19 UNL     1      25.512   3.822  49.373  1.00  0.00     0.017 A 
HETATM   18  C20 UNL     1      26.548   4.749  49.312  1.00  0.00     0.020 A 
HETATM   19  C21 UNL     1      26.190   6.003  48.879  1.00  0.00     0.116 A 
HETATM   20  N4  UNL     1      24.923   6.311  48.539  1.00  0.00    -0.272 NA
HETATM   21  C22 UNL     1      23.949   5.405  48.605  1.00  0.00     0.130 A 
ENDBRANCH  14  16
ENDBRANCH   8  10
ENDBRANCH   7   8
BRANCH   5  22
HETATM   22  N1  UNL     1      25.528  -0.874  53.513  1.00  0.00    -0.323 N 
HETATM   23  C6  UNL     1      26.516   0.101  53.814  1.00  0.00     0.252 C 
HETATM   24  O1  UNL     1      26.087   1.230  54.207  1.00  0.00    -0.268 OA
HETATM   25  H6  UNL     1      25.910  -1.798  53.191  1.00  0.00     0.169 HD
BRANCH  23  26
HETATM   26  C7  UNL     1      27.966  -0.102  53.706  1.00  0.00     0.013 A 
HETATM   27  C8  UNL     1      28.992   0.744  53.829  1.00  0.00     0.013 A 
HETATM   28  C9  UNL     1      30.220   0.015  53.624  1.00  0.00    -0.003 A 
HETATM   29  C10 UNL     1      29.994  -1.244  53.380  1.00  0.00    -0.022 A 
HETATM   30  C11 UNL     1      28.521  -1.449  53.407  1.00  0.00     0.071 A 
ENDBRANCH  23  26
ENDBRANCH   5  22
TORSDOF 5
ENDMDL
MODEL 5
REMARK VINA RESULT:      -9.1      2.707      5.270
REMARK  5 active torsions:
REMARK  status: ('A' for Active; 'I' for Inactive)
REMARK    1  A    between atoms: C5_5  and  N1_6 
REMARK       I    between atoms: N1_6  and  C6_7 
REMARK    2  A    between atoms: C6_7  and  C7_9 
REMARK    3  A    between atoms: C13_15  and  N2_16 
REMARK    4  A    between atoms: N2_16  and  C14_17 
REMARK    5  A    between atoms: C17_21  and  C18_22 
ROOT
HETATM    1  C1  UNL     1      22.350   5.099  48.179  1.00  0.00     0.050 C 
HETATM    2  C2  UNL     1      23.505   4.537  48.943  1.00  0.00    -0.035 A 
HETATM    3  C3  UNL     1      24.509   5.383  49.349  1.00  0.00     0.011 A 
HETATM    4  C4  UNL     1      25.599   4.921  50.057  1.00  0.00     0.030 A 
HETATM    5  C5  UNL     1      25.660   3.576  50.352  1.00  0.00     0.037 A 
HETATM    6  C12 UNL     1      24.627   2.775  49.921  1.00  0.00     0.060 A 
HETATM    7  C13 UNL     1      23.517   3.175  49.212  1.00  0.00     0.057 A 
ENDROOT
BRANCH   7   8
HETATM    8  N2  UNL     1      22.468   2.330  48.781  1.00  0.00    -0.188 N 
HETATM    9  H13 UNL     1      22.433   2.163  47.746  1.00  0.00     0.184 HD
BRANCH   8  10
HETATM   10  C14 UNL     1      21.480   1.695  49.575  1.00  0.00     0.727 A 
HETATM   11  N3  UNL     1      20.169   1.609  49.328  1.00  0.00    -0.075 NA
HETATM   12  C15 UNL     1      19.256   1.005  50.090  1.00  0.00     0.139 A 
HETATM   13  C16 UNL     1      19.698   0.416  51.238  1.00  0.00     0.053 A 
HETATM   14  C17 UNL     1      21.035   0.464  51.557  1.00  0.00     0.089 A 
HETATM   15  N5  UNL     1      21.860   1.098  50.715  1.00  0.00    -0.062 NA
BRANCH  14  16
HETATM   16  C18 UNL     1      21.602  -0.135  52.757  1.00  0.00     0.011 A 
HETATM   17  C19 UNL     1      22.964  -0.075  52.941  1.00  0.00     0.017 A 
HETATM   18  C20 UNL     1      23.603  -0.616  54.053  1.00  0.00     0.020 A 
HETATM   19  C21 UNL     1      22.776  -1.223  54.968  1.00  0.00     0.116 A 
HETATM   20  N4  UNL     1      21.441  -1.288  54.797  1.00  0.00    -0.272 NA
HETATM   21  C22 UNL     1      20.854  -0.762  53.724  1.00  0.00     0.130 A 
ENDBRANCH  14  16
ENDBRANCH   8  10
ENDBRANCH   7   8
BRANCH   5  22
HETATM   22  N1  UNL     1      26.773   3.071  51.081  1.00  0.00    -0.323 N 
HETATM   23  C6  UNL     1      26.556   2.474  52.351  1.00  0.00     0.252 C 
HETATM   24  O1  UNL     1      25.353   2.433  52.753  1.00  0.00    -0.268 OA
HETATM   25  H6  UNL     1      27.778   3.092  50.773  1.00  0.00     0.169 HD
BRANCH  23  26
HETATM   26  C7  UNL     1      27.604   1.912  53.212  1.00  0.00     0.013 A 
HETATM   27  C8  UNL     1      28.706   2.453  53.737  1.00  0.00     0.013 A 
HETATM   28  C9  UNL     1      29.391   1.448  54.513  1.00  0.00    -0.003 A 
HETATM   29  C10 UNL     1      28.758   0.310  54.488  1.00  0.00    -0.022 A 
HETATM   30  C11 UNL     1      27.543   0.491  53.649  1.00  0.00     0.071 A 
ENDBRANCH  23  26
ENDBRANCH   5  22
TORSDOF 5
ENDMDL
MODEL 6
REMARK VINA RESULT:      -8.9      2.427      6.248
REMARK  5 active torsions:
REMARK  status: ('A' for Active; 'I' for Inactive)
REMARK    1  A    between atoms: C5_5  and  N1_6 
REMARK       I    between atoms: N1_6  and  C6_7 
REMARK    2  A    between atoms: C6_7  and  C7_9 
REMARK    3  A    between atoms: C13_15  and  N2_16 
REMARK    4  A    between atoms: N2_16  and  C14_17 
REMARK    5  A    between atoms: C17_21  and  C18_22 
ROOT
HETATM    1  C1  UNL     1      26.689   5.121  48.932  1.00  0.00     0.050 C 
HETATM    2  C2  UNL     1      25.436   4.512  49.472  1.00  0.00    -0.035 A 
HETATM    3  C3  UNL     1      24.226   4.911  48.955  1.00  0.00     0.011 A 
HETATM    4  C4  UNL     1      23.037   4.384  49.415  1.00  0.00     0.030 A 
HETATM    5  C5  UNL     1      23.088   3.437  50.414  1.00  0.00     0.037 A 
HETATM    6  C12 UNL     1      24.326   3.075  50.895  1.00  0.00     0.060 A 
HETATM    7  C13 UNL     1      25.545   3.563  50.480  1.00  0.00     0.057 A 
ENDROOT
BRANCH   7   8
HETATM    8  N2  UNL     1      26.805   3.172  50.991  1.00  0.00    -0.188 N 
HETATM    9  H13 UNL     1      27.630   3.567  50.478  1.00  0.00     0.184 HD
BRANCH   8  10
HETATM   10  C14 UNL     1      27.070   2.327  52.096  1.00  0.00     0.727 A 
HETATM   11  N3  UNL     1      28.235   2.156  52.729  1.00  0.00    -0.075 NA
HETATM   12  C15 UNL     1      28.462   1.353  53.770  1.00  0.00     0.139 A 
HETATM   13  C16 UNL     1      27.403   0.632  54.241  1.00  0.00     0.053 A 
HETATM   14  C17 UNL     1      26.174   0.758  53.639  1.00  0.00     0.089 A 
HETATM   15  N5  UNL     1      26.063   1.596  52.600  1.00  0.00    -0.062 NA
BRANCH  14  16
HETATM   16  C18 UNL     1      24.986   0.033  54.067  1.00  0.00     0.011 A 
HETATM   17  C19 UNL     1      23.818   0.207  53.361  1.00  0.00     0.017 A 
HETATM   18  C20 UNL     1      22.630  -0.440  53.690  1.00  0.00     0.020 A 
HETATM   19  C21 UNL     1      22.697  -1.274  54.779  1.00  0.00     0.116 A 
HETATM   20  N4  UNL     1      23.836  -1.451  55.479  1.00  0.00    -0.272 NA
HETATM   21  C22 UNL     1      24.959  -0.821  55.144  1.00  0.00     0.130 A 
ENDBRANCH  14  16
ENDBRANCH   8  10
ENDBRANCH   7   8
BRANCH   5  22
HETATM   22  N1  UNL     1      21.877   2.877  50.907  1.00  0.00    -0.323 N 
HETATM   23  C6  UNL     1      21.362   1.699  50.303  1.00  0.00     0.252 C 
HETATM   24  O1  UNL     1      22.040   1.220  49.342  1.00  0.00    -0.268 OA
HETATM   25  H6  UNL     1      21.297   3.251  51.699  1.00  0.00     0.169 HD
BRANCH  23  26
HETATM   26  C7  UNL     1      20.129   1.012  50.705  1.00  0.00     0.013 A 
HETATM   27  C8  UNL     1      19.844   0.245  51.761  1.00  0.00     0.013 A 
HETATM   28  C9  UNL     1      18.468  -0.181  51.666  1.00  0.00    -0.003 A 
HETATM   29  C10 UNL     1      17.894   0.292  50.597  1.00  0.00    -0.022 A 
HETATM   30  C11 UNL     1      18.903   1.107  49.868  1.00  0.00     0.071 A 
ENDBRANCH  23  26
ENDBRANCH   5  22
TORSDOF 5
ENDMDL
MODEL 7
REMARK VINA RESULT:      -8.9      3.183      8.591
REMARK  5 active torsions:
REMARK  status: ('A' for Active; 'I' for Inactive)
REMARK    1  A    between atoms: C5_5  and  N1_6 
REMARK       I    between atoms: N1_6  and  C6_7 
REMARK    2  A    between atoms: C6_7  and  C7_9 
REMARK    3  A    between atoms: C13_15  and  N2_16 
REMARK    4  A    between atoms: N2_16  and  C14_17 
REMARK    5  A    between atoms: C17_21  and  C18_22 
ROOT
HETATM    1  C1  UNL     1      26.167   2.111  53.564  1.00  0.00     0.050 C 
HETATM    2  C2  UNL     1      24.836   1.564  53.161  1.00  0.00    -0.035 A 
HETATM    3  C3  UNL     1      24.542   0.252  53.449  1.00  0.00     0.011 A 
HETATM    4  C4  UNL     1      23.330  -0.308  53.101  1.00  0.00     0.030 A 
HETATM    5  C5  UNL     1      22.409   0.486  52.453  1.00  0.00     0.037 A 
HETATM    6  C12 UNL     1      22.757   1.792  52.190  1.00  0.00     0.060 A 
HETATM    7  C13 UNL     1      23.946   2.407  52.510  1.00  0.00     0.057 A 
ENDROOT
BRANCH   7   8
HETATM    8  N2  UNL     1      24.278   3.753  52.228  1.00  0.00    -0.188 N 
HETATM    9  H13 UNL     1      24.588   4.313  53.059  1.00  0.00     0.184 HD
BRANCH   8  10
HETATM   10  C14 UNL     1      24.240   4.413  50.976  1.00  0.00     0.727 A 
HETATM   11  N3  UNL     1      23.172   4.633  50.203  1.00  0.00    -0.075 NA
HETATM   12  C15 UNL     1      23.160   5.260  49.025  1.00  0.00     0.139 A 
HETATM   13  C16 UNL     1      24.354   5.724  48.557  1.00  0.00     0.053 A 
HETATM   14  C17 UNL     1      25.496   5.534  49.299  1.00  0.00     0.089 A 
HETATM   15  N5  UNL     1      25.388   4.891  50.468  1.00  0.00    -0.062 NA
BRANCH  14  16
HETATM   16  C18 UNL     1      26.814   5.992  48.885  1.00  0.00     0.011 A 
HETATM   17  C19 UNL     1      27.764   5.052  48.553  1.00  0.00     0.017 A 
HETATM   18  C20 UNL     1      29.052   5.388  48.146  1.00  0.00     0.020 A 
HETATM   19  C21 UNL     1      29.320   6.735  48.095  1.00  0.00     0.116 A 
HETATM   20  N4  UNL     1      28.398   7.663  48.419  1.00  0.00    -0.272 NA
HETATM   21  C22 UNL     1      27.173   7.316  48.805  1.00  0.00     0.130 A 
ENDBRANCH  14  16
ENDBRANCH   8  10
ENDBRANCH   7   8
BRANCH   5  22
HETATM   22  N1  UNL     1      21.151  -0.065  52.082  1.00  0.00    -0.323 N 
HETATM   23  C6  UNL     1      20.104  -0.109  53.041  1.00  0.00     0.252 C 
HETATM   24  O1  UNL     1      20.377   0.359  54.189  1.00  0.00    -0.268 OA
HETATM   25  H6  UNL     1      20.898  -0.459  51.141  1.00  0.00     0.169 HD
BRANCH  23  26
HETATM   26  C7  UNL     1      18.759  -0.647  52.802  1.00  0.00     0.013 A 
HETATM   27  C8  UNL     1      18.058  -1.596  53.428  1.00  0.00     0.013 A 
HETATM   28  C9  UNL     1      16.778  -1.731  52.777  1.00  0.00    -0.003 A 
HETATM   29  C10 UNL     1      16.660  -0.906  51.776  1.00  0.00    -0.022 A 
HETATM   30  C11 UNL     1      17.922  -0.123  51.689  1.00  0.00     0.071 A 
ENDBRANCH  23  26
ENDBRANCH   5  22
TORSDOF 5
ENDMDL
MODEL 8
REMARK VINA RESULT:      -8.6      2.808      5.316
REMARK  5 active torsions:
REMARK  status: ('A' for Active; 'I' for Inactive)
REMARK    1  A    between atoms: C5_5  and  N1_6 
REMARK       I    between atoms: N1_6  and  C6_7 
REMARK    2  A    between atoms: C6_7  and  C7_9 
REMARK    3  A    between atoms: C13_15  and  N2_16 
REMARK    4  A    between atoms: N2_16  and  C14_17 
REMARK    5  A    between atoms: C17_21  and  C18_22 
ROOT
HETATM    1  C1  UNL     1      24.802   6.452  50.193  1.00  0.00     0.050 C 
HETATM    2  C2  UNL     1      26.107   6.259  49.490  1.00  0.00    -0.035 A 
HETATM    3  C3  UNL     1      26.844   7.366  49.140  1.00  0.00     0.011 A 
HETATM    4  C4  UNL     1      28.055   7.250  48.490  1.00  0.00     0.030 A 
HETATM    5  C5  UNL     1      28.516   5.985  48.195  1.00  0.00     0.037 A 
HETATM    6  C12 UNL     1      27.737   4.913  48.569  1.00  0.00     0.060 A 
HETATM    7  C13 UNL     1      26.524   4.964  49.217  1.00  0.00     0.057 A 
ENDROOT
BRANCH   7   8
HETATM    8  N2  UNL     1      25.743   3.845  49.590  1.00  0.00    -0.188 N 
HETATM    9  H13 UNL     1      24.918   3.656  48.970  1.00  0.00     0.184 HD
BRANCH   8  10
HETATM   10  C14 UNL     1      25.947   2.969  50.685  1.00  0.00     0.727 A 
HETATM   11  N3  UNL     1      27.088   2.741  51.343  1.00  0.00    -0.075 NA
HETATM   12  C15 UNL     1      27.257   1.911  52.374  1.00  0.00     0.139 A 
HETATM   13  C16 UNL     1      26.160   1.222  52.802  1.00  0.00     0.053 A 
HETATM   14  C17 UNL     1      24.952   1.406  52.172  1.00  0.00     0.089 A 
HETATM   15  N5  UNL     1      24.901   2.267  51.148  1.00  0.00    -0.062 NA
BRANCH  14  16
HETATM   16  C18 UNL     1      23.728   0.718  52.556  1.00  0.00     0.011 A 
HETATM   17  C19 UNL     1      23.779  -0.193  53.585  1.00  0.00     0.017 A 
HETATM   18  C20 UNL     1      22.665  -0.902  54.026  1.00  0.00     0.020 A 
HETATM   19  C21 UNL     1      21.494  -0.631  53.360  1.00  0.00     0.116 A 
HETATM   20  N4  UNL     1      21.433   0.259  52.350  1.00  0.00    -0.272 NA
HETATM   21  C22 UNL     1      22.514   0.924  51.947  1.00  0.00     0.130 A 
ENDBRANCH  14  16
ENDBRANCH   8  10
ENDBRANCH   7   8
BRANCH   5  22
HETATM   22  N1  UNL     1      29.762   5.835  47.525  1.00  0.00    -0.323 N 
HETATM   23  C6  UNL     1      30.924   5.530  48.283  1.00  0.00     0.252 C 
HETATM   24  O1  UNL     1      30.760   5.412  49.536  1.00  0.00    -0.268 OA
HETATM   25  H6  UNL     1      29.926   5.927  46.491  1.00  0.00     0.169 HD
BRANCH  23  26
HETATM   26  C7  UNL     1      32.271   5.347  47.729  1.00  0.00     0.013 A 
HETATM   27  C8  UNL     1      32.969   4.246  47.437  1.00  0.00     0.013 A 
HETATM   28  C9  UNL     1      34.255   4.638  46.912  1.00  0.00    -0.003 A 
HETATM   29  C10 UNL     1      34.379   5.934  46.869  1.00  0.00    -0.022 A 
HETATM   30  C11 UNL     1      33.116   6.523  47.390  1.00  0.00     0.071 A 
ENDBRANCH  23  26
ENDBRANCH   5  22
TORSDOF 5
ENDMDL
MODEL 9
REMARK VINA RESULT:      -8.5      1.831      2.308
REMARK  5 active torsions:
REMARK  status: ('A' for Active; 'I' for Inactive)
REMARK    1  A    between atoms: C5_5  and  N1_6 
REMARK       I    between atoms: N1_6  and  C6_7 
REMARK    2  A    between atoms: C6_7  and  C7_9 
REMARK    3  A    between atoms: C13_15  and  N2_16 
REMARK    4  A    between atoms: N2_16  and  C14_17 
REMARK    5  A    between atoms: C17_21  and  C18_22 
ROOT
HETATM    1  C1  UNL     1      18.580   3.502  50.559  1.00  0.00     0.050 C 
HETATM    2  C2  UNL     1      20.014   3.591  50.151  1.00  0.00    -0.035 A 
HETATM    3  C3  UNL     1      20.322   4.087  48.905  1.00  0.00     0.011 A 
HETATM    4  C4  UNL     1      21.627   4.192  48.473  1.00  0.00     0.030 A 
HETATM    5  C5  UNL     1      22.629   3.787  49.327  1.00  0.00     0.037 A 
HETATM    6  C12 UNL     1      22.265   3.299  50.562  1.00  0.00     0.060 A 
HETATM    7  C13 UNL     1      20.984   3.168  51.049  1.00  0.00     0.057 A 
ENDROOT
BRANCH   7   8
HETATM    8  N2  UNL     1      20.636   2.663  52.324  1.00  0.00    -0.188 N 
HETATM    9  H13 UNL     1      19.916   3.226  52.840  1.00  0.00     0.184 HD
BRANCH   8  10
HETATM   10  C14 UNL     1      21.140   1.506  52.968  1.00  0.00     0.727 A 
HETATM   11  N3  UNL     1      20.450   0.595  53.662  1.00  0.00    -0.075 NA
HETATM   12  C15 UNL     1      20.946  -0.489  54.259  1.00  0.00     0.139 A 
HETATM   13  C16 UNL     1      22.291  -0.695  54.156  1.00  0.00     0.053 A 
HETATM   14  C17 UNL     1      23.064   0.201  53.457  1.00  0.00     0.089 A 
HETATM   15  N5  UNL     1      22.456   1.255  52.897  1.00  0.00    -0.062 NA
BRANCH  14  16
HETATM   16  C18 UNL     1      24.504   0.069  53.290  1.00  0.00     0.011 A 
HETATM   17  C19 UNL     1      25.108   0.721  52.239  1.00  0.00     0.017 A 
HETATM   18  C20 UNL     1      26.477   0.657  51.995  1.00  0.00     0.020 A 
HETATM   19  C21 UNL     1      27.198  -0.107  52.880  1.00  0.00     0.116 A 
HETATM   20  N4  UNL     1      26.616  -0.750  53.912  1.00  0.00    -0.272 NA
HETATM   21  C22 UNL     1      25.304  -0.674  54.125  1.00  0.00     0.130 A 
ENDBRANCH  14  16
ENDBRANCH   8  10
ENDBRANCH   7   8
BRANCH   5  22
HETATM   22  N1  UNL     1      23.986   3.884  48.909  1.00  0.00    -0.323 N 
HETATM   23  C6  UNL     1      24.745   5.025  49.281  1.00  0.00     0.252 C 
HETATM   24  O1  UNL     1      24.142   5.897  49.978  1.00  0.00    -0.268 OA
HETATM   25  H6  UNL     1      24.509   3.179  48.332  1.00  0.00     0.169 HD
BRANCH  23  26
HETATM   26  C7  UNL     1      26.149   5.260  48.922  1.00  0.00     0.013 A 
HETATM   27  C8  UNL     1      27.216   4.456  48.937  1.00  0.00     0.013 A 
HETATM   28  C9  UNL     1      28.365   5.203  48.483  1.00  0.00    -0.003 A 
HETATM   29  C10 UNL     1      28.051   6.432  48.190  1.00  0.00    -0.022 A 
HETATM   30  C11 UNL     1      26.594   6.596  48.443  1.00  0.00     0.071 A 
ENDBRANCH  23  26
ENDBRANCH   5  22
TORSDOF 5
ENDMDL
