MODEL 1
REMARK VINA RESULT:      -6.4      0.000      0.000
REMARK  6 active torsions:
REMARK  status: ('A' for Active; 'I' for Inactive)
REMARK    1  A    between atoms: N1_2  and  C3_4 
REMARK    2  A    between atoms: C3_4  and  C4_5 
REMARK    3  A    between atoms: C5_6  and  C6_7 
REMARK       I    between atoms: C6_7  and  N2_9 
REMARK    4  A    between atoms: N2_9  and  C7_10 
REMARK    5  A    between atoms: C8_11  and  C9_12 
REMARK    6  A    between atoms: C10_13  and  N3_14 
ROOT
HETATM    1  C7  UNL     1      26.144   2.902  50.861  1.00  0.00     0.100 C 
HETATM    2  C8  UNL     1      26.357   1.823  51.593  1.00  0.00     0.083 C 
ENDROOT
BRANCH   1   3
HETATM    3  N2  UNL     1      26.953   3.812  50.125  1.00  0.00    -0.326 N 
HETATM    4  C6  UNL     1      26.543   4.813  49.207  1.00  0.00     0.300 C 
HETATM    5  O1  UNL     1      25.350   5.045  48.902  1.00  0.00    -0.258 OA
HETATM    6  H9  UNL     1      27.952   3.630  50.370  1.00  0.00     0.169 HD
BRANCH   4   7
HETATM    7  C5  UNL     1      27.561   5.631  48.571  1.00  0.00    -0.004 C 
HETATM    8  C4  UNL     1      28.393   6.327  48.038  1.00  0.00    -0.066 C 
BRANCH   8   9
HETATM    9  C3  UNL     1      29.393   7.188  47.387  1.00  0.00     0.365 C 
BRANCH   9  10
HETATM   10  N1  UNL     1      30.347   7.575  48.403  1.00  0.00     0.090 N 
HETATM   11  C1  UNL     1      31.670   7.805  47.861  1.00  0.00     0.310 C 
HETATM   12  C2  UNL     1      29.815   8.791  49.016  1.00  0.00     0.310 C 
ENDBRANCH   9  10
ENDBRANCH   8   9
ENDBRANCH   4   7
ENDBRANCH   1   3
BRANCH   2  13
HETATM   13  C9  UNL     1      25.206   1.190  52.173  1.00  0.00    -0.054 C 
HETATM   14  C10 UNL     1      24.233   0.653  52.643  1.00  0.00     0.021 C 
BRANCH  14  15
HETATM   15  N3  UNL     1      23.094   0.030  53.167  1.00  0.00    -0.291 N 
HETATM   16  C11 UNL     1      23.165  -0.839  54.292  1.00  0.00     0.118 C 
HETATM   17  C12 UNL     1      22.035  -1.232  54.854  1.00  0.00    -0.006 C 
HETATM   18  C13 UNL     1      20.926  -1.162  54.175  1.00  0.00     0.034 C 
HETATM   19  C14 UNL     1      20.725  -0.293  53.019  1.00  0.00     0.028 C 
HETATM   20 BR1  UNL     1      19.040   0.032  52.206  1.00  0.00    -0.050 Br
HETATM   21  C15 UNL     1      21.823   0.285  52.542  1.00  0.00     0.125 C 
ENDBRANCH  14  15
ENDBRANCH   2  13
TORSDOF 6
ENDMDL
MODEL 2
REMARK VINA RESULT:      -5.9      1.647      2.169
REMARK  6 active torsions:
REMARK  status: ('A' for Active; 'I' for Inactive)
REMARK    1  A    between atoms: N1_2  and  C3_4 
REMARK    2  A    between atoms: C3_4  and  C4_5 
REMARK    3  A    between atoms: C5_6  and  C6_7 
REMARK       I    between atoms: C6_7  and  N2_9 
REMARK    4  A    between atoms: N2_9  and  C7_10 
REMARK    5  A    between atoms: C8_11  and  C9_12 
REMARK    6  A    between atoms: C10_13  and  N3_14 
ROOT
HETATM    1  C7  UNL     1      25.815   4.634  49.878  1.00  0.00     0.100 C 
HETATM    2  C8  UNL     1      24.828   3.846  49.490  1.00  0.00     0.083 C 
ENDROOT
BRANCH   1   3
HETATM    3  N2  UNL     1      26.557   5.701  49.299  1.00  0.00    -0.326 N 
HETATM    4  C6  UNL     1      27.789   5.639  48.599  1.00  0.00     0.300 C 
HETATM    5  O1  UNL     1      28.426   4.583  48.382  1.00  0.00    -0.258 OA
HETATM    6  H9  UNL     1      26.036   6.590  49.473  1.00  0.00     0.169 HD
BRANCH   4   7
HETATM    7  C5  UNL     1      28.362   6.875  48.093  1.00  0.00    -0.004 C 
HETATM    8  C4  UNL     1      28.853   7.891  47.660  1.00  0.00    -0.066 C 
BRANCH   8   9
HETATM    9  C3  UNL     1      29.461   9.118  47.121  1.00  0.00     0.365 C 
BRANCH   9  10
HETATM   10  N1  UNL     1      29.568  10.057  48.215  1.00  0.00     0.090 N 
HETATM   11  C1  UNL     1      30.407   9.563  49.287  1.00  0.00     0.310 C 
HETATM   12  C2  UNL     1      30.119  11.284  47.643  1.00  0.00     0.310 C 
ENDBRANCH   9  10
ENDBRANCH   8   9
ENDBRANCH   4   7
ENDBRANCH   1   3
BRANCH   2  13
HETATM   13  C9  UNL     1      24.366   2.866  50.432  1.00  0.00    -0.054 C 
HETATM   14  C10 UNL     1      23.996   2.038  51.227  1.00  0.00     0.021 C 
BRANCH  14  15
HETATM   15  N3  UNL     1      23.588   1.067  52.150  1.00  0.00    -0.291 N 
HETATM   16  C11 UNL     1      24.526   0.327  52.924  1.00  0.00     0.118 C 
HETATM   17  C12 UNL     1      24.072  -0.425  53.911  1.00  0.00    -0.006 C 
HETATM   18  C13 UNL     1      22.820  -0.787  53.914  1.00  0.00     0.034 C 
HETATM   19  C14 UNL     1      21.764  -0.095  53.179  1.00  0.00     0.028 C 
HETATM   20 BR1  UNL     1      19.909  -0.434  53.404  1.00  0.00    -0.050 Br
HETATM   21  C15 UNL     1      22.180   0.820  52.310  1.00  0.00     0.125 C 
ENDBRANCH  14  15
ENDBRANCH   2  13
TORSDOF 6
ENDMDL
MODEL 3
REMARK VINA RESULT:      -5.8      4.047     10.801
REMARK  6 active torsions:
REMARK  status: ('A' for Active; 'I' for Inactive)
REMARK    1  A    between atoms: N1_2  and  C3_4 
REMARK    2  A    between atoms: C3_4  and  C4_5 
REMARK    3  A    between atoms: C5_6  and  C6_7 
REMARK       I    between atoms: C6_7  and  N2_9 
REMARK    4  A    between atoms: N2_9  and  C7_10 
REMARK    5  A    between atoms: C8_11  and  C9_12 
REMARK    6  A    between atoms: C10_13  and  N3_14 
ROOT
HETATM    1  C7  UNL     1      26.663   3.790  49.856  1.00  0.00     0.100 C 
HETATM    2  C8  UNL     1      26.757   4.791  48.999  1.00  0.00     0.083 C 
ENDROOT
BRANCH   1   3
HETATM    3  N2  UNL     1      25.608   3.134  50.549  1.00  0.00    -0.326 N 
HETATM    4  C6  UNL     1      25.686   2.022  51.427  1.00  0.00     0.300 C 
HETATM    5  O1  UNL     1      26.751   1.435  51.729  1.00  0.00    -0.258 OA
HETATM    6  H9  UNL     1      24.713   3.615  50.306  1.00  0.00     0.169 HD
BRANCH   4   7
HETATM    7  C5  UNL     1      24.460   1.521  52.024  1.00  0.00    -0.004 C 
HETATM    8  C4  UNL     1      23.452   1.090  52.531  1.00  0.00    -0.066 C 
BRANCH   8   9
HETATM    9  C3  UNL     1      22.234   0.552  53.159  1.00  0.00     0.365 C 
BRANCH   9  10
HETATM   10  N1  UNL     1      22.523  -0.811  53.548  1.00  0.00     0.090 N 
HETATM   11  C1  UNL     1      23.572  -0.892  54.543  1.00  0.00     0.310 C 
HETATM   12  C2  UNL     1      21.270  -1.359  54.064  1.00  0.00     0.310 C 
ENDBRANCH   9  10
ENDBRANCH   8   9
ENDBRANCH   4   7
ENDBRANCH   1   3
BRANCH   2  13
HETATM   13  C9  UNL     1      28.072   5.133  48.535  1.00  0.00    -0.054 C 
HETATM   14  C10 UNL     1      29.169   5.426  48.129  1.00  0.00     0.021 C 
BRANCH  14  15
HETATM   15  N3  UNL     1      30.434   5.766  47.635  1.00  0.00    -0.291 N 
HETATM   16  C11 UNL     1      30.724   7.073  47.151  1.00  0.00     0.118 C 
HETATM   17  C12 UNL     1      31.982   7.380  46.887  1.00  0.00    -0.006 C 
HETATM   18  C13 UNL     1      32.846   6.425  46.691  1.00  0.00     0.034 C 
HETATM   19  C14 UNL     1      32.671   5.052  47.159  1.00  0.00     0.028 C 
HETATM   20 BR1  UNL     1      34.037   3.733  47.135  1.00  0.00    -0.050 Br
HETATM   21  C15 UNL     1      31.460   4.757  47.622  1.00  0.00     0.125 C 
ENDBRANCH  14  15
ENDBRANCH   2  13
TORSDOF 6
ENDMDL
MODEL 4
REMARK VINA RESULT:      -5.8      2.311      3.098
REMARK  6 active torsions:
REMARK  status: ('A' for Active; 'I' for Inactive)
REMARK    1  A    between atoms: N1_2  and  C3_4 
REMARK    2  A    between atoms: C3_4  and  C4_5 
REMARK    3  A    between atoms: C5_6  and  C6_7 
REMARK       I    between atoms: C6_7  and  N2_9 
REMARK    4  A    between atoms: N2_9  and  C7_10 
REMARK    5  A    between atoms: C8_11  and  C9_12 
REMARK    6  A    between atoms: C10_13  and  N3_14 
ROOT
HETATM    1  C7  UNL     1      26.890   4.442  49.699  1.00  0.00     0.100 C 
HETATM    2  C8  UNL     1      26.447   3.214  49.493  1.00  0.00     0.083 C 
ENDROOT
BRANCH   1   3
HETATM    3  N2  UNL     1      27.248   5.548  48.881  1.00  0.00    -0.326 N 
HETATM    4  C6  UNL     1      28.491   5.812  48.248  1.00  0.00     0.300 C 
HETATM    5  O1  UNL     1      29.495   5.067  48.327  1.00  0.00    -0.258 OA
HETATM    6  H9  UNL     1      26.419   6.179  48.805  1.00  0.00     0.169 HD
BRANCH   4   7
HETATM    7  C5  UNL     1      28.622   7.020  47.452  1.00  0.00    -0.004 C 
HETATM    8  C4  UNL     1      28.743   8.034  46.806  1.00  0.00    -0.066 C 
BRANCH   8   9
HETATM    9  C3  UNL     1      28.901   9.277  46.033  1.00  0.00     0.365 C 
BRANCH   9  10
HETATM   10  N1  UNL     1      29.481  10.259  46.922  1.00  0.00     0.090 N 
HETATM   11  C1  UNL     1      28.696  10.450  48.124  1.00  0.00     0.310 C 
HETATM   12  C2  UNL     1      30.821   9.773  47.245  1.00  0.00     0.310 C 
ENDBRANCH   9  10
ENDBRANCH   8   9
ENDBRANCH   4   7
ENDBRANCH   1   3
BRANCH   2  13
HETATM   13  C9  UNL     1      26.207   2.403  50.653  1.00  0.00    -0.054 C 
HETATM   14  C10 UNL     1      25.990   1.714  51.619  1.00  0.00     0.021 C 
BRANCH  14  15
HETATM   15  N3  UNL     1      25.716   0.910  52.733  1.00  0.00    -0.291 N 
HETATM   16  C11 UNL     1      26.714   0.604  53.701  1.00  0.00     0.118 C 
HETATM   17  C12 UNL     1      26.342   0.012  54.821  1.00  0.00    -0.006 C 
HETATM   18  C13 UNL     1      25.204  -0.621  54.862  1.00  0.00     0.034 C 
HETATM   19  C14 UNL     1      24.098  -0.379  53.939  1.00  0.00     0.028 C 
HETATM   20 BR1  UNL     1      22.346  -1.079  54.164  1.00  0.00    -0.050 Br
HETATM   21  C15 UNL     1      24.386   0.386  52.891  1.00  0.00     0.125 C 
ENDBRANCH  14  15
ENDBRANCH   2  13
TORSDOF 6
ENDMDL
MODEL 5
REMARK VINA RESULT:      -5.8      1.279      1.678
REMARK  6 active torsions:
REMARK  status: ('A' for Active; 'I' for Inactive)
REMARK    1  A    between atoms: N1_2  and  C3_4 
REMARK    2  A    between atoms: C3_4  and  C4_5 
REMARK    3  A    between atoms: C5_6  and  C6_7 
REMARK       I    between atoms: C6_7  and  N2_9 
REMARK    4  A    between atoms: N2_9  and  C7_10 
REMARK    5  A    between atoms: C8_11  and  C9_12 
REMARK    6  A    between atoms: C10_13  and  N3_14 
ROOT
HETATM    1  C7  UNL     1      26.443   3.862  49.743  1.00  0.00     0.100 C 
HETATM    2  C8  UNL     1      25.140   3.716  49.575  1.00  0.00     0.083 C 
ENDROOT
BRANCH   1   3
HETATM    3  N2  UNL     1      27.468   4.642  49.140  1.00  0.00    -0.326 N 
HETATM    4  C6  UNL     1      27.350   5.889  48.473  1.00  0.00     0.300 C 
HETATM    5  O1  UNL     1      26.272   6.506  48.314  1.00  0.00    -0.258 OA
HETATM    6  H9  UNL     1      28.375   4.139  49.265  1.00  0.00     0.169 HD
BRANCH   4   7
HETATM    7  C5  UNL     1      28.552   6.503  47.933  1.00  0.00    -0.004 C 
HETATM    8  C4  UNL     1      29.551   6.998  47.469  1.00  0.00    -0.066 C 
BRANCH   8   9
HETATM    9  C3  UNL     1      30.769   7.587  46.889  1.00  0.00     0.365 C 
BRANCH   9  10
HETATM   10  N1  UNL     1      31.493   8.218  47.970  1.00  0.00     0.090 N 
HETATM   11  C1  UNL     1      32.927   8.077  47.832  1.00  0.00     0.310 C 
HETATM   12  C2  UNL     1      31.102   9.627  47.952  1.00  0.00     0.310 C 
ENDBRANCH   9  10
ENDBRANCH   8   9
ENDBRANCH   4   7
ENDBRANCH   1   3
BRANCH   2  13
HETATM   13  C9  UNL     1      24.471   2.783  50.437  1.00  0.00    -0.054 C 
HETATM   14  C10 UNL     1      23.926   1.992  51.167  1.00  0.00     0.021 C 
BRANCH  14  15
HETATM   15  N3  UNL     1      23.313   1.061  52.014  1.00  0.00    -0.291 N 
HETATM   16  C11 UNL     1      24.067   0.255  52.913  1.00  0.00     0.118 C 
HETATM   17  C12 UNL     1      23.416  -0.454  53.818  1.00  0.00    -0.006 C 
HETATM   18  C13 UNL     1      22.154  -0.718  53.636  1.00  0.00     0.034 C 
HETATM   19  C14 UNL     1      21.274   0.049  52.758  1.00  0.00     0.028 C 
HETATM   20 BR1  UNL     1      19.385  -0.143  52.707  1.00  0.00    -0.050 Br
HETATM   21  C15 UNL     1      21.882   0.925  51.965  1.00  0.00     0.125 C 
ENDBRANCH  14  15
ENDBRANCH   2  13
TORSDOF 6
ENDMDL
MODEL 6
REMARK VINA RESULT:      -5.7      3.981     10.749
REMARK  6 active torsions:
REMARK  status: ('A' for Active; 'I' for Inactive)
REMARK    1  A    between atoms: N1_2  and  C3_4 
REMARK    2  A    between atoms: C3_4  and  C4_5 
REMARK    3  A    between atoms: C5_6  and  C6_7 
REMARK       I    between atoms: C6_7  and  N2_9 
REMARK    4  A    between atoms: N2_9  and  C7_10 
REMARK    5  A    between atoms: C8_11  and  C9_12 
REMARK    6  A    between atoms: C10_13  and  N3_14 
ROOT
HETATM    1  C7  UNL     1      26.811   3.649  50.009  1.00  0.00     0.100 C 
HETATM    2  C8  UNL     1      26.572   4.538  49.061  1.00  0.00     0.083 C 
ENDROOT
BRANCH   1   3
HETATM    3  N2  UNL     1      26.035   2.722  50.758  1.00  0.00    -0.326 N 
HETATM    4  C6  UNL     1      26.449   1.891  51.832  1.00  0.00     0.300 C 
HETATM    5  O1  UNL     1      27.613   1.859  52.292  1.00  0.00    -0.258 OA
HETATM    6  H9  UNL     1      25.060   2.738  50.385  1.00  0.00     0.169 HD
BRANCH   4   7
HETATM    7  C5  UNL     1      25.467   1.016  52.449  1.00  0.00    -0.004 C 
HETATM    8  C4  UNL     1      24.658   0.294  52.982  1.00  0.00    -0.066 C 
BRANCH   8   9
HETATM    9  C3  UNL     1      23.679  -0.579  53.649  1.00  0.00     0.365 C 
BRANCH   9  10
HETATM   10  N1  UNL     1      22.426   0.142  53.693  1.00  0.00     0.090 N 
HETATM   11  C1  UNL     1      21.754   0.162  52.411  1.00  0.00     0.310 C 
HETATM   12  C2  UNL     1      21.608  -0.528  54.703  1.00  0.00     0.310 C 
ENDBRANCH   9  10
ENDBRANCH   8   9
ENDBRANCH   4   7
ENDBRANCH   1   3
BRANCH   2  13
HETATM   13  C9  UNL     1      27.694   5.288  48.570  1.00  0.00    -0.054 C 
HETATM   14  C10 UNL     1      28.638   5.926  48.175  1.00  0.00     0.021 C 
BRANCH  14  15
HETATM   15  N3  UNL     1      29.733   6.681  47.736  1.00  0.00    -0.291 N 
HETATM   16  C11 UNL     1      30.983   6.076  47.423  1.00  0.00     0.118 C 
HETATM   17  C12 UNL     1      31.905   6.813  46.827  1.00  0.00    -0.006 C 
HETATM   18  C13 UNL     1      31.827   8.111  46.895  1.00  0.00     0.034 C 
HETATM   19  C14 UNL     1      30.598   8.845  47.186  1.00  0.00     0.028 C 
HETATM   20 BR1  UNL     1      30.408  10.726  47.002  1.00  0.00    -0.050 Br
HETATM   21  C15 UNL     1      29.576   8.104  47.601  1.00  0.00     0.125 C 
ENDBRANCH  14  15
ENDBRANCH   2  13
TORSDOF 6
ENDMDL
MODEL 7
REMARK VINA RESULT:      -5.6      5.922     10.794
REMARK  6 active torsions:
REMARK  status: ('A' for Active; 'I' for Inactive)
REMARK    1  A    between atoms: N1_2  and  C3_4 
REMARK    2  A    between atoms: C3_4  and  C4_5 
REMARK    3  A    between atoms: C5_6  and  C6_7 
REMARK       I    between atoms: C6_7  and  N2_9 
REMARK    4  A    between atoms: N2_9  and  C7_10 
REMARK    5  A    between atoms: C8_11  and  C9_12 
REMARK    6  A    between atoms: C10_13  and  N3_14 
ROOT
HETATM    1  C7  UNL     1      21.453   0.213  52.294  1.00  0.00     0.100 C 
HETATM    2  C8  UNL     1      22.227  -0.572  53.022  1.00  0.00     0.083 C 
ENDROOT
BRANCH   1   3
HETATM    3  N2  UNL     1      20.079   0.234  51.926  1.00  0.00    -0.326 N 
HETATM    4  C6  UNL     1      18.998  -0.474  52.513  1.00  0.00     0.300 C 
HETATM    5  O1  UNL     1      19.110  -1.253  53.487  1.00  0.00    -0.258 OA
HETATM    6  H9  UNL     1      19.970   0.881  51.113  1.00  0.00     0.169 HD
BRANCH   4   7
HETATM    7  C5  UNL     1      17.667  -0.291  51.959  1.00  0.00    -0.004 C 
HETATM    8  C4  UNL     1      16.569  -0.142  51.478  1.00  0.00    -0.066 C 
BRANCH   8   9
HETATM    9  C3  UNL     1      15.238   0.036  50.874  1.00  0.00     0.365 C 
BRANCH   9  10
HETATM   10  N1  UNL     1      14.264  -0.339  51.875  1.00  0.00     0.090 N 
HETATM   11  C1  UNL     1      14.436  -1.702  52.332  1.00  0.00     0.310 C 
HETATM   12  C2  UNL     1      14.430   0.607  52.977  1.00  0.00     0.310 C 
ENDBRANCH   9  10
ENDBRANCH   8   9
ENDBRANCH   4   7
ENDBRANCH   1   3
BRANCH   2  13
HETATM   13  C9  UNL     1      23.611  -0.203  53.133  1.00  0.00    -0.054 C 
HETATM   14  C10 UNL     1      24.767   0.125  53.229  1.00  0.00     0.021 C 
BRANCH  14  15
HETATM   15  N3  UNL     1      26.104   0.528  53.337  1.00  0.00    -0.291 N 
HETATM   16  C11 UNL     1      26.468   1.900  53.438  1.00  0.00     0.118 C 
HETATM   17  C12 UNL     1      27.720   2.198  53.736  1.00  0.00    -0.006 C 
HETATM   18  C13 UNL     1      28.651   1.308  53.544  1.00  0.00     0.034 C 
HETATM   19  C14 UNL     1      28.405  -0.129  53.446  1.00  0.00     0.028 C 
HETATM   20 BR1  UNL     1      29.769  -1.450  53.457  1.00  0.00    -0.050 Br
HETATM   21  C15 UNL     1      27.128  -0.483  53.344  1.00  0.00     0.125 C 
ENDBRANCH  14  15
ENDBRANCH   2  13
TORSDOF 6
ENDMDL
MODEL 8
REMARK VINA RESULT:      -5.6      6.009      9.112
REMARK  6 active torsions:
REMARK  status: ('A' for Active; 'I' for Inactive)
REMARK    1  A    between atoms: N1_2  and  C3_4 
REMARK    2  A    between atoms: C3_4  and  C4_5 
REMARK    3  A    between atoms: C5_6  and  C6_7 
REMARK       I    between atoms: C6_7  and  N2_9 
REMARK    4  A    between atoms: N2_9  and  C7_10 
REMARK    5  A    between atoms: C8_11  and  C9_12 
REMARK    6  A    between atoms: C10_13  and  N3_14 
ROOT
HETATM    1  C7  UNL     1      19.261  -0.115  52.881  1.00  0.00     0.100 C 
HETATM    2  C8  UNL     1      18.322  -0.913  52.405  1.00  0.00     0.083 C 
ENDROOT
BRANCH   1   3
HETATM    3  N2  UNL     1      20.683  -0.123  52.923  1.00  0.00    -0.326 N 
HETATM    4  C6  UNL     1      21.533  -0.781  53.849  1.00  0.00     0.300 C 
HETATM    5  O1  UNL     1      21.129  -1.481  54.806  1.00  0.00    -0.258 OA
HETATM    6  H9  UNL     1      21.035   0.458  52.130  1.00  0.00     0.169 HD
BRANCH   4   7
HETATM    7  C5  UNL     1      22.971  -0.643  53.690  1.00  0.00    -0.004 C 
HETATM    8  C4  UNL     1      24.168  -0.550  53.557  1.00  0.00    -0.066 C 
BRANCH   8   9
HETATM    9  C3  UNL     1      25.628  -0.456  53.392  1.00  0.00     0.365 C 
BRANCH   9  10
HETATM   10  N1  UNL     1      26.106   0.495  54.371  1.00  0.00     0.090 N 
HETATM   11  C1  UNL     1      27.466   0.223  54.787  1.00  0.00     0.310 C 
HETATM   12  C2  UNL     1      26.004   1.810  53.742  1.00  0.00     0.310 C 
ENDBRANCH   9  10
ENDBRANCH   8   9
ENDBRANCH   4   7
ENDBRANCH   1   3
BRANCH   2  13
HETATM   13  C9  UNL     1      16.959  -0.501  52.589  1.00  0.00    -0.054 C 
HETATM   14  C10 UNL     1      15.808  -0.172  52.737  1.00  0.00     0.021 C 
BRANCH  14  15
HETATM   15  N3  UNL     1      14.465   0.192  52.894  1.00  0.00    -0.291 N 
HETATM   16  C11 UNL     1      13.414  -0.765  52.816  1.00  0.00     0.118 C 
HETATM   17  C12 UNL     1      12.197  -0.391  53.169  1.00  0.00    -0.006 C 
HETATM   18  C13 UNL     1      11.900   0.877  53.194  1.00  0.00     0.034 C 
HETATM   19  C14 UNL     1      12.887   1.949  53.295  1.00  0.00     0.028 C 
HETATM   20 BR1  UNL     1      12.457   3.769  53.622  1.00  0.00    -0.050 Br
HETATM   21  C15 UNL     1      14.153   1.575  53.141  1.00  0.00     0.125 C 
ENDBRANCH  14  15
ENDBRANCH   2  13
TORSDOF 6
ENDMDL
MODEL 9
REMARK VINA RESULT:      -5.6      3.244      4.959
REMARK  6 active torsions:
REMARK  status: ('A' for Active; 'I' for Inactive)
REMARK    1  A    between atoms: N1_2  and  C3_4 
REMARK    2  A    between atoms: C3_4  and  C4_5 
REMARK    3  A    between atoms: C5_6  and  C6_7 
REMARK       I    between atoms: C6_7  and  N2_9 
REMARK    4  A    between atoms: N2_9  and  C7_10 
REMARK    5  A    between atoms: C8_11  and  C9_12 
REMARK    6  A    between atoms: C10_13  and  N3_14 
ROOT
HETATM    1  C7  UNL     1      28.644   5.149  48.516  1.00  0.00     0.100 C 
HETATM    2  C8  UNL     1      27.325   5.132  48.591  1.00  0.00     0.083 C 
ENDROOT
BRANCH   1   3
HETATM    3  N2  UNL     1      29.615   5.890  47.787  1.00  0.00    -0.326 N 
HETATM    4  C6  UNL     1      31.013   5.665  47.700  1.00  0.00     0.300 C 
HETATM    5  O1  UNL     1      31.616   4.735  48.283  1.00  0.00    -0.258 OA
HETATM    6  H9  UNL     1      29.125   6.671  47.295  1.00  0.00     0.169 HD
BRANCH   4   7
HETATM    7  C5  UNL     1      31.812   6.565  46.884  1.00  0.00    -0.004 C 
HETATM    8  C4  UNL     1      32.493   7.302  46.212  1.00  0.00    -0.066 C 
BRANCH   8   9
HETATM    9  C3  UNL     1      33.340   8.190  45.399  1.00  0.00     0.365 C 
BRANCH   9  10
HETATM   10  N1  UNL     1      33.537   7.539  44.123  1.00  0.00     0.090 N 
HETATM   11  C1  UNL     1      34.061   6.196  44.262  1.00  0.00     0.310 C 
HETATM   12  C2  UNL     1      32.230   7.524  43.469  1.00  0.00     0.310 C 
ENDBRANCH   9  10
ENDBRANCH   8   9
ENDBRANCH   4   7
ENDBRANCH   1   3
BRANCH   2  13
HETATM   13  C9  UNL     1      26.735   4.184  49.495  1.00  0.00    -0.054 C 
HETATM   14  C10 UNL     1      26.232   3.379  50.239  1.00  0.00     0.021 C 
BRANCH  14  15
HETATM   15  N3  UNL     1      25.634   2.437  51.085  1.00  0.00    -0.291 N 
HETATM   16  C11 UNL     1      24.279   2.559  51.504  1.00  0.00     0.118 C 
HETATM   17  C12 UNL     1      23.722   1.540  52.134  1.00  0.00    -0.006 C 
HETATM   18  C13 UNL     1      24.482   0.645  52.698  1.00  0.00     0.034 C 
HETATM   19  C14 UNL     1      25.879   0.411  52.338  1.00  0.00     0.028 C 
HETATM   20 BR1  UNL     1      26.904  -1.069  52.943  1.00  0.00    -0.050 Br
HETATM   21  C15 UNL     1      26.421   1.321  51.535  1.00  0.00     0.125 C 
ENDBRANCH  14  15
ENDBRANCH   2  13
TORSDOF 6
ENDMDL
