MODEL 1
REMARK VINA RESULT:      -7.8      0.000      0.000
REMARK  8 active torsions:
REMARK  status: ('A' for Active; 'I' for Inactive)
REMARK    1  A    between atoms: O1_1  and  C1_2 
REMARK    2  A    between atoms: C4_5  and  C5_6 
REMARK    3  A    between atoms: C5_6  and  N1_7 
REMARK    4  A    between atoms: N1_7  and  C6_8 
REMARK    5  A    between atoms: N1_7  and  C12_15 
REMARK    6  A    between atoms: C6_8  and  O2_9 
REMARK    7  A    between atoms: O2_9  and  C7_10 
REMARK    8  A    between atoms: C13_16  and  S1_17 
ROOT
HETATM    1  N1  UNL     1      25.428   2.132  52.595  1.00  0.00    -0.341 N 
ENDROOT
BRANCH   1   2
HETATM    2  C5  UNL     1      24.958   0.905  51.983  1.00  0.00     0.165 C 
BRANCH   2   3
HETATM    3  C4  UNL     1      23.755   0.382  52.716  1.00  0.00    -0.040 A 
HETATM    4  C3  UNL     1      23.970  -0.518  53.763  1.00  0.00     0.011 A 
HETATM    5  C2  UNL     1      22.971  -1.085  54.529  1.00  0.00     0.037 A 
HETATM    6  C1  UNL     1      21.670  -0.726  54.227  1.00  0.00     0.065 A 
HETATM    7  C18 UNL     1      21.421   0.170  53.187  1.00  0.00     0.037 A 
HETATM    8  C17 UNL     1      22.451   0.717  52.440  1.00  0.00     0.011 A 
BRANCH   6   9
HETATM    9  O1  UNL     1      20.649  -1.287  54.987  1.00  0.00    -0.361 OA
HETATM   10  H1  UNL     1      20.296  -2.217  54.871  1.00  0.00     0.217 HD
ENDBRANCH   6   9
ENDBRANCH   2   3
ENDBRANCH   1   2
BRANCH   1  11
HETATM   11  C6  UNL     1      26.327   2.101  53.727  1.00  0.00     0.302 C 
BRANCH  11  12
HETATM   12  O2  UNL     1      27.668   1.864  53.319  1.00  0.00    -0.336 OA
BRANCH  12  13
HETATM   13  C7  UNL     1      28.222   0.591  53.339  1.00  0.00     0.052 A 
HETATM   14  C8  UNL     1      29.509   0.619  53.721  1.00  0.00     0.032 A 
HETATM   15  C9  UNL     1      30.023  -0.733  53.720  1.00  0.00    -0.001 A 
HETATM   16  C10 UNL     1      29.056  -1.561  53.342  1.00  0.00    -0.020 A 
HETATM   17  C11 UNL     1      27.830  -0.793  53.068  1.00  0.00     0.091 A 
ENDBRANCH  12  13
ENDBRANCH  11  12
ENDBRANCH   1  11
BRANCH   1  18
HETATM   18  C12 UNL     1      24.952   3.343  52.039  1.00  0.00     0.115 C 
HETATM   19  C13 UNL     1      25.248   3.911  50.885  1.00  0.00     0.033 C 
HETATM   20  C14 UNL     1      24.557   5.197  50.617  1.00  0.00     0.052 C 
HETATM   21  C15 UNL     1      23.082   5.033  50.924  1.00  0.00     0.025 C 
HETATM   22  C16 UNL     1      22.868   4.759  52.401  1.00  0.00     0.121 C 
HETATM   23  N2  UNL     1      24.011   3.984  52.928  1.00  0.00    -0.376 N 
HETATM   24  H19 UNL     1      24.098   3.927  53.947  1.00  0.00     0.161 HD
BRANCH  19  25
HETATM   25  S1  UNL     1      26.337   3.408  49.582  1.00  0.00    -0.048 SA
HETATM   26 BR1  UNL     1      27.538   5.058  48.690  1.00  0.00    -0.006 Br
ENDBRANCH  19  25
ENDBRANCH   1  18
TORSDOF 8
ENDMDL
MODEL 2
REMARK VINA RESULT:      -7.6      2.400      5.176
REMARK  8 active torsions:
REMARK  status: ('A' for Active; 'I' for Inactive)
REMARK    1  A    between atoms: O1_1  and  C1_2 
REMARK    2  A    between atoms: C4_5  and  C5_6 
REMARK    3  A    between atoms: C5_6  and  N1_7 
REMARK    4  A    between atoms: N1_7  and  C6_8 
REMARK    5  A    between atoms: N1_7  and  C12_15 
REMARK    6  A    between atoms: C6_8  and  O2_9 
REMARK    7  A    between atoms: O2_9  and  C7_10 
REMARK    8  A    between atoms: C13_16  and  S1_17 
ROOT
HETATM    1  N1  UNL     1      25.923   2.300  52.441  1.00  0.00    -0.341 N 
ENDROOT
BRANCH   1   2
HETATM    2  C5  UNL     1      27.334   2.031  52.637  1.00  0.00     0.165 C 
BRANCH   2   3
HETATM    3  C4  UNL     1      27.572   0.552  52.756  1.00  0.00    -0.040 A 
HETATM    4  C3  UNL     1      28.725   0.130  53.422  1.00  0.00     0.011 A 
HETATM    5  C2  UNL     1      29.083  -1.191  53.612  1.00  0.00     0.037 A 
HETATM    6  C1  UNL     1      28.229  -2.151  53.102  1.00  0.00     0.065 A 
HETATM    7  C18 UNL     1      27.069  -1.762  52.432  1.00  0.00     0.037 A 
HETATM    8  C17 UNL     1      26.745  -0.427  52.260  1.00  0.00     0.011 A 
BRANCH   6   9
HETATM    9  O1  UNL     1      28.572  -3.487  53.284  1.00  0.00    -0.361 OA
HETATM   10  H1  UNL     1      29.109  -3.838  54.052  1.00  0.00     0.217 HD
ENDBRANCH   6   9
ENDBRANCH   2   3
ENDBRANCH   1   2
BRANCH   1  11
HETATM   11  C6  UNL     1      24.936   1.820  53.383  1.00  0.00     0.302 C 
BRANCH  11  12
HETATM   12  O2  UNL     1      23.920   1.069  52.733  1.00  0.00    -0.336 OA
BRANCH  12  13
HETATM   13  C7  UNL     1      23.022   0.286  53.446  1.00  0.00     0.052 A 
HETATM   14  C8  UNL     1      21.764   0.738  53.319  1.00  0.00     0.032 A 
HETATM   15  C9  UNL     1      20.885  -0.119  54.083  1.00  0.00    -0.001 A 
HETATM   16  C10 UNL     1      21.606  -1.073  54.660  1.00  0.00    -0.020 A 
HETATM   17  C11 UNL     1      23.025  -0.899  54.306  1.00  0.00     0.091 A 
ENDBRANCH  12  13
ENDBRANCH  11  12
ENDBRANCH   1  11
BRANCH   1  18
HETATM   18  C12 UNL     1      25.571   3.036  51.285  1.00  0.00     0.115 C 
HETATM   19  C13 UNL     1      24.584   3.894  51.104  1.00  0.00     0.033 C 
HETATM   20  C14 UNL     1      24.505   4.490  49.747  1.00  0.00     0.052 C 
HETATM   21  C15 UNL     1      25.886   4.961  49.338  1.00  0.00     0.025 C 
HETATM   22  C16 UNL     1      26.838   3.786  49.209  1.00  0.00     0.121 C 
HETATM   23  N2  UNL     1      26.472   2.746  50.194  1.00  0.00    -0.376 N 
HETATM   24  H19 UNL     1      26.890   1.820  50.064  1.00  0.00     0.161 HD
BRANCH  19  25
HETATM   25  S1  UNL     1      23.321   4.470  52.204  1.00  0.00    -0.048 SA
HETATM   26 BR1  UNL     1      21.413   5.040  51.205  1.00  0.00    -0.006 Br
ENDBRANCH  19  25
ENDBRANCH   1  18
TORSDOF 8
ENDMDL
MODEL 3
REMARK VINA RESULT:      -7.5      2.030      4.482
REMARK  8 active torsions:
REMARK  status: ('A' for Active; 'I' for Inactive)
REMARK    1  A    between atoms: O1_1  and  C1_2 
REMARK    2  A    between atoms: C4_5  and  C5_6 
REMARK    3  A    between atoms: C5_6  and  N1_7 
REMARK    4  A    between atoms: N1_7  and  C6_8 
REMARK    5  A    between atoms: N1_7  and  C12_15 
REMARK    6  A    between atoms: C6_8  and  O2_9 
REMARK    7  A    between atoms: O2_9  and  C7_10 
REMARK    8  A    between atoms: C13_16  and  S1_17 
ROOT
HETATM    1  N1  UNL     1      23.948   2.852  52.061  1.00  0.00    -0.341 N 
ENDROOT
BRANCH   1   2
HETATM    2  C5  UNL     1      24.855   2.610  53.166  1.00  0.00     0.165 C 
BRANCH   2   3
HETATM    3  C4  UNL     1      25.514   1.269  53.018  1.00  0.00    -0.040 A 
HETATM    4  C3  UNL     1      25.312   0.328  54.031  1.00  0.00     0.011 A 
HETATM    5  C2  UNL     1      25.849  -0.944  54.040  1.00  0.00     0.037 A 
HETATM    6  C1  UNL     1      26.640  -1.298  52.962  1.00  0.00     0.065 A 
HETATM    7  C18 UNL     1      26.861  -0.382  51.934  1.00  0.00     0.037 A 
HETATM    8  C17 UNL     1      26.306   0.886  51.962  1.00  0.00     0.011 A 
BRANCH   6   9
HETATM    9  O1  UNL     1      27.190  -2.576  52.953  1.00  0.00    -0.361 OA
HETATM   10  H1  UNL     1      26.862  -3.342  53.508  1.00  0.00     0.217 HD
ENDBRANCH   6   9
ENDBRANCH   2   3
ENDBRANCH   1   2
BRANCH   1  11
HETATM   11  C6  UNL     1      23.035   1.825  51.610  1.00  0.00     0.302 C 
BRANCH  11  12
HETATM   12  O2  UNL     1      21.899   1.730  52.458  1.00  0.00    -0.336 OA
BRANCH  12  13
HETATM   13  C7  UNL     1      21.689   0.628  53.276  1.00  0.00     0.052 A 
HETATM   14  C8  UNL     1      22.205  -0.489  52.741  1.00  0.00     0.032 A 
HETATM   15  C9  UNL     1      21.952  -1.593  53.640  1.00  0.00    -0.001 A 
HETATM   16  C10 UNL     1      21.292  -1.144  54.701  1.00  0.00    -0.020 A 
HETATM   17  C11 UNL     1      21.068   0.306  54.562  1.00  0.00     0.091 A 
ENDBRANCH  12  13
ENDBRANCH  11  12
ENDBRANCH   1  11
BRANCH   1  18
HETATM   18  C12 UNL     1      24.017   4.126  51.449  1.00  0.00     0.115 C 
HETATM   19  C13 UNL     1      24.869   4.580  50.549  1.00  0.00     0.033 C 
HETATM   20  C14 UNL     1      24.648   5.985  50.121  1.00  0.00     0.052 C 
HETATM   21  C15 UNL     1      23.178   6.175  49.808  1.00  0.00     0.025 C 
HETATM   22  C16 UNL     1      22.335   5.995  51.057  1.00  0.00     0.121 C 
HETATM   23  N2  UNL     1      22.967   4.990  51.937  1.00  0.00    -0.376 N 
HETATM   24  H19 UNL     1      22.624   4.940  52.901  1.00  0.00     0.161 HD
BRANCH  19  25
HETATM   25  S1  UNL     1      26.247   3.806  49.751  1.00  0.00    -0.048 SA
HETATM   26 BR1  UNL     1      27.577   5.204  48.637  1.00  0.00    -0.006 Br
ENDBRANCH  19  25
ENDBRANCH   1  18
TORSDOF 8
ENDMDL
MODEL 4
REMARK VINA RESULT:      -7.4      2.037      2.452
REMARK  8 active torsions:
REMARK  status: ('A' for Active; 'I' for Inactive)
REMARK    1  A    between atoms: O1_1  and  C1_2 
REMARK    2  A    between atoms: C4_5  and  C5_6 
REMARK    3  A    between atoms: C5_6  and  N1_7 
REMARK    4  A    between atoms: N1_7  and  C6_8 
REMARK    5  A    between atoms: N1_7  and  C12_15 
REMARK    6  A    between atoms: C6_8  and  O2_9 
REMARK    7  A    between atoms: O2_9  and  C7_10 
REMARK    8  A    between atoms: C13_16  and  S1_17 
ROOT
HETATM    1  N1  UNL     1      25.290   2.028  52.512  1.00  0.00    -0.341 N 
ENDROOT
BRANCH   1   2
HETATM    2  C5  UNL     1      24.977   0.634  52.265  1.00  0.00     0.165 C 
BRANCH   2   3
HETATM    3  C4  UNL     1      23.586   0.319  52.737  1.00  0.00    -0.040 A 
HETATM    4  C3  UNL     1      23.450  -0.442  53.901  1.00  0.00     0.011 A 
HETATM    5  C2  UNL     1      22.243  -0.813  54.460  1.00  0.00     0.037 A 
HETATM    6  C1  UNL     1      21.097  -0.394  53.810  1.00  0.00     0.065 A 
HETATM    7  C18 UNL     1      21.198   0.366  52.645  1.00  0.00     0.037 A 
HETATM    8  C17 UNL     1      22.428   0.718  52.114  1.00  0.00     0.011 A 
BRANCH   6   9
HETATM    9  O1  UNL     1      19.870  -0.758  54.357  1.00  0.00    -0.361 OA
HETATM   10  H1  UNL     1      19.094  -0.138  54.479  1.00  0.00     0.217 HD
ENDBRANCH   6   9
ENDBRANCH   2   3
ENDBRANCH   1   2
BRANCH   1  11
HETATM   11  C6  UNL     1      25.711   2.475  53.821  1.00  0.00     0.302 C 
BRANCH  11  12
HETATM   12  O2  UNL     1      26.400   1.450  54.523  1.00  0.00    -0.336 OA
BRANCH  12  13
HETATM   13  C7  UNL     1      27.672   1.037  54.148  1.00  0.00     0.052 A 
HETATM   14  C8  UNL     1      27.895  -0.242  54.489  1.00  0.00     0.032 A 
HETATM   15  C9  UNL     1      29.231  -0.606  54.072  1.00  0.00    -0.001 A 
HETATM   16  C10 UNL     1      29.802   0.441  53.488  1.00  0.00    -0.020 A 
HETATM   17  C11 UNL     1      28.861   1.575  53.486  1.00  0.00     0.091 A 
ENDBRANCH  12  13
ENDBRANCH  11  12
ENDBRANCH   1  11
BRANCH   1  18
HETATM   18  C12 UNL     1      25.147   2.914  51.417  1.00  0.00     0.115 C 
HETATM   19  C13 UNL     1      24.278   3.891  51.236  1.00  0.00     0.033 C 
HETATM   20  C14 UNL     1      24.415   4.629  49.956  1.00  0.00     0.052 C 
HETATM   21  C15 UNL     1      25.873   4.983  49.748  1.00  0.00     0.025 C 
HETATM   22  C16 UNL     1      26.711   3.728  49.583  1.00  0.00     0.121 C 
HETATM   23  N2  UNL     1      26.134   2.640  50.399  1.00  0.00    -0.376 N 
HETATM   24  H19 UNL     1      26.470   1.692  50.206  1.00  0.00     0.161 HD
BRANCH  19  25
HETATM   25  S1  UNL     1      22.961   4.487  52.259  1.00  0.00    -0.048 SA
HETATM   26 BR1  UNL     1      20.923   4.194  51.409  1.00  0.00    -0.006 Br
ENDBRANCH  19  25
ENDBRANCH   1  18
TORSDOF 8
ENDMDL
MODEL 5
REMARK VINA RESULT:      -7.4      2.216      4.931
REMARK  8 active torsions:
REMARK  status: ('A' for Active; 'I' for Inactive)
REMARK    1  A    between atoms: O1_1  and  C1_2 
REMARK    2  A    between atoms: C4_5  and  C5_6 
REMARK    3  A    between atoms: C5_6  and  N1_7 
REMARK    4  A    between atoms: N1_7  and  C6_8 
REMARK    5  A    between atoms: N1_7  and  C12_15 
REMARK    6  A    between atoms: C6_8  and  O2_9 
REMARK    7  A    between atoms: O2_9  and  C7_10 
REMARK    8  A    between atoms: C13_16  and  S1_17 
ROOT
HETATM    1  N1  UNL     1      24.484   2.640  51.281  1.00  0.00    -0.341 N 
ENDROOT
BRANCH   1   2
HETATM    2  C5  UNL     1      25.857   2.449  50.858  1.00  0.00     0.165 C 
BRANCH   2   3
HETATM    3  C4  UNL     1      26.582   1.556  51.824  1.00  0.00    -0.040 A 
HETATM    4  C3  UNL     1      27.461   2.155  52.730  1.00  0.00     0.011 A 
HETATM    5  C2  UNL     1      28.199   1.471  53.677  1.00  0.00     0.037 A 
HETATM    6  C1  UNL     1      28.045   0.098  53.719  1.00  0.00     0.065 A 
HETATM    7  C18 UNL     1      27.175  -0.531  52.828  1.00  0.00     0.037 A 
HETATM    8  C17 UNL     1      26.453   0.189  51.891  1.00  0.00     0.011 A 
BRANCH   6   9
HETATM    9  O1  UNL     1      28.780  -0.609  54.666  1.00  0.00    -0.361 OA
HETATM   10  H1  UNL     1      29.009  -0.269  55.580  1.00  0.00     0.217 HD
ENDBRANCH   6   9
ENDBRANCH   2   3
ENDBRANCH   1   2
BRANCH   1  11
HETATM   11  C6  UNL     1      24.095   2.441  52.660  1.00  0.00     0.302 C 
BRANCH  11  12
HETATM   12  O2  UNL     1      22.838   1.786  52.756  1.00  0.00    -0.336 OA
BRANCH  12  13
HETATM   13  C7  UNL     1      22.678   0.616  53.487  1.00  0.00     0.052 A 
HETATM   14  C8  UNL     1      21.416   0.473  53.920  1.00  0.00     0.032 A 
HETATM   15  C9  UNL     1      21.320  -0.760  54.670  1.00  0.00    -0.001 A 
HETATM   16  C10 UNL     1      22.509  -1.349  54.685  1.00  0.00    -0.020 A 
HETATM   17  C11 UNL     1      23.475  -0.527  53.936  1.00  0.00     0.091 A 
ENDBRANCH  12  13
ENDBRANCH  11  12
ENDBRANCH   1  11
BRANCH   1  18
HETATM   18  C12 UNL     1      23.556   3.013  50.280  1.00  0.00     0.115 C 
HETATM   19  C13 UNL     1      23.411   4.169  49.658  1.00  0.00     0.033 C 
HETATM   20  C14 UNL     1      22.321   4.212  48.651  1.00  0.00     0.052 C 
HETATM   21  C15 UNL     1      22.421   2.985  47.769  1.00  0.00     0.025 C 
HETATM   22  C16 UNL     1      22.176   1.723  48.575  1.00  0.00     0.121 C 
HETATM   23  N2  UNL     1      22.681   1.912  49.951  1.00  0.00    -0.376 N 
HETATM   24  H19 UNL     1      22.380   1.227  50.651  1.00  0.00     0.161 HD
BRANCH  19  25
HETATM   25  S1  UNL     1      24.293   5.696  49.812  1.00  0.00    -0.048 SA
HETATM   26 BR1  UNL     1      26.344   5.673  48.942  1.00  0.00    -0.006 Br
ENDBRANCH  19  25
ENDBRANCH   1  18
TORSDOF 8
ENDMDL
MODEL 6
REMARK VINA RESULT:      -7.3      3.475      5.852
REMARK  8 active torsions:
REMARK  status: ('A' for Active; 'I' for Inactive)
REMARK    1  A    between atoms: O1_1  and  C1_2 
REMARK    2  A    between atoms: C4_5  and  C5_6 
REMARK    3  A    between atoms: C5_6  and  N1_7 
REMARK    4  A    between atoms: N1_7  and  C6_8 
REMARK    5  A    between atoms: N1_7  and  C12_15 
REMARK    6  A    between atoms: C6_8  and  O2_9 
REMARK    7  A    between atoms: O2_9  and  C7_10 
REMARK    8  A    between atoms: C13_16  and  S1_17 
ROOT
HETATM    1  N1  UNL     1      24.496   2.350  52.088  1.00  0.00    -0.341 N 
ENDROOT
BRANCH   1   2
HETATM    2  C5  UNL     1      25.087   2.432  53.409  1.00  0.00     0.165 C 
BRANCH   2   3
HETATM    3  C4  UNL     1      26.411   1.722  53.434  1.00  0.00    -0.040 A 
HETATM    4  C3  UNL     1      26.403   0.326  53.365  1.00  0.00     0.011 A 
HETATM    5  C2  UNL     1      27.534  -0.467  53.377  1.00  0.00     0.037 A 
HETATM    6  C1  UNL     1      28.752   0.181  53.463  1.00  0.00     0.065 A 
HETATM    7  C18 UNL     1      28.794   1.574  53.534  1.00  0.00     0.037 A 
HETATM    8  C17 UNL     1      27.638   2.335  53.520  1.00  0.00     0.011 A 
BRANCH   6   9
HETATM    9  O1  UNL     1      29.903  -0.600  53.477  1.00  0.00    -0.361 OA
HETATM   10  H1  UNL     1      30.798  -0.304  53.139  1.00  0.00     0.217 HD
ENDBRANCH   6   9
ENDBRANCH   2   3
ENDBRANCH   1   2
BRANCH   1  11
HETATM   11  C6  UNL     1      25.301   2.529  50.900  1.00  0.00     0.302 C 
BRANCH  11  12
HETATM   12  O2  UNL     1      24.838   3.622  50.119  1.00  0.00    -0.336 OA
BRANCH  12  13
HETATM   13  C7  UNL     1      25.716   4.504  49.504  1.00  0.00     0.052 A 
HETATM   14  C8  UNL     1      26.905   3.928  49.262  1.00  0.00     0.032 A 
HETATM   15  C9  UNL     1      27.768   4.897  48.625  1.00  0.00    -0.001 A 
HETATM   16  C10 UNL     1      27.106   6.040  48.486  1.00  0.00    -0.020 A 
HETATM   17  C11 UNL     1      25.746   5.890  49.032  1.00  0.00     0.091 A 
ENDBRANCH  12  13
ENDBRANCH  11  12
ENDBRANCH   1  11
BRANCH   1  18
HETATM   18  C12 UNL     1      23.103   2.104  52.029  1.00  0.00     0.115 C 
HETATM   19  C13 UNL     1      22.426   1.024  52.372  1.00  0.00     0.033 C 
HETATM   20  C14 UNL     1      20.957   1.109  52.175  1.00  0.00     0.052 C 
HETATM   21  C15 UNL     1      20.462   2.421  52.749  1.00  0.00     0.025 C 
HETATM   22  C16 UNL     1      21.042   3.595  51.983  1.00  0.00     0.121 C 
HETATM   23  N2  UNL     1      22.398   3.251  51.507  1.00  0.00    -0.376 N 
HETATM   24  H19 UNL     1      22.806   3.865  50.795  1.00  0.00     0.161 HD
BRANCH  19  25
HETATM   25  S1  UNL     1      22.962  -0.529  53.033  1.00  0.00    -0.048 SA
HETATM   26 BR1  UNL     1      21.609  -1.397  54.575  1.00  0.00    -0.006 Br
ENDBRANCH  19  25
ENDBRANCH   1  18
TORSDOF 8
ENDMDL
MODEL 7
REMARK VINA RESULT:      -7.3      2.013      2.614
REMARK  8 active torsions:
REMARK  status: ('A' for Active; 'I' for Inactive)
REMARK    1  A    between atoms: O1_1  and  C1_2 
REMARK    2  A    between atoms: C4_5  and  C5_6 
REMARK    3  A    between atoms: C5_6  and  N1_7 
REMARK    4  A    between atoms: N1_7  and  C6_8 
REMARK    5  A    between atoms: N1_7  and  C12_15 
REMARK    6  A    between atoms: C6_8  and  O2_9 
REMARK    7  A    between atoms: O2_9  and  C7_10 
REMARK    8  A    between atoms: C13_16  and  S1_17 
ROOT
HETATM    1  N1  UNL     1      24.229   2.243  51.343  1.00  0.00    -0.341 N 
ENDROOT
BRANCH   1   2
HETATM    2  C5  UNL     1      23.668   2.538  52.646  1.00  0.00     0.165 C 
BRANCH   2   3
HETATM    3  C4  UNL     1      23.004   1.318  53.218  1.00  0.00    -0.040 A 
HETATM    4  C3  UNL     1      21.611   1.324  53.323  1.00  0.00     0.011 A 
HETATM    5  C2  UNL     1      20.858   0.281  53.826  1.00  0.00     0.037 A 
HETATM    6  C1  UNL     1      21.545  -0.841  54.251  1.00  0.00     0.065 A 
HETATM    7  C18 UNL     1      22.937  -0.878  54.159  1.00  0.00     0.037 A 
HETATM    8  C17 UNL     1      23.657   0.189  53.650  1.00  0.00     0.011 A 
BRANCH   6   9
HETATM    9  O1  UNL     1      20.804  -1.902  54.761  1.00  0.00    -0.361 OA
HETATM   10  H1  UNL     1      21.191  -2.775  55.063  1.00  0.00     0.217 HD
ENDBRANCH   6   9
ENDBRANCH   2   3
ENDBRANCH   1   2
BRANCH   1  11
HETATM   11  C6  UNL     1      25.509   1.581  51.216  1.00  0.00     0.302 C 
BRANCH  11  12
HETATM   12  O2  UNL     1      26.560   2.378  51.745  1.00  0.00    -0.336 OA
BRANCH  12  13
HETATM   13  C7  UNL     1      27.461   1.874  52.673  1.00  0.00     0.052 A 
HETATM   14  C8  UNL     1      27.351   0.542  52.795  1.00  0.00     0.032 A 
HETATM   15  C9  UNL     1      28.313   0.085  53.774  1.00  0.00    -0.001 A 
HETATM   16  C10 UNL     1      28.992   1.129  54.232  1.00  0.00    -0.020 A 
HETATM   17  C11 UNL     1      28.511   2.356  53.574  1.00  0.00     0.091 A 
ENDBRANCH  12  13
ENDBRANCH  11  12
ENDBRANCH   1  11
BRANCH   1  18
HETATM   18  C12 UNL     1      23.471   2.648  50.218  1.00  0.00     0.115 C 
HETATM   19  C13 UNL     1      23.600   3.722  49.461  1.00  0.00     0.033 C 
HETATM   20  C14 UNL     1      22.621   3.834  48.351  1.00  0.00     0.052 C 
HETATM   21  C15 UNL     1      22.552   2.507  47.623  1.00  0.00     0.025 C 
HETATM   22  C16 UNL     1      22.008   1.423  48.535  1.00  0.00     0.121 C 
HETATM   23  N2  UNL     1      22.430   1.691  49.926  1.00  0.00    -0.376 N 
HETATM   24  H19 UNL     1      21.950   1.166  50.663  1.00  0.00     0.161 HD
BRANCH  19  25
HETATM   25  S1  UNL     1      24.744   5.072  49.535  1.00  0.00    -0.048 SA
HETATM   26 BR1  UNL     1      26.850   4.528  49.054  1.00  0.00    -0.006 Br
ENDBRANCH  19  25
ENDBRANCH   1  18
TORSDOF 8
ENDMDL
MODEL 8
REMARK VINA RESULT:      -7.2      2.371      4.930
REMARK  8 active torsions:
REMARK  status: ('A' for Active; 'I' for Inactive)
REMARK    1  A    between atoms: O1_1  and  C1_2 
REMARK    2  A    between atoms: C4_5  and  C5_6 
REMARK    3  A    between atoms: C5_6  and  N1_7 
REMARK    4  A    between atoms: N1_7  and  C6_8 
REMARK    5  A    between atoms: N1_7  and  C12_15 
REMARK    6  A    between atoms: C6_8  and  O2_9 
REMARK    7  A    between atoms: O2_9  and  C7_10 
REMARK    8  A    between atoms: C13_16  and  S1_17 
ROOT
HETATM    1  N1  UNL     1      24.874   3.013  51.394  1.00  0.00    -0.341 N 
ENDROOT
BRANCH   1   2
HETATM    2  C5  UNL     1      26.086   2.440  50.842  1.00  0.00     0.165 C 
BRANCH   2   3
HETATM    3  C4  UNL     1      26.766   1.574  51.864  1.00  0.00    -0.040 A 
HETATM    4  C3  UNL     1      27.604   2.198  52.793  1.00  0.00     0.011 A 
HETATM    5  C2  UNL     1      28.297   1.540  53.791  1.00  0.00     0.037 A 
HETATM    6  C1  UNL     1      28.141   0.169  53.863  1.00  0.00     0.065 A 
HETATM    7  C18 UNL     1      27.312  -0.484  52.950  1.00  0.00     0.037 A 
HETATM    8  C17 UNL     1      26.634   0.210  51.963  1.00  0.00     0.011 A 
BRANCH   6   9
HETATM    9  O1  UNL     1      28.831  -0.512  54.861  1.00  0.00    -0.361 OA
HETATM   10  H1  UNL     1      28.782  -1.500  55.016  1.00  0.00     0.217 HD
ENDBRANCH   6   9
ENDBRANCH   2   3
ENDBRANCH   1   2
BRANCH   1  11
HETATM   11  C6  UNL     1      24.304   2.508  52.623  1.00  0.00     0.302 C 
BRANCH  11  12
HETATM   12  O2  UNL     1      23.263   1.575  52.367  1.00  0.00    -0.336 OA
BRANCH  12  13
HETATM   13  C7  UNL     1      22.955   0.561  53.265  1.00  0.00     0.052 A 
HETATM   14  C8  UNL     1      21.659   0.589  53.613  1.00  0.00     0.032 A 
HETATM   15  C9  UNL     1      21.407  -0.488  54.546  1.00  0.00    -0.001 A 
HETATM   16  C10 UNL     1      22.538  -1.153  54.753  1.00  0.00    -0.020 A 
HETATM   17  C11 UNL     1      23.619  -0.544  53.958  1.00  0.00     0.091 A 
ENDBRANCH  12  13
ENDBRANCH  11  12
ENDBRANCH   1  11
BRANCH   1  18
HETATM   18  C12 UNL     1      24.282   4.071  50.662  1.00  0.00     0.115 C 
HETATM   19  C13 UNL     1      23.516   4.023  49.588  1.00  0.00     0.033 C 
HETATM   20  C14 UNL     1      23.064   5.340  49.075  1.00  0.00     0.052 C 
HETATM   21  C15 UNL     1      22.542   6.165  50.234  1.00  0.00     0.025 C 
HETATM   22  C16 UNL     1      23.656   6.474  51.217  1.00  0.00     0.121 C 
HETATM   23  N2  UNL     1      24.615   5.350  51.244  1.00  0.00    -0.376 N 
HETATM   24  H19 UNL     1      25.519   5.526  51.693  1.00  0.00     0.161 HD
BRANCH  19  25
HETATM   25  S1  UNL     1      22.923   2.652  48.637  1.00  0.00    -0.048 SA
HETATM   26 BR1  UNL     1      21.213   1.558  49.555  1.00  0.00    -0.006 Br
ENDBRANCH  19  25
ENDBRANCH   1  18
TORSDOF 8
ENDMDL
MODEL 9
REMARK VINA RESULT:      -7.1      2.219      2.794
REMARK  8 active torsions:
REMARK  status: ('A' for Active; 'I' for Inactive)
REMARK    1  A    between atoms: O1_1  and  C1_2 
REMARK    2  A    between atoms: C4_5  and  C5_6 
REMARK    3  A    between atoms: C5_6  and  N1_7 
REMARK    4  A    between atoms: N1_7  and  C6_8 
REMARK    5  A    between atoms: N1_7  and  C12_15 
REMARK    6  A    between atoms: C6_8  and  O2_9 
REMARK    7  A    between atoms: O2_9  and  C7_10 
REMARK    8  A    between atoms: C13_16  and  S1_17 
ROOT
HETATM    1  N1  UNL     1      25.058   3.049  51.394  1.00  0.00    -0.341 N 
ENDROOT
BRANCH   1   2
HETATM    2  C5  UNL     1      24.267   3.110  52.608  1.00  0.00     0.165 C 
BRANCH   2   3
HETATM    3  C4  UNL     1      23.702   1.756  52.931  1.00  0.00    -0.040 A 
HETATM    4  C3  UNL     1      22.377   1.500  52.569  1.00  0.00     0.011 A 
HETATM    5  C2  UNL     1      21.716   0.309  52.798  1.00  0.00     0.037 A 
HETATM    6  C1  UNL     1      22.431  -0.692  53.429  1.00  0.00     0.065 A 
HETATM    7  C18 UNL     1      23.756  -0.469  53.803  1.00  0.00     0.037 A 
HETATM    8  C17 UNL     1      24.383   0.741  53.558  1.00  0.00     0.011 A 
BRANCH   6   9
HETATM    9  O1  UNL     1      21.783  -1.900  53.668  1.00  0.00    -0.361 OA
HETATM   10  H1  UNL     1      21.464  -2.208  54.566  1.00  0.00     0.217 HD
ENDBRANCH   6   9
ENDBRANCH   2   3
ENDBRANCH   1   2
BRANCH   1  11
HETATM   11  C6  UNL     1      26.092   2.052  51.229  1.00  0.00     0.302 C 
BRANCH  11  12
HETATM   12  O2  UNL     1      27.345   2.517  51.713  1.00  0.00    -0.336 OA
BRANCH  12  13
HETATM   13  C7  UNL     1      27.977   1.920  52.795  1.00  0.00     0.052 A 
HETATM   14  C8  UNL     1      27.729   0.601  52.844  1.00  0.00     0.032 A 
HETATM   15  C9  UNL     1      28.414   0.044  53.990  1.00  0.00    -0.001 A 
HETATM   16  C10 UNL     1      29.065   1.015  54.618  1.00  0.00    -0.020 A 
HETATM   17  C11 UNL     1      28.844   2.290  53.915  1.00  0.00     0.091 A 
ENDBRANCH  12  13
ENDBRANCH  11  12
ENDBRANCH   1  11
BRANCH   1  18
HETATM   18  C12 UNL     1      24.775   4.018  50.402  1.00  0.00     0.115 C 
HETATM   19  C13 UNL     1      23.832   4.022  49.478  1.00  0.00     0.033 C 
HETATM   20  C14 UNL     1      23.824   5.211  48.589  1.00  0.00     0.052 C 
HETATM   21  C15 UNL     1      23.934   6.460  49.441  1.00  0.00     0.025 C 
HETATM   22  C16 UNL     1      25.269   6.502  50.161  1.00  0.00     0.121 C 
HETATM   23  N2  UNL     1      25.698   5.126  50.484  1.00  0.00    -0.376 N 
HETATM   24  H19 UNL     1      26.675   5.002  50.767  1.00  0.00     0.161 HD
BRANCH  19  25
HETATM   25  S1  UNL     1      22.559   2.850  49.104  1.00  0.00    -0.048 SA
HETATM   26 BR1  UNL     1      20.533   3.416  49.836  1.00  0.00    -0.006 Br
ENDBRANCH  19  25
ENDBRANCH   1  18
TORSDOF 8
ENDMDL
