MODEL 1
REMARK VINA RESULT:      -9.9      0.000      0.000
REMARK  7 active torsions:
REMARK  status: ('A' for Active; 'I' for Inactive)
REMARK    1  A    between atoms: N3_6  and  C4_7 
REMARK    2  A    between atoms: C7_10  and  O1_11 
REMARK    3  A    between atoms: O1_11  and  C8_12 
REMARK    4  A    between atoms: C8_12  and  C9_13 
REMARK    5  A    between atoms: C18_24  and  C19_25 
REMARK    6  A    between atoms: C20_26  and  C21_27 
REMARK    7  A    between atoms: C24_30  and  O2_31 
ROOT
HETATM    1  C1  UNL     1      28.657   8.175  48.172  1.00  0.00     0.072 C 
HETATM    2  C2  UNL     1      27.557   7.199  48.274  1.00  0.00     0.052 C 
HETATM    3  N1  UNL     1      26.335   7.568  48.244  1.00  0.00    -0.244 NA
HETATM    4  C3  UNL     1      25.135   6.783  48.328  1.00  0.00     0.255 C 
HETATM    5  N2  UNL     1      24.986   5.547  48.743  1.00  0.00    -0.161 NA
HETATM    6  N3  UNL     1      25.986   4.663  49.220  1.00  0.00    -0.243 N 
HETATM    7  C17 UNL     1      27.344   4.764  48.807  1.00  0.00     0.141 C 
HETATM    8  C18 UNL     1      28.027   5.824  48.404  1.00  0.00     0.059 C 
ENDROOT
BRANCH   6   9
HETATM    9  C4  UNL     1      25.561   3.662  50.133  1.00  0.00     0.059 A 
HETATM   10  C5  UNL     1      26.509   2.715  50.457  1.00  0.00     0.034 A 
HETATM   11  C6  UNL     1      26.224   1.693  51.327  1.00  0.00     0.041 A 
HETATM   12  C7  UNL     1      25.002   1.537  51.927  1.00  0.00     0.091 A 
HETATM   13  C15 UNL     1      24.037   2.506  51.594  1.00  0.00     0.069 A 
HETATM   14 CL1  UNL     1      22.369   2.610  52.181  1.00  0.00    -0.081 Cl
HETATM   15  C16 UNL     1      24.316   3.555  50.707  1.00  0.00     0.058 A 
BRANCH  12  16
HETATM   16  O1  UNL     1      24.409   0.683  52.796  1.00  0.00    -0.345 OA
BRANCH  16  17
HETATM   17  C8  UNL     1      24.923  -0.421  53.445  1.00  0.00     0.214 C 
BRANCH  17  18
HETATM   18  C9  UNL     1      26.371  -0.392  53.706  1.00  0.00    -0.031 A 
HETATM   19  C10 UNL     1      27.068  -1.350  52.959  1.00  0.00     0.009 A 
HETATM   20  C11 UNL     1      28.429  -1.550  53.021  1.00  0.00     0.004 A 
HETATM   21  C12 UNL     1      29.182  -0.768  53.868  1.00  0.00     0.042 A 
HETATM   22  C13 UNL     1      28.527   0.179  54.613  1.00  0.00     0.117 A 
HETATM   23  F1  UNL     1      29.157   1.012  55.482  1.00  0.00    -0.206 F 
HETATM   24  C14 UNL     1      27.165   0.353  54.528  1.00  0.00     0.051 A 
ENDBRANCH  17  18
ENDBRANCH  16  17
ENDBRANCH  12  16
ENDBRANCH   6   9
BRANCH   8  25
HETATM   25  C19 UNL     1      29.393   5.509  48.070  1.00  0.00    -0.063 C 
HETATM   26  C20 UNL     1      30.530   5.239  47.812  1.00  0.00    -0.096 C 
BRANCH  26  27
HETATM   27  C21 UNL     1      31.928   4.922  47.516  1.00  0.00     0.068 C 
HETATM   28  C22 UNL     1      32.083   3.710  46.636  1.00  0.00     0.020 C 
HETATM   29  C23 UNL     1      32.867   4.175  45.424  1.00  0.00     0.033 C 
HETATM   30  C24 UNL     1      33.598   5.380  45.962  1.00  0.00     0.119 C 
HETATM   31  C25 UNL     1      32.481   6.092  46.728  1.00  0.00     0.048 C 
BRANCH  30  32
HETATM   32  O2  UNL     1      34.559   4.939  46.889  1.00  0.00    -0.396 OA
HETATM   33  H21 UNL     1      34.674   5.596  47.617  1.00  0.00     0.210 HD
ENDBRANCH  30  32
ENDBRANCH  26  27
ENDBRANCH   8  25
TORSDOF 7
ENDMDL
MODEL 2
REMARK VINA RESULT:      -9.6      3.021      8.438
REMARK  7 active torsions:
REMARK  status: ('A' for Active; 'I' for Inactive)
REMARK    1  A    between atoms: N3_6  and  C4_7 
REMARK    2  A    between atoms: C7_10  and  O1_11 
REMARK    3  A    between atoms: O1_11  and  C8_12 
REMARK    4  A    between atoms: C8_12  and  C9_13 
REMARK    5  A    between atoms: C18_24  and  C19_25 
REMARK    6  A    between atoms: C20_26  and  C21_27 
REMARK    7  A    between atoms: C24_30  and  O2_31 
ROOT
HETATM    1  C1  UNL     1      22.775   2.308  49.322  1.00  0.00     0.072 C 
HETATM    2  C2  UNL     1      23.509   3.579  49.193  1.00  0.00     0.052 C 
HETATM    3  N1  UNL     1      23.046   4.548  48.501  1.00  0.00    -0.244 NA
HETATM    4  C3  UNL     1      23.602   5.849  48.255  1.00  0.00     0.255 C 
HETATM    5  N2  UNL     1      24.834   6.266  48.427  1.00  0.00    -0.161 NA
HETATM    6  N3  UNL     1      25.944   5.526  48.908  1.00  0.00    -0.243 N 
HETATM    7  C17 UNL     1      25.790   4.419  49.788  1.00  0.00     0.141 C 
HETATM    8  C18 UNL     1      24.771   3.585  49.925  1.00  0.00     0.059 C 
ENDROOT
BRANCH   6   9
HETATM    9  C4  UNL     1      27.225   5.949  48.466  1.00  0.00     0.059 A 
HETATM   10  C5  UNL     1      28.216   4.993  48.519  1.00  0.00     0.034 A 
HETATM   11  C6  UNL     1      29.498   5.275  48.123  1.00  0.00     0.041 A 
HETATM   12  C7  UNL     1      29.886   6.504  47.655  1.00  0.00     0.091 A 
HETATM   13  C15 UNL     1      28.871   7.478  47.602  1.00  0.00     0.069 A 
HETATM   14 CL1  UNL     1      29.018   9.156  47.054  1.00  0.00    -0.081 Cl
HETATM   15  C16 UNL     1      27.557   7.201  48.003  1.00  0.00     0.058 A 
BRANCH  12  16
HETATM   16  O1  UNL     1      31.016   7.097  47.200  1.00  0.00    -0.345 OA
BRANCH  16  17
HETATM   17  C8  UNL     1      31.962   6.636  46.308  1.00  0.00     0.214 C 
BRANCH  17  18
HETATM   18  C9  UNL     1      32.948   5.690  46.854  1.00  0.00    -0.031 A 
HETATM   19  C10 UNL     1      32.864   4.427  46.254  1.00  0.00     0.009 A 
HETATM   20  C11 UNL     1      33.657   3.350  46.586  1.00  0.00     0.004 A 
HETATM   21  C12 UNL     1      34.606   3.498  47.573  1.00  0.00     0.042 A 
HETATM   22  C13 UNL     1      34.710   4.724  48.179  1.00  0.00     0.117 A 
HETATM   23  F1  UNL     1      35.606   4.995  49.163  1.00  0.00    -0.206 F 
HETATM   24  C14 UNL     1      33.902   5.779  47.824  1.00  0.00     0.051 A 
ENDBRANCH  17  18
ENDBRANCH  16  17
ENDBRANCH  12  16
ENDBRANCH   6   9
BRANCH   8  25
HETATM   25  C19 UNL     1      25.005   2.585  50.936  1.00  0.00    -0.063 C 
HETATM   26  C20 UNL     1      25.216   1.766  51.784  1.00  0.00    -0.096 C 
BRANCH  26  27
HETATM   27  C21 UNL     1      25.496   0.763  52.812  1.00  0.00     0.068 C 
HETATM   28  C22 UNL     1      26.473  -0.289  52.357  1.00  0.00     0.020 C 
HETATM   29  C23 UNL     1      27.616  -0.252  53.353  1.00  0.00     0.033 C 
HETATM   30  C24 UNL     1      26.954   0.335  54.575  1.00  0.00     0.119 C 
HETATM   31  C25 UNL     1      26.163   1.492  53.961  1.00  0.00     0.048 C 
BRANCH  30  32
HETATM   32  O2  UNL     1      26.040  -0.607  55.080  1.00  0.00    -0.396 OA
HETATM   33  H21 UNL     1      25.345  -0.166  55.627  1.00  0.00     0.210 HD
ENDBRANCH  30  32
ENDBRANCH  26  27
ENDBRANCH   8  25
TORSDOF 7
ENDMDL
MODEL 3
REMARK VINA RESULT:      -9.6      1.044      1.289
REMARK  7 active torsions:
REMARK  status: ('A' for Active; 'I' for Inactive)
REMARK    1  A    between atoms: N3_6  and  C4_7 
REMARK    2  A    between atoms: C7_10  and  O1_11 
REMARK    3  A    between atoms: O1_11  and  C8_12 
REMARK    4  A    between atoms: C8_12  and  C9_13 
REMARK    5  A    between atoms: C18_24  and  C19_25 
REMARK    6  A    between atoms: C20_26  and  C21_27 
REMARK    7  A    between atoms: C24_30  and  O2_31 
ROOT
HETATM    1  C1  UNL     1      29.800   8.253  48.070  1.00  0.00     0.072 C 
HETATM    2  C2  UNL     1      28.551   7.477  48.169  1.00  0.00     0.052 C 
HETATM    3  N1  UNL     1      27.412   8.052  48.217  1.00  0.00    -0.244 NA
HETATM    4  C3  UNL     1      26.098   7.481  48.314  1.00  0.00     0.255 C 
HETATM    5  N2  UNL     1      25.750   6.266  48.667  1.00  0.00    -0.161 NA
HETATM    6  N3  UNL     1      26.597   5.195  49.047  1.00  0.00    -0.243 N 
HETATM    7  C17 UNL     1      27.936   5.087  48.578  1.00  0.00     0.141 C 
HETATM    8  C18 UNL     1      28.778   6.036  48.203  1.00  0.00     0.059 C 
ENDROOT
BRANCH   6   9
HETATM    9  C4  UNL     1      26.037   4.228  49.923  1.00  0.00     0.059 A 
HETATM   10  C5  UNL     1      26.751   3.055  50.045  1.00  0.00     0.034 A 
HETATM   11  C6  UNL     1      26.317   2.040  50.858  1.00  0.00     0.041 A 
HETATM   12  C7  UNL     1      25.165   2.109  51.595  1.00  0.00     0.091 A 
HETATM   13  C15 UNL     1      24.438   3.309  51.469  1.00  0.00     0.069 A 
HETATM   14 CL1  UNL     1      22.918   3.736  52.272  1.00  0.00    -0.081 Cl
HETATM   15  C16 UNL     1      24.872   4.354  50.642  1.00  0.00     0.058 A 
BRANCH  12  16
HETATM   16  O1  UNL     1      24.475   1.328  52.461  1.00  0.00    -0.345 OA
BRANCH  16  17
HETATM   17  C8  UNL     1      24.791   0.092  52.987  1.00  0.00     0.214 C 
BRANCH  17  18
HETATM   18  C9  UNL     1      26.201  -0.099  53.365  1.00  0.00    -0.031 A 
HETATM   19  C10 UNL     1      26.782  -1.196  52.718  1.00  0.00     0.009 A 
HETATM   20  C11 UNL     1      28.084  -1.610  52.900  1.00  0.00     0.004 A 
HETATM   21  C12 UNL     1      28.890  -0.915  53.773  1.00  0.00     0.042 A 
HETATM   22  C13 UNL     1      28.347   0.164  54.422  1.00  0.00     0.117 A 
HETATM   23  F1  UNL     1      29.040   0.930  55.305  1.00  0.00    -0.206 F 
HETATM   24  C14 UNL     1      27.043   0.552  54.217  1.00  0.00     0.051 A 
ENDBRANCH  17  18
ENDBRANCH  16  17
ENDBRANCH  12  16
ENDBRANCH   6   9
BRANCH   8  25
HETATM   25  C19 UNL     1      30.055   5.512  47.789  1.00  0.00    -0.063 C 
HETATM   26  C20 UNL     1      31.123   5.097  47.440  1.00  0.00    -0.096 C 
BRANCH  26  27
HETATM   27  C21 UNL     1      32.424   4.600  46.992  1.00  0.00     0.068 C 
HETATM   28  C22 UNL     1      33.553   5.551  47.292  1.00  0.00     0.020 C 
HETATM   29  C23 UNL     1      34.545   4.767  48.128  1.00  0.00     0.033 C 
HETATM   30  C24 UNL     1      34.236   3.343  47.737  1.00  0.00     0.119 C 
HETATM   31  C25 UNL     1      32.707   3.342  47.790  1.00  0.00     0.048 C 
BRANCH  30  32
HETATM   32  O2  UNL     1      34.632   3.154  46.401  1.00  0.00    -0.396 OA
HETATM   33  H21 UNL     1      33.854   3.192  45.794  1.00  0.00     0.210 HD
ENDBRANCH  30  32
ENDBRANCH  26  27
ENDBRANCH   8  25
TORSDOF 7
ENDMDL
MODEL 4
REMARK VINA RESULT:      -9.4      2.842      3.642
REMARK  7 active torsions:
REMARK  status: ('A' for Active; 'I' for Inactive)
REMARK    1  A    between atoms: N3_6  and  C4_7 
REMARK    2  A    between atoms: C7_10  and  O1_11 
REMARK    3  A    between atoms: O1_11  and  C8_12 
REMARK    4  A    between atoms: C8_12  and  C9_13 
REMARK    5  A    between atoms: C18_24  and  C19_25 
REMARK    6  A    between atoms: C20_26  and  C21_27 
REMARK    7  A    between atoms: C24_30  and  O2_31 
ROOT
HETATM    1  C1  UNL     1      30.646   8.495  48.390  1.00  0.00     0.072 C 
HETATM    2  C2  UNL     1      29.315   7.882  48.236  1.00  0.00     0.052 C 
HETATM    3  N1  UNL     1      28.251   8.587  48.256  1.00  0.00    -0.244 NA
HETATM    4  C3  UNL     1      26.878   8.184  48.125  1.00  0.00     0.255 C 
HETATM    5  N2  UNL     1      26.356   6.987  48.245  1.00  0.00    -0.161 NA
HETATM    6  N3  UNL     1      27.023   5.771  48.538  1.00  0.00    -0.243 N 
HETATM    7  C17 UNL     1      28.388   5.558  48.198  1.00  0.00     0.141 C 
HETATM    8  C18 UNL     1      29.372   6.434  48.065  1.00  0.00     0.059 C 
ENDROOT
BRANCH   6   9
HETATM    9  C4  UNL     1      26.256   4.769  49.189  1.00  0.00     0.059 A 
HETATM   10  C5  UNL     1      24.889   4.890  49.055  1.00  0.00     0.034 A 
HETATM   11  C6  UNL     1      24.036   3.988  49.637  1.00  0.00     0.041 A 
HETATM   12  C7  UNL     1      24.466   2.921  50.382  1.00  0.00     0.091 A 
HETATM   13  C15 UNL     1      25.862   2.801  50.516  1.00  0.00     0.069 A 
HETATM   14 CL1  UNL     1      26.755   1.553  51.401  1.00  0.00    -0.081 Cl
HETATM   15  C16 UNL     1      26.744   3.716  49.925  1.00  0.00     0.058 A 
BRANCH  12  16
HETATM   16  O1  UNL     1      23.921   1.886  51.067  1.00  0.00    -0.345 OA
BRANCH  16  17
HETATM   17  C8  UNL     1      22.650   1.733  51.580  1.00  0.00     0.214 C 
BRANCH  17  18
HETATM   18  C9  UNL     1      22.494   0.680  52.596  1.00  0.00    -0.031 A 
HETATM   19  C10 UNL     1      23.694   0.397  53.259  1.00  0.00     0.009 A 
HETATM   20  C11 UNL     1      23.835  -0.556  54.245  1.00  0.00     0.004 A 
HETATM   21  C12 UNL     1      22.737  -1.295  54.622  1.00  0.00     0.042 A 
HETATM   22  C13 UNL     1      21.548  -1.040  53.990  1.00  0.00     0.117 A 
HETATM   23  F1  UNL     1      20.394  -1.700  54.274  1.00  0.00    -0.206 F 
HETATM   24  C14 UNL     1      21.440  -0.081  53.009  1.00  0.00     0.051 A 
ENDBRANCH  17  18
ENDBRANCH  16  17
ENDBRANCH  12  16
ENDBRANCH   6   9
BRANCH   8  25
HETATM   25  C19 UNL     1      30.623   5.813  47.708  1.00  0.00    -0.063 C 
HETATM   26  C20 UNL     1      31.668   5.317  47.403  1.00  0.00    -0.096 C 
BRANCH  26  27
HETATM   27  C21 UNL     1      32.942   4.715  47.007  1.00  0.00     0.068 C 
HETATM   28  C22 UNL     1      34.134   5.543  47.408  1.00  0.00     0.020 C 
HETATM   29  C23 UNL     1      34.999   4.638  48.264  1.00  0.00     0.033 C 
HETATM   30  C24 UNL     1      34.583   3.266  47.796  1.00  0.00     0.119 C 
HETATM   31  C25 UNL     1      33.060   3.408  47.765  1.00  0.00     0.048 C 
BRANCH  30  32
HETATM   32  O2  UNL     1      35.038   3.090  46.477  1.00  0.00    -0.396 OA
HETATM   33  H21 UNL     1      35.621   3.839  46.202  1.00  0.00     0.210 HD
ENDBRANCH  30  32
ENDBRANCH  26  27
ENDBRANCH   8  25
TORSDOF 7
ENDMDL
MODEL 5
REMARK VINA RESULT:      -9.1      3.920      9.424
REMARK  7 active torsions:
REMARK  status: ('A' for Active; 'I' for Inactive)
REMARK    1  A    between atoms: N3_6  and  C4_7 
REMARK    2  A    between atoms: C7_10  and  O1_11 
REMARK    3  A    between atoms: O1_11  and  C8_12 
REMARK    4  A    between atoms: C8_12  and  C9_13 
REMARK    5  A    between atoms: C18_24  and  C19_25 
REMARK    6  A    between atoms: C20_26  and  C21_27 
REMARK    7  A    between atoms: C24_30  and  O2_31 
ROOT
HETATM    1  C1  UNL     1      22.424   1.865  49.646  1.00  0.00     0.072 C 
HETATM    2  C2  UNL     1      23.062   3.182  49.473  1.00  0.00     0.052 C 
HETATM    3  N1  UNL     1      22.508   4.104  48.786  1.00  0.00    -0.244 NA
HETATM    4  C3  UNL     1      22.962   5.437  48.502  1.00  0.00     0.255 C 
HETATM    5  N2  UNL     1      24.167   5.941  48.623  1.00  0.00    -0.161 NA
HETATM    6  N3  UNL     1      25.342   5.288  49.072  1.00  0.00    -0.243 N 
HETATM    7  C17 UNL     1      25.298   4.187  49.972  1.00  0.00     0.141 C 
HETATM    8  C18 UNL     1      24.347   3.286  50.157  1.00  0.00     0.059 C 
ENDROOT
BRANCH   6   9
HETATM    9  C4  UNL     1      26.574   5.793  48.577  1.00  0.00     0.059 A 
HETATM   10  C5  UNL     1      27.657   4.952  48.716  1.00  0.00     0.034 A 
HETATM   11  C6  UNL     1      28.904   5.322  48.282  1.00  0.00     0.041 A 
HETATM   12  C7  UNL     1      29.165   6.530  47.690  1.00  0.00     0.091 A 
HETATM   13  C15 UNL     1      28.056   7.386  47.549  1.00  0.00     0.069 A 
HETATM   14 CL1  UNL     1      28.032   9.007  46.835  1.00  0.00    -0.081 Cl
HETATM   15  C16 UNL     1      26.777   7.019  47.989  1.00  0.00     0.058 A 
BRANCH  12  16
HETATM   16  O1  UNL     1      30.229   7.186  47.167  1.00  0.00    -0.345 OA
BRANCH  16  17
HETATM   17  C8  UNL     1      31.365   7.668  47.785  1.00  0.00     0.214 C 
BRANCH  17  18
HETATM   18  C9  UNL     1      31.509   9.133  47.802  1.00  0.00    -0.031 A 
HETATM   19  C10 UNL     1      30.815   9.724  48.865  1.00  0.00     0.009 A 
HETATM   20  C11 UNL     1      30.768  11.080  49.108  1.00  0.00     0.004 A 
HETATM   21  C12 UNL     1      31.440  11.934  48.264  1.00  0.00     0.042 A 
HETATM   22  C13 UNL     1      32.128  11.383  47.214  1.00  0.00     0.117 A 
HETATM   23  F1  UNL     1      32.830  12.120  46.313  1.00  0.00    -0.206 F 
HETATM   24  C14 UNL     1      32.155  10.025  46.998  1.00  0.00     0.051 A 
ENDBRANCH  17  18
ENDBRANCH  16  17
ENDBRANCH  12  16
ENDBRANCH   6   9
BRANCH   8  25
HETATM   25  C19 UNL     1      24.686   2.322  51.173  1.00  0.00    -0.063 C 
HETATM   26  C20 UNL     1      24.952   1.527  52.029  1.00  0.00    -0.096 C 
BRANCH  26  27
HETATM   27  C21 UNL     1      25.279   0.575  53.090  1.00  0.00     0.068 C 
HETATM   28  C22 UNL     1      26.125  -0.575  52.610  1.00  0.00     0.020 C 
HETATM   29  C23 UNL     1      27.374  -0.559  53.470  1.00  0.00     0.033 C 
HETATM   30  C24 UNL     1      26.896   0.154  54.711  1.00  0.00     0.119 C 
HETATM   31  C25 UNL     1      26.120   1.325  54.103  1.00  0.00     0.048 C 
BRANCH  30  32
HETATM   32  O2  UNL     1      25.984  -0.681  55.380  1.00  0.00    -0.396 OA
HETATM   33  H21 UNL     1      25.686  -0.271  56.227  1.00  0.00     0.210 HD
ENDBRANCH  30  32
ENDBRANCH  26  27
ENDBRANCH   8  25
TORSDOF 7
ENDMDL
MODEL 6
REMARK VINA RESULT:      -8.9      3.416      9.435
REMARK  7 active torsions:
REMARK  status: ('A' for Active; 'I' for Inactive)
REMARK    1  A    between atoms: N3_6  and  C4_7 
REMARK    2  A    between atoms: C7_10  and  O1_11 
REMARK    3  A    between atoms: O1_11  and  C8_12 
REMARK    4  A    between atoms: C8_12  and  C9_13 
REMARK    5  A    between atoms: C18_24  and  C19_25 
REMARK    6  A    between atoms: C20_26  and  C21_27 
REMARK    7  A    between atoms: C24_30  and  O2_31 
ROOT
HETATM    1  C1  UNL     1      23.592   2.749  49.449  1.00  0.00     0.072 C 
HETATM    2  C2  UNL     1      24.384   3.984  49.312  1.00  0.00     0.052 C 
HETATM    3  N1  UNL     1      23.884   5.041  48.799  1.00  0.00    -0.244 NA
HETATM    4  C3  UNL     1      24.484   6.328  48.581  1.00  0.00     0.255 C 
HETATM    5  N2  UNL     1      25.754   6.657  48.578  1.00  0.00    -0.161 NA
HETATM    6  N3  UNL     1      26.871   5.812  48.795  1.00  0.00    -0.243 N 
HETATM    7  C17 UNL     1      26.785   4.632  49.585  1.00  0.00     0.141 C 
HETATM    8  C18 UNL     1      25.746   3.846  49.817  1.00  0.00     0.059 C 
ENDROOT
BRANCH   6   9
HETATM    9  C4  UNL     1      28.091   6.207  48.182  1.00  0.00     0.059 A 
HETATM   10  C5  UNL     1      28.043   7.390  47.478  1.00  0.00     0.034 A 
HETATM   11  C6  UNL     1      29.152   7.881  46.837  1.00  0.00     0.041 A 
HETATM   12  C7  UNL     1      30.367   7.246  46.847  1.00  0.00     0.091 A 
HETATM   13  C15 UNL     1      30.411   6.038  47.568  1.00  0.00     0.069 A 
HETATM   14 CL1  UNL     1      31.805   4.966  47.788  1.00  0.00    -0.081 Cl
HETATM   15  C16 UNL     1      29.284   5.526  48.226  1.00  0.00     0.058 A 
BRANCH  12  16
HETATM   16  O1  UNL     1      31.609   7.442  46.344  1.00  0.00    -0.345 OA
BRANCH  16  17
HETATM   17  C8  UNL     1      32.015   7.669  45.045  1.00  0.00     0.214 C 
BRANCH  17  18
HETATM   18  C9  UNL     1      32.766   6.574  44.410  1.00  0.00    -0.031 A 
HETATM   19  C10 UNL     1      32.486   6.457  43.043  1.00  0.00     0.009 A 
HETATM   20  C11 UNL     1      33.040   5.508  42.211  1.00  0.00     0.004 A 
HETATM   21  C12 UNL     1      33.931   4.599  42.735  1.00  0.00     0.042 A 
HETATM   22  C13 UNL     1      34.224   4.689  44.071  1.00  0.00     0.117 A 
HETATM   23  F1  UNL     1      35.088   3.852  44.704  1.00  0.00    -0.206 F 
HETATM   24  C14 UNL     1      33.654   5.649  44.875  1.00  0.00     0.051 A 
ENDBRANCH  17  18
ENDBRANCH  16  17
ENDBRANCH  12  16
ENDBRANCH   6   9
BRANCH   8  25
HETATM   25  C19 UNL     1      26.070   2.738  50.680  1.00  0.00    -0.063 C 
HETATM   26  C20 UNL     1      26.354   1.811  51.382  1.00  0.00    -0.096 C 
BRANCH  26  27
HETATM   27  C21 UNL     1      26.695   0.662  52.223  1.00  0.00     0.068 C 
HETATM   28  C22 UNL     1      27.460   1.046  53.462  1.00  0.00     0.020 C 
HETATM   29  C23 UNL     1      26.648   0.522  54.630  1.00  0.00     0.033 C 
HETATM   30  C24 UNL     1      25.861  -0.597  53.993  1.00  0.00     0.119 C 
HETATM   31  C25 UNL     1      25.385   0.069  52.700  1.00  0.00     0.048 C 
BRANCH  30  32
HETATM   32  O2  UNL     1      26.752  -1.631  53.656  1.00  0.00    -0.396 OA
HETATM   33  H21 UNL     1      27.005  -1.581  52.703  1.00  0.00     0.210 HD
ENDBRANCH  30  32
ENDBRANCH  26  27
ENDBRANCH   8  25
TORSDOF 7
ENDMDL
MODEL 7
REMARK VINA RESULT:      -8.7      6.677     11.799
REMARK  7 active torsions:
REMARK  status: ('A' for Active; 'I' for Inactive)
REMARK    1  A    between atoms: N3_6  and  C4_7 
REMARK    2  A    between atoms: C7_10  and  O1_11 
REMARK    3  A    between atoms: O1_11  and  C8_12 
REMARK    4  A    between atoms: C8_12  and  C9_13 
REMARK    5  A    between atoms: C18_24  and  C19_25 
REMARK    6  A    between atoms: C20_26  and  C21_27 
REMARK    7  A    between atoms: C24_30  and  O2_31 
ROOT
HETATM    1  C1  UNL     1      15.878  -0.134  49.730  1.00  0.00     0.072 C 
HETATM    2  C2  UNL     1      16.950   0.534  50.488  1.00  0.00     0.052 C 
HETATM    3  N1  UNL     1      17.396   1.679  50.141  1.00  0.00    -0.244 NA
HETATM    4  C3  UNL     1      18.423   2.486  50.739  1.00  0.00     0.255 C 
HETATM    5  N2  UNL     1      19.350   2.136  51.599  1.00  0.00    -0.161 NA
HETATM    6  N3  UNL     1      19.574   0.855  52.163  1.00  0.00    -0.243 N 
HETATM    7  C17 UNL     1      18.527  -0.093  52.327  1.00  0.00     0.141 C 
HETATM    8  C18 UNL     1      17.411  -0.246  51.632  1.00  0.00     0.059 C 
ENDROOT
BRANCH   6   9
HETATM    9  C4  UNL     1      20.906   0.565  52.562  1.00  0.00     0.059 A 
HETATM   10  C5  UNL     1      21.894   1.131  51.784  1.00  0.00     0.034 A 
HETATM   11  C6  UNL     1      23.221   0.926  52.062  1.00  0.00     0.041 A 
HETATM   12  C7  UNL     1      23.659   0.159  53.110  1.00  0.00     0.091 A 
HETATM   13  C15 UNL     1      22.648  -0.416  53.902  1.00  0.00     0.069 A 
HETATM   14 CL1  UNL     1      22.853  -1.454  55.323  1.00  0.00    -0.081 Cl
HETATM   15  C16 UNL     1      21.288  -0.214  53.629  1.00  0.00     0.058 A 
BRANCH  12  16
HETATM   16  O1  UNL     1      24.840  -0.233  53.645  1.00  0.00    -0.345 OA
BRANCH  16  17
HETATM   17  C8  UNL     1      25.907  -0.885  53.061  1.00  0.00     0.214 C 
BRANCH  17  18
HETATM   18  C9  UNL     1      27.229  -0.285  53.298  1.00  0.00    -0.031 A 
HETATM   19  C10 UNL     1      28.263  -1.228  53.230  1.00  0.00     0.009 A 
HETATM   20  C11 UNL     1      29.596  -0.941  53.428  1.00  0.00     0.004 A 
HETATM   21  C12 UNL     1      29.965   0.354  53.714  1.00  0.00     0.042 A 
HETATM   22  C13 UNL     1      28.975   1.299  53.788  1.00  0.00     0.117 A 
HETATM   23  F1  UNL     1      29.211   2.609  54.061  1.00  0.00    -0.206 F 
HETATM   24  C14 UNL     1      27.652   0.979  53.585  1.00  0.00     0.051 A 
ENDBRANCH  17  18
ENDBRANCH  16  17
ENDBRANCH  12  16
ENDBRANCH   6   9
BRANCH   8  25
HETATM   25  C19 UNL     1      16.600  -1.334  52.117  1.00  0.00    -0.063 C 
HETATM   26  C20 UNL     1      15.910  -2.231  52.508  1.00  0.00    -0.096 C 
BRANCH  26  27
HETATM   27  C21 UNL     1      15.050  -3.312  52.992  1.00  0.00     0.068 C 
HETATM   28  C22 UNL     1      14.171  -3.892  51.916  1.00  0.00     0.020 C 
HETATM   29  C23 UNL     1      14.489  -5.374  51.873  1.00  0.00     0.033 C 
HETATM   30  C24 UNL     1      15.026  -5.623  53.261  1.00  0.00     0.119 C 
HETATM   31  C25 UNL     1      15.969  -4.431  53.438  1.00  0.00     0.048 C 
BRANCH  30  32
HETATM   32  O2  UNL     1      13.967  -5.489  54.177  1.00  0.00    -0.396 OA
HETATM   33  H21 UNL     1      14.169  -4.794  54.850  1.00  0.00     0.210 HD
ENDBRANCH  30  32
ENDBRANCH  26  27
ENDBRANCH   8  25
TORSDOF 7
ENDMDL
MODEL 8
REMARK VINA RESULT:      -8.7      6.448      8.951
REMARK  7 active torsions:
REMARK  status: ('A' for Active; 'I' for Inactive)
REMARK    1  A    between atoms: N3_6  and  C4_7 
REMARK    2  A    between atoms: C7_10  and  O1_11 
REMARK    3  A    between atoms: O1_11  and  C8_12 
REMARK    4  A    between atoms: C8_12  and  C9_13 
REMARK    5  A    between atoms: C18_24  and  C19_25 
REMARK    6  A    between atoms: C20_26  and  C21_27 
REMARK    7  A    between atoms: C24_30  and  O2_31 
ROOT
HETATM    1  C1  UNL     1      25.136   4.392  50.149  1.00  0.00     0.072 C 
HETATM    2  C2  UNL     1      24.139   3.360  49.819  1.00  0.00     0.052 C 
HETATM    3  N1  UNL     1      23.480   3.397  48.726  1.00  0.00    -0.244 NA
HETATM    4  C3  UNL     1      22.478   2.498  48.226  1.00  0.00     0.255 C 
HETATM    5  N2  UNL     1      21.784   1.593  48.875  1.00  0.00    -0.161 NA
HETATM    6  N3  UNL     1      21.850   1.270  50.253  1.00  0.00    -0.243 N 
HETATM    7  C17 UNL     1      23.033   1.463  51.019  1.00  0.00     0.141 C 
HETATM    8  C18 UNL     1      24.012   2.339  50.854  1.00  0.00     0.059 C 
ENDROOT
BRANCH   6   9
HETATM    9  C4  UNL     1      20.669   0.736  50.835  1.00  0.00     0.059 A 
HETATM   10  C5  UNL     1      19.507   0.964  50.130  1.00  0.00     0.034 A 
HETATM   11  C6  UNL     1      18.298   0.504  50.585  1.00  0.00     0.041 A 
HETATM   12  C7  UNL     1      18.154  -0.202  51.751  1.00  0.00     0.091 A 
HETATM   13  C15 UNL     1      19.344  -0.433  52.468  1.00  0.00     0.069 A 
HETATM   14 CL1  UNL     1      19.525  -1.303  54.001  1.00  0.00    -0.081 Cl
HETATM   15  C16 UNL     1      20.585   0.032  52.013  1.00  0.00     0.058 A 
BRANCH  12  16
HETATM   16  O1  UNL     1      17.156  -0.779  52.462  1.00  0.00    -0.345 OA
BRANCH  16  17
HETATM   17  C8  UNL     1      15.997  -1.390  52.029  1.00  0.00     0.214 C 
BRANCH  17  18
HETATM   18  C9  UNL     1      15.798  -2.776  52.480  1.00  0.00    -0.031 A 
HETATM   19  C10 UNL     1      16.815  -3.207  53.343  1.00  0.00     0.009 A 
HETATM   20  C11 UNL     1      16.884  -4.466  53.900  1.00  0.00     0.004 A 
HETATM   21  C12 UNL     1      15.900  -5.382  53.606  1.00  0.00     0.042 A 
HETATM   22  C13 UNL     1      14.892  -4.988  52.764  1.00  0.00     0.117 A 
HETATM   23  F1  UNL     1      13.865  -5.799  52.400  1.00  0.00    -0.206 F 
HETATM   24  C14 UNL     1      14.852  -3.724  52.224  1.00  0.00     0.051 A 
ENDBRANCH  17  18
ENDBRANCH  16  17
ENDBRANCH  12  16
ENDBRANCH   6   9
BRANCH   8  25
HETATM   25  C19 UNL     1      25.044   2.213  51.852  1.00  0.00    -0.063 C 
HETATM   26  C20 UNL     1      25.903   2.130  52.681  1.00  0.00    -0.096 C 
BRANCH  26  27
HETATM   27  C21 UNL     1      26.969   2.039  53.679  1.00  0.00     0.068 C 
HETATM   28  C22 UNL     1      26.925   0.761  54.474  1.00  0.00     0.020 C 
HETATM   29  C23 UNL     1      28.277   0.103  54.279  1.00  0.00     0.033 C 
HETATM   30  C24 UNL     1      29.155   1.280  53.931  1.00  0.00     0.119 C 
HETATM   31  C25 UNL     1      28.279   2.019  52.916  1.00  0.00     0.048 C 
BRANCH  30  32
HETATM   32  O2  UNL     1      29.287   2.089  55.073  1.00  0.00    -0.396 OA
HETATM   33  H21 UNL     1      28.585   2.784  55.096  1.00  0.00     0.210 HD
ENDBRANCH  30  32
ENDBRANCH  26  27
ENDBRANCH   8  25
TORSDOF 7
ENDMDL
MODEL 9
REMARK VINA RESULT:      -8.7      4.596     10.518
REMARK  7 active torsions:
REMARK  status: ('A' for Active; 'I' for Inactive)
REMARK    1  A    between atoms: N3_6  and  C4_7 
REMARK    2  A    between atoms: C7_10  and  O1_11 
REMARK    3  A    between atoms: O1_11  and  C8_12 
REMARK    4  A    between atoms: C8_12  and  C9_13 
REMARK    5  A    between atoms: C18_24  and  C19_25 
REMARK    6  A    between atoms: C20_26  and  C21_27 
REMARK    7  A    between atoms: C24_30  and  O2_31 
ROOT
HETATM    1  C1  UNL     1      21.466  -0.583  54.399  1.00  0.00     0.072 C 
HETATM    2  C2  UNL     1      22.584  -0.152  53.541  1.00  0.00     0.052 C 
HETATM    3  N1  UNL     1      23.798  -0.369  53.872  1.00  0.00    -0.244 NA
HETATM    4  C3  UNL     1      25.012  -0.032  53.183  1.00  0.00     0.255 C 
HETATM    5  N2  UNL     1      25.196   0.825  52.206  1.00  0.00    -0.161 NA
HETATM    6  N3  UNL     1      24.227   1.646  51.576  1.00  0.00    -0.243 N 
HETATM    7  C17 UNL     1      22.854   1.279  51.507  1.00  0.00     0.141 C 
HETATM    8  C18 UNL     1      22.141   0.521  52.325  1.00  0.00     0.059 C 
ENDROOT
BRANCH   6   9
HETATM    9  C4  UNL     1      24.699   2.860  51.011  1.00  0.00     0.059 A 
HETATM   10  C5  UNL     1      25.852   2.756  50.262  1.00  0.00     0.034 A 
HETATM   11  C6  UNL     1      26.413   3.856  49.665  1.00  0.00     0.041 A 
HETATM   12  C7  UNL     1      25.883   5.116  49.763  1.00  0.00     0.091 A 
HETATM   13  C15 UNL     1      24.705   5.218  50.528  1.00  0.00     0.069 A 
HETATM   14 CL1  UNL     1      23.762   6.680  50.861  1.00  0.00    -0.081 Cl
HETATM   15  C16 UNL     1      24.123   4.101  51.144  1.00  0.00     0.058 A 
BRANCH  12  16
HETATM   16  O1  UNL     1      26.166   6.364  49.320  1.00  0.00    -0.345 OA
BRANCH  16  17
HETATM   17  C8  UNL     1      26.848   6.772  48.192  1.00  0.00     0.214 C 
BRANCH  17  18
HETATM   18  C9  UNL     1      28.315   6.669  48.260  1.00  0.00    -0.031 A 
HETATM   19  C10 UNL     1      28.921   7.888  48.591  1.00  0.00     0.009 A 
HETATM   20  C11 UNL     1      30.280   8.077  48.707  1.00  0.00     0.004 A 
HETATM   21  C12 UNL     1      31.125   7.012  48.488  1.00  0.00     0.042 A 
HETATM   22  C13 UNL     1      30.560   5.807  48.162  1.00  0.00     0.117 A 
HETATM   23  F1  UNL     1      31.286   4.683  47.923  1.00  0.00    -0.206 F 
HETATM   24  C14 UNL     1      29.198   5.650  48.054  1.00  0.00     0.051 A 
ENDBRANCH  17  18
ENDBRANCH  16  17
ENDBRANCH  12  16
ENDBRANCH   6   9
BRANCH   8  25
HETATM   25  C19 UNL     1      20.769   0.388  51.904  1.00  0.00    -0.063 C 
HETATM   26  C20 UNL     1      19.630   0.258  51.560  1.00  0.00    -0.096 C 
BRANCH  26  27
HETATM   27  C21 UNL     1      18.244   0.079  51.125  1.00  0.00     0.068 C 
HETATM   28  C22 UNL     1      17.469  -0.869  52.001  1.00  0.00     0.020 C 
HETATM   29  C23 UNL     1      16.269  -0.087  52.499  1.00  0.00     0.033 C 
HETATM   30  C24 UNL     1      16.119   0.975  51.438  1.00  0.00     0.119 C 
HETATM   31  C25 UNL     1      17.569   1.429  51.260  1.00  0.00     0.048 C 
BRANCH  30  32
HETATM   32  O2  UNL     1      15.701   0.355  50.247  1.00  0.00    -0.396 OA
HETATM   33  H21 UNL     1      14.725   0.199  50.254  1.00  0.00     0.210 HD
ENDBRANCH  30  32
ENDBRANCH  26  27
ENDBRANCH   8  25
TORSDOF 7
ENDMDL
