MODEL 1
REMARK VINA RESULT:      -8.4      0.000      0.000
REMARK  0 active torsions:
REMARK  status: ('A' for Active; 'I' for Inactive)
ROOT
HETATM    1  C1  UNL     1      26.405   4.234  49.307  1.00  0.00     0.045 C 
HETATM    2  C2  UNL     1      25.708   3.246  50.224  1.00  0.00    -0.065 C 
HETATM    3  C3  UNL     1      24.430   3.081  49.851  1.00  0.00     0.002 C 
HETATM    4  C4  UNL     1      23.155   2.402  50.126  1.00  0.00     0.001 C 
HETATM    5  C5  UNL     1      22.459   1.565  50.859  1.00  0.00     0.144 A 
HETATM    6  C6  UNL     1      22.006   0.622  51.836  1.00  0.00     0.108 A 
HETATM    7  N1  UNL     1      23.128   1.047  51.813  1.00  0.00    -0.345 N 
HETATM    8  C7  UNL     1      24.348   1.385  51.945  1.00  0.00     0.229 C 
HETATM    9  N2  UNL     1      25.530   1.141  51.739  1.00  0.00    -0.170 NA
HETATM   10  N3  UNL     1      26.603   1.909  52.130  1.00  0.00    -0.260 N 
HETATM   11  C8  UNL     1      26.801   2.889  51.142  1.00  0.00     0.181 C 
HETATM   12  C9  UNL     1      27.253   1.519  53.350  1.00  0.00     0.276 A 
HETATM   13  C10 UNL     1      28.629   2.210  53.606  1.00  0.00     0.078 C 
HETATM   14  N4  UNL     1      26.439   1.615  54.568  1.00  0.00     0.126 N 
HETATM   15  C11 UNL     1      26.971   0.358  54.066  1.00  0.00     0.301 A 
HETATM   16  C12 UNL     1      26.112  -0.725  53.588  1.00  0.00     0.162 C 
HETATM   17  N5  UNL     1      24.753  -0.745  54.125  1.00  0.00    -0.392 N 
HETATM   18  C13 UNL     1      24.936  -0.954  55.579  1.00  0.00     0.148 C 
HETATM   19  C14 UNL     1      23.392  -0.693  53.733  1.00  0.00     0.083 C 
HETATM   20  C15 UNL     1      22.506  -0.185  52.914  1.00  0.00     0.026 C 
HETATM   21  H13 UNL     1      25.430   1.818  54.466  1.00  0.00     0.320 HD
ENDROOT
TORSDOF 0
ENDMDL
MODEL 2
REMARK VINA RESULT:      -7.9      1.187      4.371
REMARK  0 active torsions:
REMARK  status: ('A' for Active; 'I' for Inactive)
ROOT
HETATM    1  C1  UNL     1      20.241   0.408  51.324  1.00  0.00     0.045 C 
HETATM    2  C2  UNL     1      21.595   0.390  52.008  1.00  0.00    -0.065 C 
HETATM    3  C3  UNL     1      21.582  -0.450  53.054  1.00  0.00     0.002 C 
HETATM    4  C4  UNL     1      22.351  -1.031  54.164  1.00  0.00     0.001 C 
HETATM    5  C5  UNL     1      23.478  -1.118  54.830  1.00  0.00     0.144 A 
HETATM    6  C6  UNL     1      24.818  -0.978  55.315  1.00  0.00     0.108 A 
HETATM    7  N1  UNL     1      24.405  -0.378  54.361  1.00  0.00    -0.345 N 
HETATM    8  C7  UNL     1      24.145   0.334  53.339  1.00  0.00     0.229 C 
HETATM    9  N2  UNL     1      24.190   0.480  52.124  1.00  0.00    -0.170 NA
HETATM   10  N3  UNL     1      23.717   1.559  51.412  1.00  0.00    -0.260 N 
HETATM   11  C8  UNL     1      22.351   1.334  51.170  1.00  0.00     0.181 C 
HETATM   12  C9  UNL     1      24.681   2.565  51.065  1.00  0.00     0.276 A 
HETATM   13  C10 UNL     1      24.187   3.608  50.015  1.00  0.00     0.078 C 
HETATM   14  N4  UNL     1      25.295   3.279  52.191  1.00  0.00     0.126 N 
HETATM   15  C11 UNL     1      26.055   2.453  51.266  1.00  0.00     0.301 A 
HETATM   16  C12 UNL     1      26.737   1.229  51.683  1.00  0.00     0.162 C 
HETATM   17  N5  UNL     1      27.100   1.150  53.096  1.00  0.00    -0.392 N 
HETATM   18  C13 UNL     1      28.058   2.261  53.293  1.00  0.00     0.148 C 
HETATM   19  C14 UNL     1      26.897   0.372  54.264  1.00  0.00     0.083 C 
HETATM   20  C15 UNL     1      26.061  -0.344  54.971  1.00  0.00     0.026 C 
HETATM   21  H13 UNL     1      25.109   2.932  53.148  1.00  0.00     0.320 HD
ENDROOT
TORSDOF 0
ENDMDL
MODEL 3
REMARK VINA RESULT:      -7.7      1.565      5.686
REMARK  0 active torsions:
REMARK  status: ('A' for Active; 'I' for Inactive)
ROOT
HETATM    1  C1  UNL     1      21.540  -1.270  54.586  1.00  0.00     0.045 C 
HETATM    2  C2  UNL     1      22.556  -0.409  53.859  1.00  0.00    -0.065 C 
HETATM    3  C3  UNL     1      23.795  -0.892  54.037  1.00  0.00     0.002 C 
HETATM    4  C4  UNL     1      25.226  -0.725  53.743  1.00  0.00     0.001 C 
HETATM    5  C5  UNL     1      26.185  -0.048  53.156  1.00  0.00     0.144 A 
HETATM    6  C6  UNL     1      26.960   0.895  52.408  1.00  0.00     0.108 A 
HETATM    7  N1  UNL     1      25.766   0.968  52.509  1.00  0.00    -0.345 N 
HETATM    8  C7  UNL     1      24.516   1.204  52.504  1.00  0.00     0.229 C 
HETATM    9  N2  UNL     1      23.433   1.108  51.939  1.00  0.00    -0.170 NA
HETATM   10  N3  UNL     1      22.226   1.585  52.397  1.00  0.00    -0.260 N 
HETATM   11  C8  UNL     1      21.685   0.608  53.249  1.00  0.00     0.181 C 
HETATM   12  C9  UNL     1      21.813   2.863  51.888  1.00  0.00     0.276 A 
HETATM   13  C10 UNL     1      20.326   3.233  52.185  1.00  0.00     0.078 C 
HETATM   14  N4  UNL     1      22.667   4.002  52.246  1.00  0.00     0.126 N 
HETATM   15  C11 UNL     1      22.463   3.564  50.874  1.00  0.00     0.301 A 
HETATM   16  C12 UNL     1      23.545   3.023  50.052  1.00  0.00     0.162 C 
HETATM   17  N5  UNL     1      24.896   3.437  50.424  1.00  0.00    -0.392 N 
HETATM   18  C13 UNL     1      24.899   4.904  50.225  1.00  0.00     0.148 C 
HETATM   19  C14 UNL     1      26.153   2.923  50.832  1.00  0.00     0.083 C 
HETATM   20  C15 UNL     1      26.793   2.023  51.534  1.00  0.00     0.026 C 
HETATM   21  H13 UNL     1      23.569   3.807  52.714  1.00  0.00     0.320 HD
ENDROOT
TORSDOF 0
ENDMDL
MODEL 4
REMARK VINA RESULT:      -7.6      1.986      4.600
REMARK  0 active torsions:
REMARK  status: ('A' for Active; 'I' for Inactive)
ROOT
HETATM    1  C1  UNL     1      26.752  -0.773  52.905  1.00  0.00     0.045 C 
HETATM    2  C2  UNL     1      25.490   0.053  52.743  1.00  0.00    -0.065 C 
HETATM    3  C3  UNL     1      24.456  -0.546  53.351  1.00  0.00     0.002 C 
HETATM    4  C4  UNL     1      23.022  -0.481  53.671  1.00  0.00     0.001 C 
HETATM    5  C5  UNL     1      21.876   0.153  53.587  1.00  0.00     0.144 A 
HETATM    6  C6  UNL     1      20.819   1.078  53.312  1.00  0.00     0.108 A 
HETATM    7  N1  UNL     1      21.946   1.245  52.932  1.00  0.00    -0.345 N 
HETATM    8  C7  UNL     1      23.073   1.586  52.451  1.00  0.00     0.229 C 
HETATM    9  N2  UNL     1      24.101   2.242  52.555  1.00  0.00    -0.170 NA
HETATM   10  N3  UNL     1      25.146   2.274  51.660  1.00  0.00    -0.260 N 
HETATM   11  C8  UNL     1      25.995   1.198  51.968  1.00  0.00     0.181 C 
HETATM   12  C9  UNL     1      25.144   3.358  50.718  1.00  0.00     0.276 A 
HETATM   13  C10 UNL     1      26.477   3.537  49.926  1.00  0.00     0.078 C 
HETATM   14  N4  UNL     1      24.022   3.382  49.771  1.00  0.00     0.126 N 
HETATM   15  C11 UNL     1      24.260   4.435  50.746  1.00  0.00     0.301 A 
HETATM   16  C12 UNL     1      23.332   4.719  51.839  1.00  0.00     0.162 C 
HETATM   17  N5  UNL     1      21.944   4.321  51.616  1.00  0.00    -0.392 N 
HETATM   18  C13 UNL     1      21.507   5.137  50.461  1.00  0.00     0.148 C 
HETATM   19  C14 UNL     1      20.914   3.503  52.145  1.00  0.00     0.083 C 
HETATM   20  C15 UNL     1      20.602   2.372  52.726  1.00  0.00     0.026 C 
HETATM   21  H13 UNL     1      23.244   2.717  49.920  1.00  0.00     0.320 HD
ENDROOT
TORSDOF 0
ENDMDL
MODEL 5
REMARK VINA RESULT:      -7.6      2.003      4.813
REMARK  0 active torsions:
REMARK  status: ('A' for Active; 'I' for Inactive)
ROOT
HETATM    1  C1  UNL     1      26.818   1.998  51.627  1.00  0.00     0.045 C 
HETATM    2  C2  UNL     1      25.518   1.390  52.117  1.00  0.00    -0.065 C 
HETATM    3  C3  UNL     1      25.739   0.604  53.182  1.00  0.00     0.002 C 
HETATM    4  C4  UNL     1      25.142  -0.285  54.190  1.00  0.00     0.001 C 
HETATM    5  C5  UNL     1      24.078  -0.866  54.692  1.00  0.00     0.144 A 
HETATM    6  C6  UNL     1      22.752  -1.325  54.977  1.00  0.00     0.108 A 
HETATM    7  N1  UNL     1      23.002  -0.579  54.071  1.00  0.00    -0.345 N 
HETATM    8  C7  UNL     1      23.075   0.207  53.073  1.00  0.00     0.229 C 
HETATM    9  N2  UNL     1      22.968   1.340  52.622  1.00  0.00    -0.170 NA
HETATM   10  N3  UNL     1      23.179   1.725  51.317  1.00  0.00    -0.260 N 
HETATM   11  C8  UNL     1      24.555   1.971  51.169  1.00  0.00     0.181 C 
HETATM   12  C9  UNL     1      22.011   1.824  50.487  1.00  0.00     0.276 A 
HETATM   13  C10 UNL     1      22.242   2.542  49.121  1.00  0.00     0.078 C 
HETATM   14  N4  UNL     1      21.287   0.570  50.248  1.00  0.00     0.126 N 
HETATM   15  C11 UNL     1      20.700   1.706  50.941  1.00  0.00     0.301 A 
HETATM   16  C12 UNL     1      20.310   1.652  52.349  1.00  0.00     0.162 C 
HETATM   17  N5  UNL     1      20.009   0.324  52.877  1.00  0.00    -0.392 N 
HETATM   18  C13 UNL     1      18.839  -0.129  52.092  1.00  0.00     0.148 C 
HETATM   19  C14 UNL     1      20.405  -0.601  53.876  1.00  0.00     0.083 C 
HETATM   20  C15 UNL     1      21.393  -1.121  54.558  1.00  0.00     0.026 C 
HETATM   21  H13 UNL     1      21.568  -0.266  50.789  1.00  0.00     0.320 HD
ENDROOT
TORSDOF 0
ENDMDL
MODEL 6
REMARK VINA RESULT:      -7.5      1.327      3.430
REMARK  0 active torsions:
REMARK  status: ('A' for Active; 'I' for Inactive)
ROOT
HETATM    1  C1  UNL     1      20.640   1.935  49.966  1.00  0.00     0.045 C 
HETATM    2  C2  UNL     1      21.517   1.362  51.063  1.00  0.00    -0.065 C 
HETATM    3  C3  UNL     1      20.789   0.603  51.896  1.00  0.00     0.002 C 
HETATM    4  C4  UNL     1      20.797  -0.244  53.099  1.00  0.00     0.001 C 
HETATM    5  C5  UNL     1      21.463  -0.788  54.091  1.00  0.00     0.144 A 
HETATM    6  C6  UNL     1      22.463  -1.211  55.023  1.00  0.00     0.108 A 
HETATM    7  N1  UNL     1      22.704  -0.495  54.090  1.00  0.00    -0.345 N 
HETATM    8  C7  UNL     1      23.143   0.262  53.166  1.00  0.00     0.229 C 
HETATM    9  N2  UNL     1      23.696   0.376  52.080  1.00  0.00    -0.170 NA
HETATM   10  N3  UNL     1      23.978   1.553  51.425  1.00  0.00    -0.260 N 
HETATM   11  C8  UNL     1      22.831   1.911  50.695  1.00  0.00     0.181 C 
HETATM   12  C9  UNL     1      25.306   2.073  51.593  1.00  0.00     0.276 A 
HETATM   13  C10 UNL     1      25.683   3.227  50.612  1.00  0.00     0.078 C 
HETATM   14  N4  UNL     1      25.670   2.471  52.958  1.00  0.00     0.126 N 
HETATM   15  C11 UNL     1      26.346   1.406  52.235  1.00  0.00     0.301 A 
HETATM   16  C12 UNL     1      26.297   0.009  52.666  1.00  0.00     0.162 C 
HETATM   17  N5  UNL     1      26.038  -0.211  54.087  1.00  0.00    -0.392 N 
HETATM   18  C13 UNL     1      27.196   0.407  54.772  1.00  0.00     0.148 C 
HETATM   19  C14 UNL     1      25.129  -0.837  54.977  1.00  0.00     0.083 C 
HETATM   20  C15 UNL     1      23.883  -1.145  55.232  1.00  0.00     0.026 C 
HETATM   21  H13 UNL     1      25.019   2.232  53.726  1.00  0.00     0.320 HD
ENDROOT
TORSDOF 0
ENDMDL
MODEL 7
REMARK VINA RESULT:      -7.1      1.349      4.164
REMARK  0 active torsions:
REMARK  status: ('A' for Active; 'I' for Inactive)
ROOT
HETATM    1  C1  UNL     1      25.006   4.274  49.328  1.00  0.00     0.045 C 
HETATM    2  C2  UNL     1      24.829   3.164  50.346  1.00  0.00    -0.065 C 
HETATM    3  C3  UNL     1      26.019   2.771  50.825  1.00  0.00     0.002 C 
HETATM    4  C4  UNL     1      26.730   1.862  51.736  1.00  0.00     0.001 C 
HETATM    5  C5  UNL     1      26.689   0.898  52.626  1.00  0.00     0.144 A 
HETATM    6  C6  UNL     1      26.293  -0.130  53.541  1.00  0.00     0.108 A 
HETATM    7  N1  UNL     1      25.506   0.495  52.884  1.00  0.00    -0.345 N 
HETATM    8  C7  UNL     1      24.536   1.049  52.276  1.00  0.00     0.229 C 
HETATM    9  N2  UNL     1      23.641   1.885  52.273  1.00  0.00    -0.170 NA
HETATM   10  N3  UNL     1      22.749   2.126  51.253  1.00  0.00    -0.260 N 
HETATM   11  C8  UNL     1      23.365   3.020  50.360  1.00  0.00     0.181 C 
HETATM   12  C9  UNL     1      21.468   1.487  51.364  1.00  0.00     0.276 A 
HETATM   13  C10 UNL     1      20.389   2.010  50.365  1.00  0.00     0.078 C 
HETATM   14  N4  UNL     1      21.479   0.019  51.325  1.00  0.00     0.126 N 
HETATM   15  C11 UNL     1      21.026   0.779  52.479  1.00  0.00     0.301 A 
HETATM   16  C12 UNL     1      21.718   0.741  53.767  1.00  0.00     0.162 C 
HETATM   17  N5  UNL     1      22.510  -0.458  54.030  1.00  0.00    -0.392 N 
HETATM   18  C13 UNL     1      21.520  -1.558  54.044  1.00  0.00     0.148 C 
HETATM   19  C14 UNL     1      23.830  -0.888  54.319  1.00  0.00     0.083 C 
HETATM   20  C15 UNL     1      25.109  -0.718  54.104  1.00  0.00     0.026 C 
HETATM   21  H13 UNL     1      22.394  -0.463  51.360  1.00  0.00     0.320 HD
ENDROOT
TORSDOF 0
ENDMDL
MODEL 8
REMARK VINA RESULT:      -6.7      2.311      3.763
REMARK  0 active torsions:
REMARK  status: ('A' for Active; 'I' for Inactive)
ROOT
HETATM    1  C1  UNL     1      27.614   5.107  48.584  1.00  0.00     0.045 C 
HETATM    2  C2  UNL     1      26.267   4.835  49.227  1.00  0.00    -0.065 C 
HETATM    3  C3  UNL     1      25.396   5.809  48.924  1.00  0.00     0.002 C 
HETATM    4  C4  UNL     1      24.027   6.319  49.090  1.00  0.00     0.001 C 
HETATM    5  C5  UNL     1      22.826   6.180  49.602  1.00  0.00     0.144 A 
HETATM    6  C6  UNL     1      21.657   5.732  50.296  1.00  0.00     0.108 A 
HETATM    7  N1  UNL     1      22.694   5.127  50.309  1.00  0.00    -0.345 N 
HETATM    8  C7  UNL     1      23.700   4.358  50.436  1.00  0.00     0.229 C 
HETATM    9  N2  UNL     1      24.305   3.356  50.077  1.00  0.00    -0.170 NA
HETATM   10  N3  UNL     1      25.495   2.892  50.588  1.00  0.00    -0.260 N 
HETATM   11  C8  UNL     1      26.531   3.560  49.913  1.00  0.00     0.181 C 
HETATM   12  C9  UNL     1      25.400   1.865  51.588  1.00  0.00     0.276 A 
HETATM   13  C10 UNL     1      26.749   1.156  51.924  1.00  0.00     0.078 C 
HETATM   14  N4  UNL     1      24.741   2.251  52.841  1.00  0.00     0.126 N 
HETATM   15  C11 UNL     1      24.222   1.220  51.957  1.00  0.00     0.301 A 
HETATM   16  C12 UNL     1      22.946   1.355  51.255  1.00  0.00     0.162 C 
HETATM   17  N5  UNL     1      21.973   2.256  51.868  1.00  0.00    -0.392 N 
HETATM   18  C13 UNL     1      21.677   1.638  53.180  1.00  0.00     0.148 C 
HETATM   19  C14 UNL     1      21.216   3.427  51.615  1.00  0.00     0.083 C 
HETATM   20  C15 UNL     1      21.179   4.607  51.051  1.00  0.00     0.026 C 
HETATM   21  H13 UNL     1      24.270   3.171  52.882  1.00  0.00     0.320 HD
ENDROOT
TORSDOF 0
ENDMDL
MODEL 9
REMARK VINA RESULT:      -6.7      2.609      6.126
REMARK  0 active torsions:
REMARK  status: ('A' for Active; 'I' for Inactive)
ROOT
HETATM    1  C1  UNL     1      16.966  -0.319  51.914  1.00  0.00     0.045 C 
HETATM    2  C2  UNL     1      18.438  -0.138  52.233  1.00  0.00    -0.065 C 
HETATM    3  C3  UNL     1      18.842  -1.057  53.123  1.00  0.00     0.002 C 
HETATM    4  C4  UNL     1      19.965  -1.579  53.916  1.00  0.00     0.001 C 
HETATM    5  C5  UNL     1      21.228  -1.508  54.265  1.00  0.00     0.144 A 
HETATM    6  C6  UNL     1      22.607  -1.157  54.418  1.00  0.00     0.108 A 
HETATM    7  N1  UNL     1      21.861  -0.563  53.689  1.00  0.00    -0.345 N 
HETATM    8  C7  UNL     1      21.225   0.178  52.873  1.00  0.00     0.229 C 
HETATM    9  N2  UNL     1      20.919   0.441  51.717  1.00  0.00    -0.170 NA
HETATM   10  N3  UNL     1      20.103   1.469  51.301  1.00  0.00    -0.260 N 
HETATM   11  C8  UNL     1      18.777   1.008  51.375  1.00  0.00     0.181 C 
HETATM   12  C9  UNL     1      20.762   2.670  50.871  1.00  0.00     0.276 A 
HETATM   13  C10 UNL     1      19.841   3.690  50.132  1.00  0.00     0.078 C 
HETATM   14  N4  UNL     1      21.530   3.382  51.899  1.00  0.00     0.126 N 
HETATM   15  C11 UNL     1      22.139   2.808  50.710  1.00  0.00     0.301 A 
HETATM   16  C12 UNL     1      23.097   1.705  50.770  1.00  0.00     0.162 C 
HETATM   17  N5  UNL     1      23.833   1.568  52.025  1.00  0.00    -0.392 N 
HETATM   18  C13 UNL     1      24.614   2.821  52.132  1.00  0.00     0.148 C 
HETATM   19  C14 UNL     1      24.080   0.661  53.086  1.00  0.00     0.083 C 
HETATM   20  C15 UNL     1      23.592  -0.266  53.871  1.00  0.00     0.026 C 
HETATM   21  H13 UNL     1      21.667   2.919  52.814  1.00  0.00     0.320 HD
ENDROOT
TORSDOF 0
ENDMDL
