MODEL 1
REMARK VINA RESULT:      -9.9      0.000      0.000
REMARK  6 active torsions:
REMARK  status: ('A' for Active; 'I' for Inactive)
REMARK    1  A    between atoms: N1_1  and  C1_2 
REMARK    2  A    between atoms: N3_5  and  C3_6 
REMARK    3  A    between atoms: C3_6  and  C4_7 
REMARK    4  A    between atoms: C7_10  and  C8_11 
REMARK    5  A    between atoms: C19_22  and  N4_23 
REMARK    6  A    between atoms: N4_23  and  C20_24 
ROOT
HETATM    1  C1  UNL     1      24.126   6.719  50.938  1.00  0.00     0.723 C 
HETATM    2  N2  UNL     1      22.838   6.375  51.205  1.00  0.00    -0.058 NA
HETATM    3  C2  UNL     1      22.495   5.161  51.672  1.00  0.00     0.229 C 
HETATM    4  N3  UNL     1      23.193   4.018  51.630  1.00  0.00    -0.347 N 
HETATM    5  C16 UNL     1      24.194   3.730  50.811  1.00  0.00     0.092 C 
HETATM    6  C17 UNL     1      24.429   3.746  49.472  1.00  0.00     0.021 C 
HETATM    7  C18 UNL     1      24.537   4.995  48.896  1.00  0.00     0.052 C 
HETATM    8  C19 UNL     1      25.388   6.058  49.135  1.00  0.00     0.147 C 
HETATM    9  N5  UNL     1      25.250   6.170  50.445  1.00  0.00    -0.045 NA
ENDROOT
BRANCH   4  10
HETATM   10  C3  UNL     1      22.854   2.969  52.552  1.00  0.00     0.167 C 
BRANCH  10  11
HETATM   11  C4  UNL     1      24.044   2.098  52.707  1.00  0.00    -0.040 A 
HETATM   12  C5  UNL     1      25.134   2.570  53.402  1.00  0.00     0.010 A 
HETATM   13  C6  UNL     1      26.210   1.724  53.517  1.00  0.00     0.012 A 
HETATM   14  C7  UNL     1      26.320   0.432  53.006  1.00  0.00    -0.030 A 
HETATM   15  C14 UNL     1      25.179   0.057  52.329  1.00  0.00     0.012 A 
HETATM   16  C15 UNL     1      24.058   0.833  52.163  1.00  0.00     0.010 A 
BRANCH  14  17
HETATM   17  C8  UNL     1      27.501  -0.426  53.163  1.00  0.00    -0.048 A 
HETATM   18  C9  UNL     1      28.614   0.111  53.614  1.00  0.00     0.007 A 
HETATM   19  C10 UNL     1      29.805  -0.706  53.784  1.00  0.00    -0.003 A 
HETATM   20  C11 UNL     1      29.629  -1.972  53.446  1.00  0.00    -0.026 A 
HETATM   21  C12 UNL     1      28.446  -2.676  52.937  1.00  0.00     0.032 A 
HETATM   22  C13 UNL     1      27.224  -1.827  52.763  1.00  0.00     0.043 A 
ENDBRANCH  14  17
ENDBRANCH  10  11
ENDBRANCH   4  10
BRANCH   1  23
HETATM   23  N1  UNL     1      24.094   8.096  51.368  1.00  0.00    -0.231 N 
HETATM   24  H1  UNL     1      24.395   9.001  51.761  1.00  0.00     0.174 HD
HETATM   25  H2  UNL     1      23.189   8.619  51.229  1.00  0.00     0.174 HD
ENDBRANCH   1  23
BRANCH   8  26
HETATM   26  N4  UNL     1      26.133   6.733  48.131  1.00  0.00    -0.341 N 
HETATM   27  H20 UNL     1      25.571   7.319  47.511  1.00  0.00     0.167 HD
BRANCH  26  28
HETATM   28  C20 UNL     1      27.519   6.652  47.947  1.00  0.00     0.033 A 
HETATM   29  C21 UNL     1      28.229   5.537  48.359  1.00  0.00     0.029 A 
HETATM   30  C22 UNL     1      29.594   5.438  48.187  1.00  0.00     0.002 A 
HETATM   31  C23 UNL     1      30.316   6.450  47.595  1.00  0.00     0.000 A 
HETATM   32  C24 UNL     1      29.659   7.582  47.168  1.00  0.00     0.002 A 
HETATM   33  C25 UNL     1      28.295   7.631  47.362  1.00  0.00     0.029 A 
ENDBRANCH  26  28
ENDBRANCH   8  26
TORSDOF 6
ENDMDL
MODEL 2
REMARK VINA RESULT:      -9.2      3.916      6.972
REMARK  6 active torsions:
REMARK  status: ('A' for Active; 'I' for Inactive)
REMARK    1  A    between atoms: N1_1  and  C1_2 
REMARK    2  A    between atoms: N3_5  and  C3_6 
REMARK    3  A    between atoms: C3_6  and  C4_7 
REMARK    4  A    between atoms: C7_10  and  C8_11 
REMARK    5  A    between atoms: C19_22  and  N4_23 
REMARK    6  A    between atoms: N4_23  and  C20_24 
ROOT
HETATM    1  C1  UNL     1      23.623   4.789  52.097  1.00  0.00     0.723 C 
HETATM    2  N2  UNL     1      22.897   5.799  51.546  1.00  0.00    -0.058 NA
HETATM    3  C2  UNL     1      21.893   5.578  50.678  1.00  0.00     0.229 C 
HETATM    4  N3  UNL     1      21.646   4.486  49.942  1.00  0.00    -0.347 N 
HETATM    5  C16 UNL     1      22.510   3.535  49.618  1.00  0.00     0.092 C 
HETATM    6  C17 UNL     1      23.743   3.452  49.051  1.00  0.00     0.021 C 
HETATM    7  C18 UNL     1      24.791   3.911  49.822  1.00  0.00     0.052 C 
HETATM    8  C19 UNL     1      25.257   3.543  51.070  1.00  0.00     0.147 C 
HETATM    9  N5  UNL     1      24.129   3.591  51.758  1.00  0.00    -0.045 NA
ENDROOT
BRANCH   4  10
HETATM   10  C3  UNL     1      20.318   4.285  49.431  1.00  0.00     0.167 C 
BRANCH  10  11
HETATM   11  C4  UNL     1      19.745   3.096  50.107  1.00  0.00    -0.040 A 
HETATM   12  C5  UNL     1      19.505   3.145  51.461  1.00  0.00     0.010 A 
HETATM   13  C6  UNL     1      18.974   2.018  52.039  1.00  0.00     0.012 A 
HETATM   14  C7  UNL     1      18.649   0.822  51.401  1.00  0.00    -0.030 A 
HETATM   15  C14 UNL     1      18.928   0.877  50.051  1.00  0.00     0.012 A 
HETATM   16  C15 UNL     1      19.458   1.957  49.389  1.00  0.00     0.010 A 
BRANCH  14  17
HETATM   17  C8  UNL     1      18.082  -0.352  52.076  1.00  0.00    -0.048 A 
HETATM   18  C9  UNL     1      18.794  -0.947  53.007  1.00  0.00     0.007 A 
HETATM   19  C10 UNL     1      18.267  -2.114  53.699  1.00  0.00    -0.003 A 
HETATM   20  C11 UNL     1      17.061  -2.468  53.291  1.00  0.00    -0.026 A 
HETATM   21  C12 UNL     1      16.180  -1.885  52.271  1.00  0.00     0.032 A 
HETATM   22  C13 UNL     1      16.731  -0.686  51.563  1.00  0.00     0.043 A 
ENDBRANCH  14  17
ENDBRANCH  10  11
ENDBRANCH   4  10
BRANCH   1  23
HETATM   23  N1  UNL     1      23.812   5.333  53.419  1.00  0.00    -0.231 N 
HETATM   24  H1  UNL     1      24.275   5.649  54.287  1.00  0.00     0.174 HD
HETATM   25  H2  UNL     1      22.950   5.659  53.930  1.00  0.00     0.174 HD
ENDBRANCH   1  23
BRANCH   8  26
HETATM   26  N4  UNL     1      26.612   3.230  51.362  1.00  0.00    -0.341 N 
HETATM   27  H20 UNL     1      27.287   3.912  51.013  1.00  0.00     0.167 HD
BRANCH  26  28
HETATM   28  C20 UNL     1      27.059   2.104  52.064  1.00  0.00     0.033 A 
HETATM   29  C21 UNL     1      26.536   0.847  51.805  1.00  0.00     0.029 A 
HETATM   30  C22 UNL     1      26.962  -0.273  52.486  1.00  0.00     0.002 A 
HETATM   31  C23 UNL     1      27.933  -0.194  53.459  1.00  0.00     0.000 A 
HETATM   32  C24 UNL     1      28.486   1.031  53.758  1.00  0.00     0.002 A 
HETATM   33  C25 UNL     1      28.025   2.121  53.048  1.00  0.00     0.029 A 
ENDBRANCH  26  28
ENDBRANCH   8  26
TORSDOF 6
ENDMDL
MODEL 3
REMARK VINA RESULT:      -9.0      3.284      6.480
REMARK  6 active torsions:
REMARK  status: ('A' for Active; 'I' for Inactive)
REMARK    1  A    between atoms: N1_1  and  C1_2 
REMARK    2  A    between atoms: N3_5  and  C3_6 
REMARK    3  A    between atoms: C3_6  and  C4_7 
REMARK    4  A    between atoms: C7_10  and  C8_11 
REMARK    5  A    between atoms: C19_22  and  N4_23 
REMARK    6  A    between atoms: N4_23  and  C20_24 
ROOT
HETATM    1  C1  UNL     1      30.846   7.573  48.844  1.00  0.00     0.723 C 
HETATM    2  N2  UNL     1      30.043   8.590  49.260  1.00  0.00    -0.058 NA
HETATM    3  C2  UNL     1      28.744   8.671  48.919  1.00  0.00     0.229 C 
HETATM    4  N3  UNL     1      28.102   8.068  47.910  1.00  0.00    -0.347 N 
HETATM    5  C16 UNL     1      28.647   7.561  46.815  1.00  0.00     0.092 C 
HETATM    6  C17 UNL     1      29.490   7.973  45.831  1.00  0.00     0.021 C 
HETATM    7  C18 UNL     1      30.806   8.150  46.203  1.00  0.00     0.052 C 
HETATM    8  C19 UNL     1      31.741   7.290  46.747  1.00  0.00     0.147 C 
HETATM    9  N5  UNL     1      31.042   6.804  47.759  1.00  0.00    -0.045 NA
ENDROOT
BRANCH   4  10
HETATM   10  C3  UNL     1      26.673   7.936  47.984  1.00  0.00     0.167 C 
BRANCH  10  11
HETATM   11  C4  UNL     1      26.369   6.680  48.710  1.00  0.00    -0.040 A 
HETATM   12  C5  UNL     1      25.275   6.635  49.544  1.00  0.00     0.010 A 
HETATM   13  C6  UNL     1      25.037   5.449  50.192  1.00  0.00     0.012 A 
HETATM   14  C7  UNL     1      25.785   4.276  50.099  1.00  0.00    -0.030 A 
HETATM   15  C14 UNL     1      26.855   4.426  49.242  1.00  0.00     0.012 A 
HETATM   16  C15 UNL     1      27.171   5.571  48.553  1.00  0.00     0.010 A 
BRANCH  14  17
HETATM   17  C8  UNL     1      25.479   3.034  50.820  1.00  0.00    -0.048 A 
HETATM   18  C9  UNL     1      24.218   2.717  51.018  1.00  0.00     0.007 A 
HETATM   19  C10 UNL     1      23.873   1.495  51.729  1.00  0.00    -0.003 A 
HETATM   20  C11 UNL     1      24.926   0.798  52.120  1.00  0.00    -0.026 A 
HETATM   21  C12 UNL     1      26.362   1.051  51.956  1.00  0.00     0.032 A 
HETATM   22  C13 UNL     1      26.709   2.313  51.226  1.00  0.00     0.043 A 
ENDBRANCH  14  17
ENDBRANCH  10  11
ENDBRANCH   4  10
BRANCH   1  23
HETATM   23  N1  UNL     1      31.647   7.408  50.032  1.00  0.00    -0.231 N 
HETATM   24  H1  UNL     1      32.169   6.959  50.801  1.00  0.00     0.174 HD
HETATM   25  H2  UNL     1      31.966   8.287  50.519  1.00  0.00     0.174 HD
ENDBRANCH   1  23
BRANCH   8  26
HETATM   26  N4  UNL     1      33.052   7.098  46.234  1.00  0.00    -0.341 N 
HETATM   27  H20 UNL     1      33.502   7.951  45.897  1.00  0.00     0.167 HD
BRANCH  26  28
HETATM   28  C20 UNL     1      33.734   5.877  46.165  1.00  0.00     0.033 A 
HETATM   29  C21 UNL     1      34.142   5.355  44.949  1.00  0.00     0.029 A 
HETATM   30  C22 UNL     1      34.813   4.154  44.860  1.00  0.00     0.002 A 
HETATM   31  C23 UNL     1      35.111   3.415  45.983  1.00  0.00     0.000 A 
HETATM   32  C24 UNL     1      34.727   3.887  47.219  1.00  0.00     0.002 A 
HETATM   33  C25 UNL     1      34.058   5.093  47.253  1.00  0.00     0.029 A 
ENDBRANCH  26  28
ENDBRANCH   8  26
TORSDOF 6
ENDMDL
MODEL 4
REMARK VINA RESULT:      -8.9      2.605      3.182
REMARK  6 active torsions:
REMARK  status: ('A' for Active; 'I' for Inactive)
REMARK    1  A    between atoms: N1_1  and  C1_2 
REMARK    2  A    between atoms: N3_5  and  C3_6 
REMARK    3  A    between atoms: C3_6  and  C4_7 
REMARK    4  A    between atoms: C7_10  and  C8_11 
REMARK    5  A    between atoms: C19_22  and  N4_23 
REMARK    6  A    between atoms: N4_23  and  C20_24 
ROOT
HETATM    1  C1  UNL     1      23.624   5.925  51.146  1.00  0.00     0.723 C 
HETATM    2  N2  UNL     1      22.807   5.458  52.128  1.00  0.00    -0.058 NA
HETATM    3  C2  UNL     1      22.340   4.196  52.142  1.00  0.00     0.229 C 
HETATM    4  N3  UNL     1      22.259   3.321  51.131  1.00  0.00    -0.347 N 
HETATM    5  C16 UNL     1      22.267   3.602  49.836  1.00  0.00     0.092 C 
HETATM    6  C17 UNL     1      21.592   4.418  48.983  1.00  0.00     0.021 C 
HETATM    7  C18 UNL     1      21.855   5.766  49.108  1.00  0.00     0.052 C 
HETATM    8  C19 UNL     1      23.022   6.498  49.004  1.00  0.00     0.147 C 
HETATM    9  N5  UNL     1      23.800   5.804  49.819  1.00  0.00    -0.045 NA
ENDROOT
BRANCH   4  10
HETATM   10  C3  UNL     1      22.151   1.921  51.439  1.00  0.00     0.167 C 
BRANCH  10  11
HETATM   11  C4  UNL     1      23.496   1.436  51.828  1.00  0.00    -0.040 A 
HETATM   12  C5  UNL     1      23.610   0.527  52.855  1.00  0.00     0.010 A 
HETATM   13  C6  UNL     1      24.878   0.108  53.176  1.00  0.00     0.012 A 
HETATM   14  C7  UNL     1      26.071   0.506  52.573  1.00  0.00    -0.030 A 
HETATM   15  C14 UNL     1      25.847   1.415  51.561  1.00  0.00     0.012 A 
HETATM   16  C15 UNL     1      24.619   1.889  51.171  1.00  0.00     0.010 A 
BRANCH  14  17
HETATM   17  C8  UNL     1      27.401   0.021  52.963  1.00  0.00    -0.048 A 
HETATM   18  C9  UNL     1      27.647  -1.269  52.889  1.00  0.00     0.007 A 
HETATM   19  C10 UNL     1      28.952  -1.788  53.266  1.00  0.00    -0.003 A 
HETATM   20  C11 UNL     1      29.796  -0.853  53.665  1.00  0.00    -0.026 A 
HETATM   21  C12 UNL     1      29.635   0.601  53.786  1.00  0.00     0.032 A 
HETATM   22  C13 UNL     1      28.287   1.127  53.398  1.00  0.00     0.043 A 
ENDBRANCH  14  17
ENDBRANCH  10  11
ENDBRANCH   4  10
BRANCH   1  23
HETATM   23  N1  UNL     1      24.480   6.773  51.939  1.00  0.00    -0.231 N 
HETATM   24  H1  UNL     1      24.956   7.186  52.757  1.00  0.00     0.174 HD
HETATM   25  H2  UNL     1      25.045   7.498  51.423  1.00  0.00     0.174 HD
ENDBRANCH   1  23
BRANCH   8  26
HETATM   26  N4  UNL     1      23.177   7.656  48.195  1.00  0.00    -0.341 N 
HETATM   27  H20 UNL     1      22.993   8.537  48.680  1.00  0.00     0.167 HD
BRANCH  26  28
HETATM   28  C20 UNL     1      23.547   7.668  46.845  1.00  0.00     0.033 A 
HETATM   29  C21 UNL     1      22.750   7.073  45.881  1.00  0.00     0.029 A 
HETATM   30  C22 UNL     1      23.098   7.073  44.547  1.00  0.00     0.002 A 
HETATM   31  C23 UNL     1      24.259   7.670  44.109  1.00  0.00     0.000 A 
HETATM   32  C24 UNL     1      25.089   8.276  45.026  1.00  0.00     0.002 A 
HETATM   33  C25 UNL     1      24.696   8.248  46.348  1.00  0.00     0.029 A 
ENDBRANCH  26  28
ENDBRANCH   8  26
TORSDOF 6
ENDMDL
MODEL 5
REMARK VINA RESULT:      -8.6      2.006      7.705
REMARK  6 active torsions:
REMARK  status: ('A' for Active; 'I' for Inactive)
REMARK    1  A    between atoms: N1_1  and  C1_2 
REMARK    2  A    between atoms: N3_5  and  C3_6 
REMARK    3  A    between atoms: C3_6  and  C4_7 
REMARK    4  A    between atoms: C7_10  and  C8_11 
REMARK    5  A    between atoms: C19_22  and  N4_23 
REMARK    6  A    between atoms: N4_23  and  C20_24 
ROOT
HETATM    1  C1  UNL     1      23.751   5.392  51.068  1.00  0.00     0.723 C 
HETATM    2  N2  UNL     1      24.546   6.468  51.314  1.00  0.00    -0.058 NA
HETATM    3  C2  UNL     1      25.396   6.964  50.398  1.00  0.00     0.229 C 
HETATM    4  N3  UNL     1      25.889   6.370  49.303  1.00  0.00    -0.347 N 
HETATM    5  C16 UNL     1      25.953   5.068  49.068  1.00  0.00     0.092 C 
HETATM    6  C17 UNL     1      26.424   3.958  49.697  1.00  0.00     0.021 C 
HETATM    7  C18 UNL     1      25.717   3.554  50.811  1.00  0.00     0.052 C 
HETATM    8  C19 UNL     1      24.397   3.188  50.991  1.00  0.00     0.147 C 
HETATM    9  N5  UNL     1      23.795   4.217  50.417  1.00  0.00    -0.045 NA
ENDROOT
BRANCH   4  10
HETATM   10  C3  UNL     1      26.413   7.195  48.249  1.00  0.00     0.167 C 
BRANCH  10  11
HETATM   11  C4  UNL     1      27.893   7.125  48.310  1.00  0.00    -0.040 A 
HETATM   12  C5  UNL     1      28.529   5.986  47.872  1.00  0.00     0.010 A 
HETATM   13  C6  UNL     1      29.900   5.972  47.949  1.00  0.00     0.012 A 
HETATM   14  C7  UNL     1      30.724   6.991  48.425  1.00  0.00    -0.030 A 
HETATM   15  C14 UNL     1      29.991   8.083  48.838  1.00  0.00     0.012 A 
HETATM   16  C15 UNL     1      28.622   8.186  48.798  1.00  0.00     0.010 A 
BRANCH  14  17
HETATM   17  C8  UNL     1      32.190   6.916  48.482  1.00  0.00    -0.048 A 
HETATM   18  C9  UNL     1      32.877   8.037  48.475  1.00  0.00     0.007 A 
HETATM   19  C10 UNL     1      34.330   8.006  48.531  1.00  0.00    -0.003 A 
HETATM   20  C11 UNL     1      34.829   6.783  48.585  1.00  0.00    -0.026 A 
HETATM   21  C12 UNL     1      34.166   5.473  48.600  1.00  0.00     0.032 A 
HETATM   22  C13 UNL     1      32.670   5.515  48.540  1.00  0.00     0.043 A 
ENDBRANCH  14  17
ENDBRANCH  10  11
ENDBRANCH   4  10
BRANCH   1  23
HETATM   23  N1  UNL     1      22.571   5.804  51.787  1.00  0.00    -0.231 N 
HETATM   24  H1  UNL     1      21.690   6.292  52.018  1.00  0.00     0.174 HD
HETATM   25  H2  UNL     1      22.407   5.364  52.731  1.00  0.00     0.174 HD
ENDBRANCH   1  23
BRANCH   8  26
HETATM   26  N4  UNL     1      23.973   1.996  51.637  1.00  0.00    -0.341 N 
HETATM   27  H20 UNL     1      22.962   1.849  51.630  1.00  0.00     0.167 HD
BRANCH  26  28
HETATM   28  C20 UNL     1      24.809   1.055  52.250  1.00  0.00     0.033 A 
HETATM   29  C21 UNL     1      26.034   0.720  51.696  1.00  0.00     0.029 A 
HETATM   30  C22 UNL     1      26.871  -0.204  52.285  1.00  0.00     0.002 A 
HETATM   31  C23 UNL     1      26.527  -0.838  53.457  1.00  0.00     0.000 A 
HETATM   32  C24 UNL     1      25.319  -0.543  54.050  1.00  0.00     0.002 A 
HETATM   33  C25 UNL     1      24.519   0.388  53.422  1.00  0.00     0.029 A 
ENDBRANCH  26  28
ENDBRANCH   8  26
TORSDOF 6
ENDMDL
MODEL 6
REMARK VINA RESULT:      -8.6      1.749      7.707
REMARK  6 active torsions:
REMARK  status: ('A' for Active; 'I' for Inactive)
REMARK    1  A    between atoms: N1_1  and  C1_2 
REMARK    2  A    between atoms: N3_5  and  C3_6 
REMARK    3  A    between atoms: C3_6  and  C4_7 
REMARK    4  A    between atoms: C7_10  and  C8_11 
REMARK    5  A    between atoms: C19_22  and  N4_23 
REMARK    6  A    between atoms: N4_23  and  C20_24 
ROOT
HETATM    1  C1  UNL     1      22.439   2.138  50.530  1.00  0.00     0.723 C 
HETATM    2  N2  UNL     1      21.353   2.945  50.669  1.00  0.00    -0.058 NA
HETATM    3  C2  UNL     1      21.455   4.280  50.795  1.00  0.00     0.229 C 
HETATM    4  N3  UNL     1      22.519   5.009  51.155  1.00  0.00    -0.347 N 
HETATM    5  C16 UNL     1      23.585   4.585  51.817  1.00  0.00     0.092 C 
HETATM    6  C17 UNL     1      23.847   3.912  52.969  1.00  0.00     0.021 C 
HETATM    7  C18 UNL     1      23.517   2.572  52.971  1.00  0.00     0.052 C 
HETATM    8  C19 UNL     1      23.918   1.516  52.175  1.00  0.00     0.147 C 
HETATM    9  N5  UNL     1      23.703   2.038  50.979  1.00  0.00    -0.045 NA
ENDROOT
BRANCH   4  10
HETATM   10  C3  UNL     1      22.548   6.403  50.806  1.00  0.00     0.167 C 
BRANCH  10  11
HETATM   11  C4  UNL     1      23.784   6.651  50.026  1.00  0.00    -0.040 A 
HETATM   12  C5  UNL     1      23.805   6.340  48.685  1.00  0.00     0.010 A 
HETATM   13  C6  UNL     1      24.973   6.589  48.008  1.00  0.00     0.012 A 
HETATM   14  C7  UNL     1      26.148   7.125  48.531  1.00  0.00    -0.030 A 
HETATM   15  C14 UNL     1      26.024   7.400  49.877  1.00  0.00     0.012 A 
HETATM   16  C15 UNL     1      24.899   7.185  50.634  1.00  0.00     0.010 A 
BRANCH  14  17
HETATM   17  C8  UNL     1      27.370   7.369  47.753  1.00  0.00    -0.048 A 
HETATM   18  C9  UNL     1      27.332   8.259  46.785  1.00  0.00     0.007 A 
HETATM   19  C10 UNL     1      28.521   8.529  45.991  1.00  0.00    -0.003 A 
HETATM   20  C11 UNL     1      29.568   7.808  46.351  1.00  0.00    -0.026 A 
HETATM   21  C12 UNL     1      29.726   6.797  47.403  1.00  0.00     0.032 A 
HETATM   22  C13 UNL     1      28.497   6.523  48.214  1.00  0.00     0.043 A 
ENDBRANCH  14  17
ENDBRANCH  10  11
ENDBRANCH   4  10
BRANCH   1  23
HETATM   23  N1  UNL     1      21.897   1.174  49.603  1.00  0.00    -0.231 N 
HETATM   24  H1  UNL     1      21.712   0.278  49.126  1.00  0.00     0.174 HD
HETATM   25  H2  UNL     1      21.216   1.534  48.883  1.00  0.00     0.174 HD
ENDBRANCH   1  23
BRANCH   8  26
HETATM   26  N4  UNL     1      24.406   0.276  52.669  1.00  0.00    -0.341 N 
HETATM   27  H20 UNL     1      23.716  -0.477  52.671  1.00  0.00     0.167 HD
BRANCH  26  28
HETATM   28  C20 UNL     1      25.705   0.032  53.128  1.00  0.00     0.033 A 
HETATM   29  C21 UNL     1      26.571  -0.785  52.419  1.00  0.00     0.029 A 
HETATM   30  C22 UNL     1      27.854  -1.038  52.855  1.00  0.00     0.002 A 
HETATM   31  C23 UNL     1      28.337  -0.487  54.021  1.00  0.00     0.000 A 
HETATM   32  C24 UNL     1      27.518   0.333  54.765  1.00  0.00     0.002 A 
HETATM   33  C25 UNL     1      26.244   0.555  54.285  1.00  0.00     0.029 A 
ENDBRANCH  26  28
ENDBRANCH   8  26
TORSDOF 6
ENDMDL
MODEL 7
REMARK VINA RESULT:      -8.6      6.281     10.365
REMARK  6 active torsions:
REMARK  status: ('A' for Active; 'I' for Inactive)
REMARK    1  A    between atoms: N1_1  and  C1_2 
REMARK    2  A    between atoms: N3_5  and  C3_6 
REMARK    3  A    between atoms: C3_6  and  C4_7 
REMARK    4  A    between atoms: C7_10  and  C8_11 
REMARK    5  A    between atoms: C19_22  and  N4_23 
REMARK    6  A    between atoms: N4_23  and  C20_24 
ROOT
HETATM    1  C1  UNL     1      21.759  -0.409  53.263  1.00  0.00     0.723 C 
HETATM    2  N2  UNL     1      20.488  -0.361  53.743  1.00  0.00    -0.058 NA
HETATM    3  C2  UNL     1      19.419  -0.188  52.946  1.00  0.00     0.229 C 
HETATM    4  N3  UNL     1      19.373   0.302  51.700  1.00  0.00    -0.347 N 
HETATM    5  C16 UNL     1      20.287   1.058  51.111  1.00  0.00     0.092 C 
HETATM    6  C17 UNL     1      20.955   2.212  51.376  1.00  0.00     0.021 C 
HETATM    7  C18 UNL     1      21.900   2.142  52.380  1.00  0.00     0.052 C 
HETATM    8  C19 UNL     1      23.030   1.363  52.538  1.00  0.00     0.147 C 
HETATM    9  N5  UNL     1      22.515   0.166  52.311  1.00  0.00    -0.045 NA
ENDROOT
BRANCH   4  10
HETATM   10  C3  UNL     1      18.232  -0.003  50.881  1.00  0.00     0.167 C 
BRANCH  10  11
HETATM   11  C4  UNL     1      17.038   0.597  51.525  1.00  0.00    -0.040 A 
HETATM   12  C5  UNL     1      16.824   1.952  51.411  1.00  0.00     0.010 A 
HETATM   13  C6  UNL     1      15.705   2.457  52.024  1.00  0.00     0.012 A 
HETATM   14  C7  UNL     1      14.754   1.746  52.755  1.00  0.00    -0.030 A 
HETATM   15  C14 UNL     1      15.061   0.402  52.810  1.00  0.00     0.012 A 
HETATM   16  C15 UNL     1      16.154  -0.191  52.229  1.00  0.00     0.010 A 
BRANCH  14  17
HETATM   17  C8  UNL     1      13.574   2.346  53.390  1.00  0.00    -0.048 A 
HETATM   18  C9  UNL     1      12.679   1.549  53.933  1.00  0.00     0.007 A 
HETATM   19  C10 UNL     1      11.496   2.104  54.572  1.00  0.00    -0.003 A 
HETATM   20  C11 UNL     1      11.448   3.425  54.534  1.00  0.00    -0.026 A 
HETATM   21  C12 UNL     1      12.378   4.406  53.963  1.00  0.00     0.032 A 
HETATM   22  C13 UNL     1      13.592   3.826  53.305  1.00  0.00     0.043 A 
ENDBRANCH  14  17
ENDBRANCH  10  11
ENDBRANCH   4  10
BRANCH   1  23
HETATM   23  N1  UNL     1      22.304  -1.414  54.143  1.00  0.00    -0.231 N 
HETATM   24  H1  UNL     1      22.927  -1.884  54.819  1.00  0.00     0.174 HD
HETATM   25  H2  UNL     1      21.778  -2.325  54.212  1.00  0.00     0.174 HD
ENDBRANCH   1  23
BRANCH   8  26
HETATM   26  N4  UNL     1      24.319   1.869  52.857  1.00  0.00    -0.341 N 
HETATM   27  H20 UNL     1      24.374   2.889  52.892  1.00  0.00     0.167 HD
BRANCH  26  28
HETATM   28  C20 UNL     1      25.460   1.100  53.115  1.00  0.00     0.033 A 
HETATM   29  C21 UNL     1      25.968   0.235  52.160  1.00  0.00     0.029 A 
HETATM   30  C22 UNL     1      27.090  -0.531  52.396  1.00  0.00     0.002 A 
HETATM   31  C23 UNL     1      27.760  -0.470  53.597  1.00  0.00     0.000 A 
HETATM   32  C24 UNL     1      27.296   0.373  54.582  1.00  0.00     0.002 A 
HETATM   33  C25 UNL     1      26.171   1.118  54.297  1.00  0.00     0.029 A 
ENDBRANCH  26  28
ENDBRANCH   8  26
TORSDOF 6
ENDMDL
MODEL 8
REMARK VINA RESULT:      -8.6      2.330      3.358
REMARK  6 active torsions:
REMARK  status: ('A' for Active; 'I' for Inactive)
REMARK    1  A    between atoms: N1_1  and  C1_2 
REMARK    2  A    between atoms: N3_5  and  C3_6 
REMARK    3  A    between atoms: C3_6  and  C4_7 
REMARK    4  A    between atoms: C7_10  and  C8_11 
REMARK    5  A    between atoms: C19_22  and  N4_23 
REMARK    6  A    between atoms: N4_23  and  C20_24 
ROOT
HETATM    1  C1  UNL     1      25.756   7.644  49.923  1.00  0.00     0.723 C 
HETATM    2  N2  UNL     1      24.712   7.629  50.795  1.00  0.00    -0.058 NA
HETATM    3  C2  UNL     1      23.880   6.579  50.909  1.00  0.00     0.229 C 
HETATM    4  N3  UNL     1      23.664   5.581  50.041  1.00  0.00    -0.347 N 
HETATM    5  C16 UNL     1      23.929   5.588  48.743  1.00  0.00     0.092 C 
HETATM    6  C17 UNL     1      23.660   6.377  47.669  1.00  0.00     0.021 C 
HETATM    7  C18 UNL     1      24.310   7.593  47.639  1.00  0.00     0.052 C 
HETATM    8  C19 UNL     1      25.649   7.931  47.645  1.00  0.00     0.147 C 
HETATM    9  N5  UNL     1      26.058   7.220  48.683  1.00  0.00    -0.045 NA
ENDROOT
BRANCH   4  10
HETATM   10  C3  UNL     1      23.087   4.358  50.527  1.00  0.00     0.167 C 
BRANCH  10  11
HETATM   11  C4  UNL     1      24.175   3.552  51.132  1.00  0.00    -0.040 A 
HETATM   12  C5  UNL     1      25.240   3.168  50.349  1.00  0.00     0.010 A 
HETATM   13  C6  UNL     1      26.220   2.424  50.957  1.00  0.00     0.012 A 
HETATM   14  C7  UNL     1      26.257   2.010  52.288  1.00  0.00    -0.030 A 
HETATM   15  C14 UNL     1      25.147   2.445  52.983  1.00  0.00     0.012 A 
HETATM   16  C15 UNL     1      24.120   3.191  52.460  1.00  0.00     0.010 A 
BRANCH  14  17
HETATM   17  C8  UNL     1      27.337   1.212  52.882  1.00  0.00    -0.048 A 
HETATM   18  C9  UNL     1      27.344  -0.087  52.678  1.00  0.00     0.007 A 
HETATM   19  C10 UNL     1      28.397  -0.912  53.250  1.00  0.00    -0.003 A 
HETATM   20  C11 UNL     1      29.282  -0.226  53.951  1.00  0.00    -0.026 A 
HETATM   21  C12 UNL     1      29.376   1.210  54.241  1.00  0.00     0.032 A 
HETATM   22  C13 UNL     1      28.286   2.052  53.651  1.00  0.00     0.043 A 
ENDBRANCH  14  17
ENDBRANCH  10  11
ENDBRANCH   4  10
BRANCH   1  23
HETATM   23  N1  UNL     1      26.721   8.355  50.726  1.00  0.00    -0.231 N 
HETATM   24  H1  UNL     1      27.123   8.943  51.473  1.00  0.00     0.174 HD
HETATM   25  H2  UNL     1      27.729   8.295  50.426  1.00  0.00     0.174 HD
ENDBRANCH   1  23
BRANCH   8  26
HETATM   26  N4  UNL     1      26.261   8.815  46.717  1.00  0.00    -0.341 N 
HETATM   27  H20 UNL     1      26.331   8.446  45.767  1.00  0.00     0.167 HD
BRANCH  26  28
HETATM   28  C20 UNL     1      26.747  10.096  47.004  1.00  0.00     0.033 A 
HETATM   29  C21 UNL     1      26.014  10.980  47.780  1.00  0.00     0.029 A 
HETATM   30  C22 UNL     1      26.475  12.246  48.074  1.00  0.00     0.002 A 
HETATM   31  C23 UNL     1      27.692  12.691  47.608  1.00  0.00     0.000 A 
HETATM   32  C24 UNL     1      28.461  11.853  46.831  1.00  0.00     0.002 A 
HETATM   33  C25 UNL     1      27.955  10.598  46.566  1.00  0.00     0.029 A 
ENDBRANCH  26  28
ENDBRANCH   8  26
TORSDOF 6
ENDMDL
MODEL 9
REMARK VINA RESULT:      -8.5      2.360      3.409
REMARK  6 active torsions:
REMARK  status: ('A' for Active; 'I' for Inactive)
REMARK    1  A    between atoms: N1_1  and  C1_2 
REMARK    2  A    between atoms: N3_5  and  C3_6 
REMARK    3  A    between atoms: C3_6  and  C4_7 
REMARK    4  A    between atoms: C7_10  and  C8_11 
REMARK    5  A    between atoms: C19_22  and  N4_23 
REMARK    6  A    between atoms: N4_23  and  C20_24 
ROOT
HETATM    1  C1  UNL     1      23.558   6.724  50.425  1.00  0.00     0.723 C 
HETATM    2  N2  UNL     1      22.216   6.748  50.647  1.00  0.00    -0.058 NA
HETATM    3  C2  UNL     1      21.399   5.759  50.244  1.00  0.00     0.229 C 
HETATM    4  N3  UNL     1      21.613   4.820  49.313  1.00  0.00    -0.347 N 
HETATM    5  C16 UNL     1      22.501   4.865  48.331  1.00  0.00     0.092 C 
HETATM    6  C17 UNL     1      22.848   5.720  47.332  1.00  0.00     0.021 C 
HETATM    7  C18 UNL     1      23.473   6.884  47.728  1.00  0.00     0.052 C 
HETATM    8  C19 UNL     1      24.637   7.120  48.435  1.00  0.00     0.147 C 
HETATM    9  N5  UNL     1      24.431   6.335  49.479  1.00  0.00    -0.045 NA
ENDROOT
BRANCH   4  10
HETATM   10  C3  UNL     1      20.819   3.623  49.346  1.00  0.00     0.167 C 
BRANCH  10  11
HETATM   11  C4  UNL     1      21.370   2.741  50.402  1.00  0.00    -0.040 A 
HETATM   12  C5  UNL     1      20.604   2.464  51.512  1.00  0.00     0.010 A 
HETATM   13  C6  UNL     1      21.160   1.641  52.460  1.00  0.00     0.012 A 
HETATM   14  C7  UNL     1      22.422   1.051  52.424  1.00  0.00    -0.030 A 
HETATM   15  C14 UNL     1      23.106   1.391  51.275  1.00  0.00     0.012 A 
HETATM   16  C15 UNL     1      22.632   2.204  50.276  1.00  0.00     0.010 A 
BRANCH  14  17
HETATM   17  C8  UNL     1      22.963   0.178  53.473  1.00  0.00    -0.048 A 
HETATM   18  C9  UNL     1      22.120  -0.455  54.260  1.00  0.00     0.007 A 
HETATM   19  C10 UNL     1      22.616  -1.330  55.311  1.00  0.00    -0.003 A 
HETATM   20  C11 UNL     1      23.935  -1.395  55.364  1.00  0.00    -0.026 A 
HETATM   21  C12 UNL     1      24.964  -0.741  54.547  1.00  0.00     0.032 A 
HETATM   22  C13 UNL     1      24.445   0.159  53.468  1.00  0.00     0.043 A 
ENDBRANCH  14  17
ENDBRANCH  10  11
ENDBRANCH   4  10
BRANCH   1  23
HETATM   23  N1  UNL     1      24.009   7.324  51.657  1.00  0.00    -0.231 N 
HETATM   24  H1  UNL     1      24.525   7.930  52.314  1.00  0.00     0.174 HD
HETATM   25  H2  UNL     1      23.574   6.968  52.549  1.00  0.00     0.174 HD
ENDBRANCH   1  23
BRANCH   8  26
HETATM   26  N4  UNL     1      25.671   7.997  48.013  1.00  0.00    -0.341 N 
HETATM   27  H20 UNL     1      25.388   8.976  47.932  1.00  0.00     0.167 HD
BRANCH  26  28
HETATM   28  C20 UNL     1      26.988   7.627  47.716  1.00  0.00     0.033 A 
HETATM   29  C21 UNL     1      27.644   6.662  48.464  1.00  0.00     0.029 A 
HETATM   30  C22 UNL     1      28.941   6.284  48.188  1.00  0.00     0.002 A 
HETATM   31  C23 UNL     1      29.647   6.850  47.151  1.00  0.00     0.000 A 
HETATM   32  C24 UNL     1      29.043   7.816  46.376  1.00  0.00     0.002 A 
HETATM   33  C25 UNL     1      27.745   8.158  46.693  1.00  0.00     0.029 A 
ENDBRANCH  26  28
ENDBRANCH   8  26
TORSDOF 6
ENDMDL
