MODEL 1
REMARK VINA RESULT:      -7.7      0.000      0.000
REMARK  3 active torsions:
REMARK  status: ('A' for Active; 'I' for Inactive)
REMARK    1  A    between atoms: O1_2  and  C2_3 
REMARK    2  A    between atoms: C7_9  and  N1_10 
REMARK    3  A    between atoms: N1_10  and  C8_11 
ROOT
HETATM    1  N1  UNL     1      24.771  -0.471  52.738  1.00  0.00    -0.378 N 
HETATM    2  H7  UNL     1      24.827  -1.345  52.135  1.00  0.00     0.160 HD
ENDROOT
BRANCH   1   3
HETATM    3  C7  UNL     1      23.469  -0.180  53.231  1.00  0.00     0.063 A 
HETATM    4  C2  UNL     1      22.631   0.772  52.684  1.00  0.00     0.112 A 
HETATM    5  C3  UNL     1      21.391   0.948  53.260  1.00  0.00     0.046 A 
HETATM    6 BR1  UNL     1      20.301   2.295  52.424  1.00  0.00    -0.048 Br
HETATM    7  C4  UNL     1      20.966   0.219  54.346  1.00  0.00     0.022 A 
HETATM    8  C5  UNL     1      21.799  -0.728  54.892  1.00  0.00     0.004 A 
HETATM    9  C6  UNL     1      23.055  -0.917  54.320  1.00  0.00     0.032 A 
BRANCH   4  10
HETATM   10  O1  UNL     1      23.072   1.498  51.590  1.00  0.00    -0.352 OA
HETATM   11  C1  UNL     1      23.744   2.731  51.693  1.00  0.00     0.210 C 
ENDBRANCH   4  10
ENDBRANCH   1   3
BRANCH   1  12
HETATM   12  C8  UNL     1      26.020   0.195  52.904  1.00  0.00     0.134 C 
HETATM   13  C9  UNL     1      26.112   1.080  54.131  1.00  0.00     0.032 C 
HETATM   14  C10 UNL     1      27.208   2.075  53.815  1.00  0.00     0.007 C 
HETATM   15  C11 UNL     1      28.493   1.401  53.422  1.00  0.00     0.042 C 
HETATM   16  C12 UNL     1      28.330  -0.066  53.306  1.00  0.00    -0.014 A 
HETATM   17  C13 UNL     1      29.509  -0.798  53.477  1.00  0.00     0.127 A 
HETATM   18  C15 UNL     1      27.160  -0.780  53.052  1.00  0.00     0.066 A 
HETATM   19  N2  UNL     1      29.479  -2.157  53.393  1.00  0.00    -0.254 NA
HETATM   20  C14 UNL     1      28.306  -2.800  53.141  1.00  0.00     0.232 A 
HETATM   21  N3  UNL     1      27.163  -2.112  52.974  1.00  0.00    -0.244 NA
ENDBRANCH   1  12
TORSDOF 3
ENDMDL
MODEL 2
REMARK VINA RESULT:      -7.6      1.526      2.354
REMARK  3 active torsions:
REMARK  status: ('A' for Active; 'I' for Inactive)
REMARK    1  A    between atoms: O1_2  and  C2_3 
REMARK    2  A    between atoms: C7_9  and  N1_10 
REMARK    3  A    between atoms: N1_10  and  C8_11 
ROOT
HETATM    1  N1  UNL     1      24.995   0.179  53.849  1.00  0.00    -0.378 N 
HETATM    2  H7  UNL     1      25.174   1.185  54.143  1.00  0.00     0.160 HD
ENDROOT
BRANCH   1   3
HETATM    3  C7  UNL     1      23.620  -0.156  53.703  1.00  0.00     0.063 A 
HETATM    4  C2  UNL     1      22.824   0.289  52.666  1.00  0.00     0.112 A 
HETATM    5  C3  UNL     1      21.507  -0.118  52.644  1.00  0.00     0.046 A 
HETATM    6 BR1  UNL     1      20.484   0.554  51.160  1.00  0.00    -0.048 Br
HETATM    7  C4  UNL     1      20.967  -0.939  53.606  1.00  0.00     0.022 A 
HETATM    8  C5  UNL     1      21.759  -1.382  54.639  1.00  0.00     0.004 A 
HETATM    9  C6  UNL     1      23.091  -0.979  54.674  1.00  0.00     0.032 A 
BRANCH   4  10
HETATM   10  O1  UNL     1      23.381   1.115  51.704  1.00  0.00    -0.352 OA
HETATM   11  C1  UNL     1      23.498   2.510  51.849  1.00  0.00     0.210 C 
ENDBRANCH   4  10
ENDBRANCH   1   3
BRANCH   1  12
HETATM   12  C8  UNL     1      26.183  -0.589  53.676  1.00  0.00     0.134 C 
HETATM   13  C9  UNL     1      26.313  -1.265  52.325  1.00  0.00     0.032 C 
HETATM   14  C10 UNL     1      27.267  -2.417  52.555  1.00  0.00     0.007 C 
HETATM   15  C11 UNL     1      28.565  -1.968  53.165  1.00  0.00     0.042 C 
HETATM   16  C12 UNL     1      28.537  -0.531  53.521  1.00  0.00    -0.014 A 
HETATM   17  C13 UNL     1      29.793   0.080  53.579  1.00  0.00     0.127 A 
HETATM   18  C15 UNL     1      27.423   0.260  53.796  1.00  0.00     0.066 A 
HETATM   19  N2  UNL     1      29.888   1.402  53.897  1.00  0.00    -0.254 NA
HETATM   20  C14 UNL     1      28.764   2.124  54.157  1.00  0.00     0.232 A 
HETATM   21  N3  UNL     1      27.548   1.553  54.105  1.00  0.00    -0.244 NA
ENDBRANCH   1  12
TORSDOF 3
ENDMDL
MODEL 3
REMARK VINA RESULT:      -7.4      3.097      6.419
REMARK  3 active torsions:
REMARK  status: ('A' for Active; 'I' for Inactive)
REMARK    1  A    between atoms: O1_2  and  C2_3 
REMARK    2  A    between atoms: C7_9  and  N1_10 
REMARK    3  A    between atoms: N1_10  and  C8_11 
ROOT
HETATM    1  N1  UNL     1      24.897   0.253  53.417  1.00  0.00    -0.378 N 
HETATM    2  H7  UNL     1      24.710  -0.771  53.632  1.00  0.00     0.160 HD
ENDROOT
BRANCH   1   3
HETATM    3  C7  UNL     1      26.266   0.632  53.506  1.00  0.00     0.063 A 
HETATM    4  C2  UNL     1      27.315  -0.265  53.542  1.00  0.00     0.112 A 
HETATM    5  C3  UNL     1      28.595   0.241  53.625  1.00  0.00     0.046 A 
HETATM    6 BR1  UNL     1      29.983  -1.089  53.669  1.00  0.00    -0.048 Br
HETATM    7  C4  UNL     1      28.858   1.590  53.672  1.00  0.00     0.022 A 
HETATM    8  C5  UNL     1      27.815   2.484  53.635  1.00  0.00     0.004 A 
HETATM    9  C6  UNL     1      26.517   1.987  53.552  1.00  0.00     0.032 A 
BRANCH   4  10
HETATM   10  O1  UNL     1      27.035  -1.620  53.495  1.00  0.00    -0.352 OA
HETATM   11  C1  UNL     1      26.887  -2.344  52.296  1.00  0.00     0.210 C 
ENDBRANCH   4  10
ENDBRANCH   1   3
BRANCH   1  12
HETATM   12  C8  UNL     1      23.726   0.996  53.091  1.00  0.00     0.134 C 
HETATM   13  C9  UNL     1      23.596   1.372  51.628  1.00  0.00     0.032 C 
HETATM   14  C10 UNL     1      22.671   2.571  51.613  1.00  0.00     0.007 C 
HETATM   15  C11 UNL     1      21.371   2.295  52.314  1.00  0.00     0.042 C 
HETATM   16  C12 UNL     1      21.370   0.967  52.968  1.00  0.00    -0.014 A 
HETATM   17  C13 UNL     1      20.100   0.414  53.164  1.00  0.00     0.127 A 
HETATM   18  C15 UNL     1      22.468   0.224  53.398  1.00  0.00     0.066 A 
HETATM   19  N2  UNL     1      19.978  -0.806  53.757  1.00  0.00    -0.254 NA
HETATM   20  C14 UNL     1      21.088  -1.485  54.158  1.00  0.00     0.232 A 
HETATM   21  N3  UNL     1      22.317  -0.970  53.977  1.00  0.00    -0.244 NA
ENDBRANCH   1  12
TORSDOF 3
ENDMDL
MODEL 4
REMARK VINA RESULT:      -7.4      1.403      2.312
REMARK  3 active torsions:
REMARK  status: ('A' for Active; 'I' for Inactive)
REMARK    1  A    between atoms: O1_2  and  C2_3 
REMARK    2  A    between atoms: C7_9  and  N1_10 
REMARK    3  A    between atoms: N1_10  and  C8_11 
ROOT
HETATM    1  N1  UNL     1      25.450   0.928  51.640  1.00  0.00    -0.378 N 
HETATM    2  H7  UNL     1      25.485   0.381  50.729  1.00  0.00     0.160 HD
ENDROOT
BRANCH   1   3
HETATM    3  C7  UNL     1      24.151   1.374  52.009  1.00  0.00     0.063 A 
HETATM    4  C2  UNL     1      23.280   0.648  52.797  1.00  0.00     0.112 A 
HETATM    5  C3  UNL     1      22.051   1.204  53.082  1.00  0.00     0.046 A 
HETATM    6 BR1  UNL     1      20.914   0.115  54.187  1.00  0.00    -0.048 Br
HETATM    7  C4  UNL     1      21.668   2.439  52.614  1.00  0.00     0.022 A 
HETATM    8  C5  UNL     1      22.534   3.163  51.830  1.00  0.00     0.004 A 
HETATM    9  C6  UNL     1      23.778   2.614  51.533  1.00  0.00     0.032 A 
BRANCH   4  10
HETATM   10  O1  UNL     1      23.679  -0.594  53.261  1.00  0.00    -0.352 OA
HETATM   11  C1  UNL     1      24.260  -0.803  54.527  1.00  0.00     0.210 C 
ENDBRANCH   4  10
ENDBRANCH   1   3
BRANCH   1  12
HETATM   12  C8  UNL     1      26.720   1.080  52.268  1.00  0.00     0.134 C 
HETATM   13  C9  UNL     1      26.693   1.829  53.586  1.00  0.00     0.032 C 
HETATM   14  C10 UNL     1      28.100   2.359  53.764  1.00  0.00     0.007 C 
HETATM   15  C11 UNL     1      29.134   1.272  53.674  1.00  0.00     0.042 C 
HETATM   16  C12 UNL     1      28.533  -0.027  53.294  1.00  0.00    -0.014 A 
HETATM   17  C13 UNL     1      29.267  -1.148  53.696  1.00  0.00     0.127 A 
HETATM   18  C15 UNL     1      27.346  -0.250  52.599  1.00  0.00     0.066 A 
HETATM   19  N2  UNL     1      28.809  -2.397  53.401  1.00  0.00    -0.254 NA
HETATM   20  C14 UNL     1      27.641  -2.552  52.718  1.00  0.00     0.232 A 
HETATM   21  N3  UNL     1      26.923  -1.487  52.325  1.00  0.00    -0.244 NA
ENDBRANCH   1  12
TORSDOF 3
ENDMDL
MODEL 5
REMARK VINA RESULT:      -7.3      1.708      3.125
REMARK  3 active torsions:
REMARK  status: ('A' for Active; 'I' for Inactive)
REMARK    1  A    between atoms: O1_2  and  C2_3 
REMARK    2  A    between atoms: C7_9  and  N1_10 
REMARK    3  A    between atoms: N1_10  and  C8_11 
ROOT
HETATM    1  N1  UNL     1      25.195   0.109  54.109  1.00  0.00    -0.378 N 
HETATM    2  H7  UNL     1      25.023   0.201  55.154  1.00  0.00     0.160 HD
ENDROOT
BRANCH   1   3
HETATM    3  C7  UNL     1      24.285   0.841  53.296  1.00  0.00     0.063 A 
HETATM    4  C2  UNL     1      23.076   0.344  52.850  1.00  0.00     0.112 A 
HETATM    5  C3  UNL     1      22.288   1.165  52.072  1.00  0.00     0.046 A 
HETATM    6 BR1  UNL     1      20.627   0.381  51.503  1.00  0.00    -0.048 Br
HETATM    7  C4  UNL     1      22.660   2.444  51.730  1.00  0.00     0.022 A 
HETATM    8  C5  UNL     1      23.863   2.940  52.174  1.00  0.00     0.004 A 
HETATM    9  C6  UNL     1      24.669   2.121  52.960  1.00  0.00     0.032 A 
BRANCH   4  10
HETATM   10  O1  UNL     1      22.714  -0.945  53.203  1.00  0.00    -0.352 OA
HETATM   11  C1  UNL     1      22.080  -1.273  54.416  1.00  0.00     0.210 C 
ENDBRANCH   4  10
ENDBRANCH   1   3
BRANCH   1  12
HETATM   12  C8  UNL     1      26.298  -0.731  53.779  1.00  0.00     0.134 C 
HETATM   13  C9  UNL     1      26.300  -1.250  52.355  1.00  0.00     0.032 C 
HETATM   14  C10 UNL     1      27.156  -2.497  52.394  1.00  0.00     0.007 C 
HETATM   15  C11 UNL     1      28.518  -2.235  52.975  1.00  0.00     0.042 C 
HETATM   16  C12 UNL     1      28.637  -0.853  53.493  1.00  0.00    -0.014 A 
HETATM   17  C13 UNL     1      29.945  -0.362  53.547  1.00  0.00     0.127 A 
HETATM   18  C15 UNL     1      27.614  -0.009  53.922  1.00  0.00     0.066 A 
HETATM   19  N2  UNL     1      30.174   0.900  54.008  1.00  0.00    -0.254 NA
HETATM   20  C14 UNL     1      29.134   1.678  54.414  1.00  0.00     0.232 A 
HETATM   21  N3  UNL     1      27.871   1.222  54.369  1.00  0.00    -0.244 NA
ENDBRANCH   1  12
TORSDOF 3
ENDMDL
MODEL 6
REMARK VINA RESULT:      -7.2      2.150      3.812
REMARK  3 active torsions:
REMARK  status: ('A' for Active; 'I' for Inactive)
REMARK    1  A    between atoms: O1_2  and  C2_3 
REMARK    2  A    between atoms: C7_9  and  N1_10 
REMARK    3  A    between atoms: N1_10  and  C8_11 
ROOT
HETATM    1  N1  UNL     1      25.841   1.697  51.634  1.00  0.00    -0.378 N 
HETATM    2  H7  UNL     1      25.105   0.966  51.864  1.00  0.00     0.160 HD
ENDROOT
BRANCH   1   3
HETATM    3  C7  UNL     1      25.396   2.722  50.753  1.00  0.00     0.063 A 
HETATM    4  C2  UNL     1      24.070   2.951  50.442  1.00  0.00     0.112 A 
HETATM    5  C3  UNL     1      23.780   3.984  49.576  1.00  0.00     0.046 A 
HETATM    6 BR1  UNL     1      21.907   4.222  49.209  1.00  0.00    -0.048 Br
HETATM    7  C4  UNL     1      24.752   4.781  49.018  1.00  0.00     0.022 A 
HETATM    8  C5  UNL     1      26.072   4.554  49.327  1.00  0.00     0.004 A 
HETATM    9  C6  UNL     1      26.380   3.514  50.200  1.00  0.00     0.032 A 
BRANCH   4  10
HETATM   10  O1  UNL     1      23.102   2.141  51.011  1.00  0.00    -0.352 OA
HETATM   11  C1  UNL     1      22.621   2.305  52.324  1.00  0.00     0.210 C 
ENDBRANCH   4  10
ENDBRANCH   1   3
BRANCH   1  12
HETATM   12  C8  UNL     1      27.097   1.468  52.266  1.00  0.00     0.134 C 
HETATM   13  C9  UNL     1      27.251   2.113  53.629  1.00  0.00     0.032 C 
HETATM   14  C10 UNL     1      28.745   2.240  53.836  1.00  0.00     0.007 C 
HETATM   15  C11 UNL     1      29.455   0.925  53.674  1.00  0.00     0.042 C 
HETATM   16  C12 UNL     1      28.537  -0.142  53.215  1.00  0.00    -0.014 A 
HETATM   17  C13 UNL     1      28.942  -1.440  53.542  1.00  0.00     0.127 A 
HETATM   18  C15 UNL     1      27.343   0.001  52.511  1.00  0.00     0.066 A 
HETATM   19  N2  UNL     1      28.174  -2.502  53.171  1.00  0.00    -0.254 NA
HETATM   20  C14 UNL     1      27.017  -2.300  52.482  1.00  0.00     0.232 A 
HETATM   21  N3  UNL     1      26.612  -1.060  52.160  1.00  0.00    -0.244 NA
ENDBRANCH   1  12
TORSDOF 3
ENDMDL
MODEL 7
REMARK VINA RESULT:      -7.1      3.380      6.311
REMARK  3 active torsions:
REMARK  status: ('A' for Active; 'I' for Inactive)
REMARK    1  A    between atoms: O1_2  and  C2_3 
REMARK    2  A    between atoms: C7_9  and  N1_10 
REMARK    3  A    between atoms: N1_10  and  C8_11 
ROOT
HETATM    1  N1  UNL     1      26.031   2.391  52.822  1.00  0.00    -0.378 N 
HETATM    2  H7  UNL     1      25.327   2.488  53.612  1.00  0.00     0.160 HD
ENDROOT
BRANCH   1   3
HETATM    3  C7  UNL     1      27.202   1.658  53.165  1.00  0.00     0.063 A 
HETATM    4  C2  UNL     1      27.336   0.294  52.995  1.00  0.00     0.112 A 
HETATM    5  C3  UNL     1      28.530  -0.288  53.366  1.00  0.00     0.046 A 
HETATM    6 BR1  UNL     1      28.616  -2.189  53.089  1.00  0.00    -0.048 Br
HETATM    7  C4  UNL     1      29.576   0.434  53.892  1.00  0.00     0.022 A 
HETATM    8  C5  UNL     1      29.443   1.792  54.062  1.00  0.00     0.004 A 
HETATM    9  C6  UNL     1      28.243   2.392  53.692  1.00  0.00     0.032 A 
BRANCH   4  10
HETATM   10  O1  UNL     1      26.275  -0.419  52.464  1.00  0.00    -0.352 OA
HETATM   11  C1  UNL     1      25.213  -0.928  53.237  1.00  0.00     0.210 C 
ENDBRANCH   4  10
ENDBRANCH   1   3
BRANCH   1  12
HETATM   12  C8  UNL     1      25.628   3.023  51.610  1.00  0.00     0.134 C 
HETATM   13  C9  UNL     1      26.590   2.850  50.451  1.00  0.00     0.032 C 
HETATM   14  C10 UNL     1      26.291   4.006  49.520  1.00  0.00     0.007 C 
HETATM   15  C11 UNL     1      24.840   4.066  49.135  1.00  0.00     0.042 C 
HETATM   16  C12 UNL     1      24.034   3.065  49.871  1.00  0.00    -0.014 A 
HETATM   17  C13 UNL     1      22.851   2.684  49.230  1.00  0.00     0.127 A 
HETATM   18  C15 UNL     1      24.319   2.476  51.102  1.00  0.00     0.066 A 
HETATM   19  N2  UNL     1      22.031   1.767  49.815  1.00  0.00    -0.254 NA
HETATM   20  C14 UNL     1      22.361   1.226  51.020  1.00  0.00     0.232 A 
HETATM   21  N3  UNL     1      23.494   1.581  51.650  1.00  0.00    -0.244 NA
ENDBRANCH   1  12
TORSDOF 3
ENDMDL
MODEL 8
REMARK VINA RESULT:      -7.1      2.850      4.250
REMARK  3 active torsions:
REMARK  status: ('A' for Active; 'I' for Inactive)
REMARK    1  A    between atoms: O1_2  and  C2_3 
REMARK    2  A    between atoms: C7_9  and  N1_10 
REMARK    3  A    between atoms: N1_10  and  C8_11 
ROOT
HETATM    1  N1  UNL     1      24.985   3.363  52.923  1.00  0.00    -0.378 N 
HETATM    2  H7  UNL     1      25.710   4.045  53.295  1.00  0.00     0.160 HD
ENDROOT
BRANCH   1   3
HETATM    3  C7  UNL     1      24.024   3.945  52.050  1.00  0.00     0.063 A 
HETATM    4  C2  UNL     1      24.329   4.488  50.818  1.00  0.00     0.112 A 
HETATM    5  C3  UNL     1      23.296   5.016  50.072  1.00  0.00     0.046 A 
HETATM    6 BR1  UNL     1      23.824   5.745  48.373  1.00  0.00    -0.048 Br
HETATM    7  C4  UNL     1      21.991   5.020  50.508  1.00  0.00     0.022 A 
HETATM    8  C5  UNL     1      21.687   4.479  51.735  1.00  0.00     0.004 A 
HETATM    9  C6  UNL     1      22.720   3.943  52.499  1.00  0.00     0.032 A 
BRANCH   4  10
HETATM   10  O1  UNL     1      25.646   4.477  50.391  1.00  0.00    -0.352 OA
HETATM   11  C1  UNL     1      26.266   3.356  49.807  1.00  0.00     0.210 C 
ENDBRANCH   4  10
ENDBRANCH   1   3
BRANCH   1  12
HETATM   12  C8  UNL     1      25.156   2.028  53.391  1.00  0.00     0.134 C 
HETATM   13  C9  UNL     1      24.758   0.950  52.403  1.00  0.00     0.032 C 
HETATM   14  C10 UNL     1      24.472  -0.272  53.250  1.00  0.00     0.007 C 
HETATM   15  C11 UNL     1      25.628  -0.627  54.144  1.00  0.00     0.042 C 
HETATM   16  C12 UNL     1      26.705   0.386  54.077  1.00  0.00    -0.014 A 
HETATM   17  C13 UNL     1      27.975  -0.091  54.419  1.00  0.00     0.127 A 
HETATM   18  C15 UNL     1      26.596   1.729  53.720  1.00  0.00     0.066 A 
HETATM   19  N2  UNL     1      29.044   0.754  54.392  1.00  0.00    -0.254 NA
HETATM   20  C14 UNL     1      28.876   2.057  54.036  1.00  0.00     0.232 A 
HETATM   21  N3  UNL     1      27.663   2.532  53.704  1.00  0.00    -0.244 NA
ENDBRANCH   1  12
TORSDOF 3
ENDMDL
MODEL 9
REMARK VINA RESULT:      -7.1      2.401      4.281
REMARK  3 active torsions:
REMARK  status: ('A' for Active; 'I' for Inactive)
REMARK    1  A    between atoms: O1_2  and  C2_3 
REMARK    2  A    between atoms: C7_9  and  N1_10 
REMARK    3  A    between atoms: N1_10  and  C8_11 
ROOT
HETATM    1  N1  UNL     1      24.907   3.226  52.889  1.00  0.00    -0.378 N 
HETATM    2  H7  UNL     1      25.065   4.039  53.555  1.00  0.00     0.160 HD
ENDROOT
BRANCH   1   3
HETATM    3  C7  UNL     1      24.529   3.610  51.572  1.00  0.00     0.063 A 
HETATM    4  C2  UNL     1      23.230   3.881  51.190  1.00  0.00     0.112 A 
HETATM    5  C3  UNL     1      23.005   4.248  49.880  1.00  0.00     0.046 A 
HETATM    6 BR1  UNL     1      21.165   4.605  49.450  1.00  0.00    -0.048 Br
HETATM    7  C4  UNL     1      24.017   4.352  48.954  1.00  0.00     0.022 A 
HETATM    8  C5  UNL     1      25.311   4.082  49.333  1.00  0.00     0.004 A 
HETATM    9  C6  UNL     1      25.552   3.710  50.653  1.00  0.00     0.032 A 
BRANCH   4  10
HETATM   10  O1  UNL     1      22.222   3.774  52.133  1.00  0.00    -0.352 OA
HETATM   11  C1  UNL     1      21.473   2.600  52.343  1.00  0.00     0.210 C 
ENDBRANCH   4  10
ENDBRANCH   1   3
BRANCH   1  12
HETATM   12  C8  UNL     1      25.114   1.947  53.482  1.00  0.00     0.134 C 
HETATM   13  C9  UNL     1      24.705   0.771  52.618  1.00  0.00     0.032 C 
HETATM   14  C10 UNL     1      24.464  -0.364  53.591  1.00  0.00     0.007 C 
HETATM   15  C11 UNL     1      25.652  -0.613  54.478  1.00  0.00     0.042 C 
HETATM   16  C12 UNL     1      26.710   0.402  54.278  1.00  0.00    -0.014 A 
HETATM   17  C13 UNL     1      27.997  -0.021  54.625  1.00  0.00     0.127 A 
HETATM   18  C15 UNL     1      26.568   1.702  53.793  1.00  0.00     0.066 A 
HETATM   19  N2  UNL     1      29.050   0.832  54.482  1.00  0.00    -0.254 NA
HETATM   20  C14 UNL     1      28.850   2.090  54.003  1.00  0.00     0.232 A 
HETATM   21  N3  UNL     1      27.620   2.514  53.664  1.00  0.00    -0.244 NA
ENDBRANCH   1  12
TORSDOF 3
ENDMDL
