MODEL 1
REMARK VINA RESULT:      -7.8      0.000      0.000
REMARK  5 active torsions:
REMARK  status: ('A' for Active; 'I' for Inactive)
REMARK    1  A    between atoms: O1_2  and  C2_3 
REMARK    2  A    between atoms: C2_3  and  C3_4 
REMARK    3  A    between atoms: C9_13  and  O2_14 
REMARK    4  A    between atoms: C11_16  and  O3_17 
REMARK    5  A    between atoms: C13_19  and  O4_20 
ROOT
HETATM    1  C3  UNL     1      20.292   0.472  51.438  1.00  0.00     0.171 C 
HETATM    2  C4  UNL     1      21.546   1.262  51.504  1.00  0.00     0.020 C 
HETATM    3  C5  UNL     1      22.219   2.370  51.642  1.00  0.00     0.006 A 
HETATM    4  C6  UNL     1      21.235   3.413  51.833  1.00  0.00     0.192 A 
HETATM    5  N1  UNL     1      21.713   4.745  52.087  1.00  0.00    -0.278 NA
HETATM    6  C7  UNL     1      22.896   5.166  52.159  1.00  0.00     0.229 A 
HETATM    7  N2  UNL     1      23.773   4.100  51.950  1.00  0.00    -0.224 NA
HETATM    8  C8  UNL     1      23.530   2.876  51.721  1.00  0.00     0.138 A 
HETATM    9  N3  UNL     1      24.935   2.578  51.666  1.00  0.00    -0.321 N 
HETATM   10  C9  UNL     1      26.271   2.334  51.821  1.00  0.00     0.144 C 
HETATM   11  C10 UNL     1      26.303   1.371  52.649  1.00  0.00     0.095 C 
HETATM   12  C11 UNL     1      26.487   0.269  53.592  1.00  0.00     0.105 C 
HETATM   13  C13 UNL     1      25.503  -0.327  54.143  1.00  0.00     0.098 C 
HETATM   14  C15 UNL     1      24.190   0.225  53.853  1.00  0.00     0.044 C 
HETATM   15  C16 UNL     1      23.011  -0.379  54.315  1.00  0.00     0.026 C 
HETATM   16  C17 UNL     1      21.519  -0.094  54.231  1.00  0.00     0.175 C 
HETATM   17  O5  UNL     1      20.917  -1.113  53.522  1.00  0.00    -0.367 OA
HETATM   18  C18 UNL     1      19.597  -0.698  53.306  1.00  0.00     0.338 C 
HETATM   19  O6  UNL     1      19.645   0.491  52.662  1.00  0.00    -0.356 OA
HETATM   20  H11 UNL     1      24.880   2.312  50.623  1.00  0.00     0.169 HD
ENDROOT
BRANCH   1  21
HETATM   21  C2  UNL     1      19.311   1.011  50.431  1.00  0.00     0.203 C 
BRANCH  21  22
HETATM   22  O1  UNL     1      20.021   1.344  49.263  1.00  0.00    -0.393 OA
HETATM   23  C1  UNL     1      19.492   2.481  48.656  1.00  0.00     0.201 C 
ENDBRANCH  21  22
ENDBRANCH   1  21
BRANCH  10  24
HETATM   24  O2  UNL     1      27.230   3.072  51.153  1.00  0.00    -0.346 OA
HETATM   25  H12 UNL     1      28.086   3.282  51.649  1.00  0.00     0.219 HD
ENDBRANCH  10  24
BRANCH  12  26
HETATM   26  O3  UNL     1      27.505  -0.465  54.181  1.00  0.00    -0.353 OA
HETATM   27  C12 UNL     1      28.634   0.044  54.808  1.00  0.00     0.210 C 
ENDBRANCH  12  26
BRANCH  13  28
HETATM   28  O4  UNL     1      25.254  -1.357  55.003  1.00  0.00    -0.353 OA
HETATM   29  C14 UNL     1      25.219  -1.070  56.429  1.00  0.00     0.210 C 
ENDBRANCH  13  28
TORSDOF 5
ENDMDL
MODEL 2
REMARK VINA RESULT:      -7.7      1.912      6.342
REMARK  5 active torsions:
REMARK  status: ('A' for Active; 'I' for Inactive)
REMARK    1  A    between atoms: O1_2  and  C2_3 
REMARK    2  A    between atoms: C2_3  and  C3_4 
REMARK    3  A    between atoms: C9_13  and  O2_14 
REMARK    4  A    between atoms: C11_16  and  O3_17 
REMARK    5  A    between atoms: C13_19  and  O4_20 
ROOT
HETATM    1  C3  UNL     1      26.101   0.847  54.269  1.00  0.00     0.171 C 
HETATM    2  C4  UNL     1      25.531   1.906  53.400  1.00  0.00     0.020 C 
HETATM    3  C5  UNL     1      25.508   2.643  52.325  1.00  0.00     0.006 A 
HETATM    4  C6  UNL     1      26.646   2.229  51.532  1.00  0.00     0.192 A 
HETATM    5  N1  UNL     1      26.819   2.839  50.242  1.00  0.00    -0.278 NA
HETATM    6  C7  UNL     1      26.121   3.718  49.676  1.00  0.00     0.229 A 
HETATM    7  N2  UNL     1      25.060   4.066  50.514  1.00  0.00    -0.224 NA
HETATM    8  C8  UNL     1      24.753   3.632  51.667  1.00  0.00     0.138 A 
HETATM    9  N3  UNL     1      23.604   4.493  51.716  1.00  0.00    -0.321 N 
HETATM   10  C9  UNL     1      22.430   5.187  51.612  1.00  0.00     0.144 C 
HETATM   11  C10 UNL     1      21.547   4.323  51.903  1.00  0.00     0.095 C 
HETATM   12  C11 UNL     1      20.429   3.434  52.217  1.00  0.00     0.105 C 
HETATM   13  C13 UNL     1      20.601   2.210  52.533  1.00  0.00     0.098 C 
HETATM   14  C15 UNL     1      21.971   1.727  52.464  1.00  0.00     0.044 C 
HETATM   15  C16 UNL     1      22.324   0.432  52.868  1.00  0.00     0.026 C 
HETATM   16  C17 UNL     1      23.598  -0.399  52.923  1.00  0.00     0.175 C 
HETATM   17  O5  UNL     1      23.883  -0.679  54.244  1.00  0.00    -0.367 OA
HETATM   18  C18 UNL     1      25.156  -1.262  54.242  1.00  0.00     0.338 C 
HETATM   19  O6  UNL     1      26.002  -0.388  53.652  1.00  0.00    -0.356 OA
HETATM   20  H11 UNL     1      24.011   5.059  52.538  1.00  0.00     0.169 HD
ENDROOT
BRANCH   1  21
HETATM   21  C2  UNL     1      27.560   1.057  54.571  1.00  0.00     0.203 C 
BRANCH  21  22
HETATM   22  O1  UNL     1      28.129  -0.193  54.870  1.00  0.00    -0.393 OA
HETATM   23  C1  UNL     1      29.315  -0.393  54.164  1.00  0.00     0.201 C 
ENDBRANCH  21  22
ENDBRANCH   1  21
BRANCH  10  24
HETATM   24  O2  UNL     1      22.401   6.522  51.253  1.00  0.00    -0.346 OA
HETATM   25  H12 UNL     1      21.564   6.864  50.800  1.00  0.00     0.219 HD
ENDBRANCH  10  24
BRANCH  12  26
HETATM   26  O3  UNL     1      19.046   3.458  52.307  1.00  0.00    -0.353 OA
HETATM   27  C12 UNL     1      18.161   3.865  51.318  1.00  0.00     0.210 C 
ENDBRANCH  12  26
BRANCH  13  28
HETATM   28  O4  UNL     1      19.877   1.115  52.905  1.00  0.00    -0.353 OA
HETATM   29  C14 UNL     1      19.211   0.344  51.864  1.00  0.00     0.210 C 
ENDBRANCH  13  28
TORSDOF 5
ENDMDL
MODEL 3
REMARK VINA RESULT:      -7.2      2.509      7.147
REMARK  5 active torsions:
REMARK  status: ('A' for Active; 'I' for Inactive)
REMARK    1  A    between atoms: O1_2  and  C2_3 
REMARK    2  A    between atoms: C2_3  and  C3_4 
REMARK    3  A    between atoms: C9_13  and  O2_14 
REMARK    4  A    between atoms: C11_16  and  O3_17 
REMARK    5  A    between atoms: C13_19  and  O4_20 
ROOT
HETATM    1  C3  UNL     1      26.131   0.017  52.742  1.00  0.00     0.171 C 
HETATM    2  C4  UNL     1      24.650  -0.059  52.690  1.00  0.00     0.020 C 
HETATM    3  C5  UNL     1      23.484  -0.403  53.161  1.00  0.00     0.006 A 
HETATM    4  C6  UNL     1      23.744  -1.088  54.409  1.00  0.00     0.192 A 
HETATM    5  N1  UNL     1      22.612  -1.516  55.185  1.00  0.00    -0.278 NA
HETATM    6  C7  UNL     1      21.385  -1.398  54.936  1.00  0.00     0.229 A 
HETATM    7  N2  UNL     1      21.229  -0.741  53.714  1.00  0.00    -0.224 NA
HETATM    8  C8  UNL     1      22.104  -0.293  52.910  1.00  0.00     0.138 A 
HETATM    9  N3  UNL     1      21.082   0.185  52.020  1.00  0.00    -0.321 N 
HETATM   10  C9  UNL     1      20.067   0.782  51.325  1.00  0.00     0.144 C 
HETATM   11  C10 UNL     1      20.460   1.983  51.200  1.00  0.00     0.095 C 
HETATM   12  C11 UNL     1      20.785   3.392  50.982  1.00  0.00     0.105 C 
HETATM   13  C13 UNL     1      21.871   3.913  51.404  1.00  0.00     0.098 C 
HETATM   14  C15 UNL     1      22.718   3.042  52.203  1.00  0.00     0.044 C 
HETATM   15  C16 UNL     1      23.982   3.448  52.658  1.00  0.00     0.026 C 
HETATM   16  C17 UNL     1      25.099   2.845  53.496  1.00  0.00     0.175 C 
HETATM   17  O5  UNL     1      26.219   2.707  52.701  1.00  0.00    -0.367 OA
HETATM   18  C18 UNL     1      27.136   1.970  53.461  1.00  0.00     0.338 C 
HETATM   19  O6  UNL     1      26.537   0.807  53.804  1.00  0.00    -0.356 OA
HETATM   20  H11 UNL     1      21.378  -0.500  51.244  1.00  0.00     0.169 HD
ENDROOT
BRANCH   1  21
HETATM   21  C2  UNL     1      26.781  -1.327  52.939  1.00  0.00     0.203 C 
BRANCH  21  22
HETATM   22  O1  UNL     1      27.853  -1.167  53.834  1.00  0.00    -0.393 OA
HETATM   23  C1  UNL     1      29.061  -1.544  53.250  1.00  0.00     0.201 C 
ENDBRANCH  21  22
ENDBRANCH   1  21
BRANCH  10  24
HETATM   24  O2  UNL     1      18.940   0.083  50.934  1.00  0.00    -0.346 OA
HETATM   25  H12 UNL     1      18.120   0.156  51.522  1.00  0.00     0.219 HD
ENDBRANCH  10  24
BRANCH  12  26
HETATM   26  O3  UNL     1      20.252   4.526  50.389  1.00  0.00    -0.353 OA
HETATM   27  C12 UNL     1      19.353   4.560  49.332  1.00  0.00     0.210 C 
ENDBRANCH  12  26
BRANCH  13  28
HETATM   28  O4  UNL     1      22.533   5.106  51.388  1.00  0.00    -0.353 OA
HETATM   29  C14 UNL     1      23.159   5.530  50.144  1.00  0.00     0.210 C 
ENDBRANCH  13  28
TORSDOF 5
ENDMDL
MODEL 4
REMARK VINA RESULT:      -7.1      2.565      4.047
REMARK  5 active torsions:
REMARK  status: ('A' for Active; 'I' for Inactive)
REMARK    1  A    between atoms: O1_2  and  C2_3 
REMARK    2  A    between atoms: C2_3  and  C3_4 
REMARK    3  A    between atoms: C9_13  and  O2_14 
REMARK    4  A    between atoms: C11_16  and  O3_17 
REMARK    5  A    between atoms: C13_19  and  O4_20 
ROOT
HETATM    1  C3  UNL     1      21.809   3.529  47.250  1.00  0.00     0.171 C 
HETATM    2  C4  UNL     1      22.907   3.701  48.233  1.00  0.00     0.020 C 
HETATM    3  C5  UNL     1      23.673   4.413  49.011  1.00  0.00     0.006 A 
HETATM    4  C6  UNL     1      23.245   5.785  48.844  1.00  0.00     0.192 A 
HETATM    5  N1  UNL     1      23.884   6.787  49.655  1.00  0.00    -0.278 NA
HETATM    6  C7  UNL     1      24.798   6.658  50.507  1.00  0.00     0.229 A 
HETATM    7  N2  UNL     1      25.155   5.311  50.593  1.00  0.00    -0.224 NA
HETATM    8  C8  UNL     1      24.700   4.304  49.967  1.00  0.00     0.138 A 
HETATM    9  N3  UNL     1      25.593   3.427  50.673  1.00  0.00    -0.321 N 
HETATM   10  C9  UNL     1      26.324   2.635  51.514  1.00  0.00     0.144 C 
HETATM   11  C10 UNL     1      25.478   1.783  51.929  1.00  0.00     0.095 C 
HETATM   12  C11 UNL     1      24.615   0.743  52.487  1.00  0.00     0.105 C 
HETATM   13  C13 UNL     1      23.379   0.651  52.186  1.00  0.00     0.098 C 
HETATM   14  C15 UNL     1      22.858   1.707  51.332  1.00  0.00     0.044 C 
HETATM   15  C16 UNL     1      21.542   1.689  50.846  1.00  0.00     0.026 C 
HETATM   16  C17 UNL     1      20.673   2.587  49.979  1.00  0.00     0.175 C 
HETATM   17  O5  UNL     1      20.351   1.905  48.825  1.00  0.00    -0.367 OA
HETATM   18  C18 UNL     1      19.730   2.842  47.989  1.00  0.00     0.338 C 
HETATM   19  O6  UNL     1      20.594   3.869  47.819  1.00  0.00    -0.356 OA
HETATM   20  H11 UNL     1      26.124   3.174  49.770  1.00  0.00     0.169 HD
ENDROOT
BRANCH   1  21
HETATM   21  C2  UNL     1      21.968   4.403  46.034  1.00  0.00     0.203 C 
BRANCH  21  22
HETATM   22  O1  UNL     1      21.908   3.581  44.894  1.00  0.00    -0.393 OA
HETATM   23  C1  UNL     1      20.814   3.906  44.093  1.00  0.00     0.201 C 
ENDBRANCH  21  22
ENDBRANCH   1  21
BRANCH  10  24
HETATM   24  O2  UNL     1      27.668   2.861  51.745  1.00  0.00    -0.346 OA
HETATM   25  H12 UNL     1      28.075   2.441  52.571  1.00  0.00     0.219 HD
ENDBRANCH  10  24
BRANCH  12  26
HETATM   26  O3  UNL     1      24.678  -0.338  53.353  1.00  0.00    -0.353 OA
HETATM   27  C12 UNL     1      25.503  -0.460  54.463  1.00  0.00     0.210 C 
ENDBRANCH  12  26
BRANCH  13  28
HETATM   28  O4  UNL     1      22.296  -0.138  52.444  1.00  0.00    -0.353 OA
HETATM   29  C14 UNL     1      21.691  -0.066  53.767  1.00  0.00     0.210 C 
ENDBRANCH  13  28
TORSDOF 5
ENDMDL
MODEL 5
REMARK VINA RESULT:      -7.0      2.509      5.391
REMARK  5 active torsions:
REMARK  status: ('A' for Active; 'I' for Inactive)
REMARK    1  A    between atoms: O1_2  and  C2_3 
REMARK    2  A    between atoms: C2_3  and  C3_4 
REMARK    3  A    between atoms: C9_13  and  O2_14 
REMARK    4  A    between atoms: C11_16  and  O3_17 
REMARK    5  A    between atoms: C13_19  and  O4_20 
ROOT
HETATM    1  C3  UNL     1      24.787   4.902  49.728  1.00  0.00     0.171 C 
HETATM    2  C4  UNL     1      23.942   3.781  50.209  1.00  0.00     0.020 C 
HETATM    3  C5  UNL     1      23.068   2.829  50.046  1.00  0.00     0.006 A 
HETATM    4  C6  UNL     1      22.701   2.860  48.646  1.00  0.00     0.192 A 
HETATM    5  N1  UNL     1      21.792   1.852  48.170  1.00  0.00    -0.278 NA
HETATM    6  C7  UNL     1      21.232   0.922  48.804  1.00  0.00     0.229 A 
HETATM    7  N2  UNL     1      21.631   0.977  50.141  1.00  0.00    -0.224 NA
HETATM    8  C8  UNL     1      22.419   1.781  50.726  1.00  0.00     0.138 A 
HETATM    9  N3  UNL     1      22.233   1.099  51.977  1.00  0.00    -0.321 N 
HETATM   10  C9  UNL     1      22.163   0.291  53.078  1.00  0.00     0.144 C 
HETATM   11  C10 UNL     1      23.381   0.098  53.382  1.00  0.00     0.095 C 
HETATM   12  C11 UNL     1      24.733  -0.209  53.844  1.00  0.00     0.105 C 
HETATM   13  C13 UNL     1      25.772   0.246  53.259  1.00  0.00     0.098 C 
HETATM   14  C15 UNL     1      25.528   1.006  52.044  1.00  0.00     0.044 C 
HETATM   15  C16 UNL     1      26.565   1.643  51.345  1.00  0.00     0.026 C 
HETATM   16  C17 UNL     1      26.693   2.478  50.080  1.00  0.00     0.175 C 
HETATM   17  O5  UNL     1      27.114   3.744  50.430  1.00  0.00    -0.367 OA
HETATM   18  C18 UNL     1      27.018   4.513  49.264  1.00  0.00     0.338 C 
HETATM   19  O6  UNL     1      25.738   4.440  48.834  1.00  0.00    -0.356 OA
HETATM   20  H11 UNL     1      21.758   1.958  52.422  1.00  0.00     0.169 HD
ENDROOT
BRANCH   1  21
HETATM   21  C2  UNL     1      24.001   5.962  49.004  1.00  0.00     0.203 C 
BRANCH  21  22
HETATM   22  O1  UNL     1      24.712   7.172  49.093  1.00  0.00    -0.393 OA
HETATM   23  C1  UNL     1      25.011   7.487  50.417  1.00  0.00     0.201 C 
ENDBRANCH  21  22
ENDBRANCH   1  21
BRANCH  10  24
HETATM   24  O2  UNL     1      20.953  -0.126  53.601  1.00  0.00    -0.346 OA
HETATM   25  H12 UNL     1      20.837  -1.116  53.774  1.00  0.00     0.219 HD
ENDBRANCH  10  24
BRANCH  12  26
HETATM   26  O3  UNL     1      25.378  -0.923  54.842  1.00  0.00    -0.353 OA
HETATM   27  C12 UNL     1      24.864  -1.245  56.091  1.00  0.00     0.210 C 
ENDBRANCH  12  26
BRANCH  13  28
HETATM   28  O4  UNL     1      27.131   0.227  53.378  1.00  0.00    -0.353 OA
HETATM   29  C14 UNL     1      27.834  -1.002  53.040  1.00  0.00     0.210 C 
ENDBRANCH  13  28
TORSDOF 5
ENDMDL
MODEL 6
REMARK VINA RESULT:      -6.9      2.900      6.341
REMARK  5 active torsions:
REMARK  status: ('A' for Active; 'I' for Inactive)
REMARK    1  A    between atoms: O1_2  and  C2_3 
REMARK    2  A    between atoms: C2_3  and  C3_4 
REMARK    3  A    between atoms: C9_13  and  O2_14 
REMARK    4  A    between atoms: C11_16  and  O3_17 
REMARK    5  A    between atoms: C13_19  and  O4_20 
ROOT
HETATM    1  C3  UNL     1      21.385   1.293  52.431  1.00  0.00     0.171 C 
HETATM    2  C4  UNL     1      22.569   2.081  52.008  1.00  0.00     0.020 C 
HETATM    3  C5  UNL     1      23.846   2.248  51.809  1.00  0.00     0.006 A 
HETATM    4  C6  UNL     1      24.478   1.009  52.211  1.00  0.00     0.192 A 
HETATM    5  N1  UNL     1      25.899   0.892  52.023  1.00  0.00    -0.278 NA
HETATM    6  C7  UNL     1      26.713   1.731  51.561  1.00  0.00     0.229 A 
HETATM    7  N2  UNL     1      26.022   2.893  51.213  1.00  0.00    -0.224 NA
HETATM    8  C8  UNL     1      24.786   3.165  51.302  1.00  0.00     0.138 A 
HETATM    9  N3  UNL     1      25.004   4.470  50.740  1.00  0.00    -0.321 N 
HETATM   10  C9  UNL     1      25.253   5.608  50.024  1.00  0.00     0.144 C 
HETATM   11  C10 UNL     1      24.384   5.573  49.098  1.00  0.00     0.095 C 
HETATM   12  C11 UNL     1      23.441   5.660  47.984  1.00  0.00     0.105 C 
HETATM   13  C13 UNL     1      22.549   4.772  47.777  1.00  0.00     0.098 C 
HETATM   14  C15 UNL     1      22.593   3.616  48.658  1.00  0.00     0.044 C 
HETATM   15  C16 UNL     1      21.622   2.605  48.607  1.00  0.00     0.026 C 
HETATM   16  C17 UNL     1      21.357   1.291  49.328  1.00  0.00     0.175 C 
HETATM   17  O5  UNL     1      20.175   1.406  50.028  1.00  0.00    -0.367 OA
HETATM   18  C18 UNL     1      20.091   0.255  50.822  1.00  0.00     0.338 C 
HETATM   19  O6  UNL     1      21.203   0.208  51.590  1.00  0.00    -0.356 OA
HETATM   20  H11 UNL     1      24.711   4.959  51.654  1.00  0.00     0.169 HD
ENDROOT
BRANCH   1  21
HETATM   21  C2  UNL     1      21.517   0.735  53.822  1.00  0.00     0.203 C 
BRANCH  21  22
HETATM   22  O1  UNL     1      21.755  -0.647  53.718  1.00  0.00    -0.393 OA
HETATM   23  C1  UNL     1      22.428  -1.131  54.839  1.00  0.00     0.201 C 
ENDBRANCH  21  22
ENDBRANCH   1  21
BRANCH  10  24
HETATM   24  O2  UNL     1      26.266   6.482  50.372  1.00  0.00    -0.346 OA
HETATM   25  H12 UNL     1      26.902   6.190  51.102  1.00  0.00     0.219 HD
ENDBRANCH  10  24
BRANCH  12  26
HETATM   26  O3  UNL     1      23.129   6.491  46.920  1.00  0.00    -0.353 OA
HETATM   27  C12 UNL     1      23.766   7.679  46.585  1.00  0.00     0.210 C 
ENDBRANCH  12  26
BRANCH  13  28
HETATM   28  O4  UNL     1      21.518   4.505  46.923  1.00  0.00    -0.353 OA
HETATM   29  C14 UNL     1      21.838   4.017  45.589  1.00  0.00     0.210 C 
ENDBRANCH  13  28
TORSDOF 5
ENDMDL
MODEL 7
REMARK VINA RESULT:      -6.8      4.443      7.174
REMARK  5 active torsions:
REMARK  status: ('A' for Active; 'I' for Inactive)
REMARK    1  A    between atoms: O1_2  and  C2_3 
REMARK    2  A    between atoms: C2_3  and  C3_4 
REMARK    3  A    between atoms: C9_13  and  O2_14 
REMARK    4  A    between atoms: C11_16  and  O3_17 
REMARK    5  A    between atoms: C13_19  and  O4_20 
ROOT
HETATM    1  C3  UNL     1      14.861   0.904  52.021  1.00  0.00     0.171 C 
HETATM    2  C4  UNL     1      15.992   0.099  52.543  1.00  0.00     0.020 C 
HETATM    3  C5  UNL     1      16.562  -1.021  52.890  1.00  0.00     0.006 A 
HETATM    4  C6  UNL     1      15.582  -2.059  52.650  1.00  0.00     0.192 A 
HETATM    5  N1  UNL     1      15.980  -3.421  52.882  1.00  0.00    -0.278 NA
HETATM    6  C7  UNL     1      17.081  -3.870  53.289  1.00  0.00     0.229 A 
HETATM    7  N2  UNL     1      17.957  -2.805  53.507  1.00  0.00    -0.224 NA
HETATM    8  C8  UNL     1      17.779  -1.557  53.350  1.00  0.00     0.138 A 
HETATM    9  N3  UNL     1      19.125  -1.284  53.775  1.00  0.00    -0.321 N 
HETATM   10  C9  UNL     1      20.463  -1.116  53.996  1.00  0.00     0.144 C 
HETATM   11  C10 UNL     1      20.837  -0.397  53.018  1.00  0.00     0.095 C 
HETATM   12  C11 UNL     1      21.405   0.424  51.950  1.00  0.00     0.105 C 
HETATM   13  C13 UNL     1      20.697   0.879  50.992  1.00  0.00     0.098 C 
HETATM   14  C15 UNL     1      19.309   0.446  50.974  1.00  0.00     0.044 C 
HETATM   15  C16 UNL     1      18.389   0.936  50.034  1.00  0.00     0.026 C 
HETATM   16  C17 UNL     1      16.920   0.713  49.707  1.00  0.00     0.175 C 
HETATM   17  O5  UNL     1      16.238   1.891  49.928  1.00  0.00    -0.367 OA
HETATM   18  C18 UNL     1      14.879   1.572  49.808  1.00  0.00     0.338 C 
HETATM   19  O6  UNL     1      14.614   0.587  50.696  1.00  0.00    -0.356 OA
HETATM   20  H11 UNL     1      18.786  -0.760  54.653  1.00  0.00     0.169 HD
ENDROOT
BRANCH   1  21
HETATM   21  C2  UNL     1      13.575   0.661  52.764  1.00  0.00     0.203 C 
BRANCH  21  22
HETATM   22  O1  UNL     1      13.348   1.756  53.616  1.00  0.00    -0.393 OA
HETATM   23  C1  UNL     1      13.118   2.924  52.890  1.00  0.00     0.201 C 
ENDBRANCH  21  22
ENDBRANCH   1  21
BRANCH  10  24
HETATM   24  O2  UNL     1      21.099  -1.677  55.088  1.00  0.00    -0.346 OA
HETATM   25  H12 UNL     1      21.037  -1.183  55.968  1.00  0.00     0.219 HD
ENDBRANCH  10  24
BRANCH  12  26
HETATM   26  O3  UNL     1      22.620   0.963  51.556  1.00  0.00    -0.353 OA
HETATM   27  C12 UNL     1      23.658   1.358  52.391  1.00  0.00     0.210 C 
ENDBRANCH  12  26
BRANCH  13  28
HETATM   28  O4  UNL     1      20.820   1.660  49.879  1.00  0.00    -0.353 OA
HETATM   29  C14 UNL     1      21.549   1.124  48.739  1.00  0.00     0.210 C 
ENDBRANCH  13  28
TORSDOF 5
ENDMDL
MODEL 8
REMARK VINA RESULT:      -6.7      2.498      6.733
REMARK  5 active torsions:
REMARK  status: ('A' for Active; 'I' for Inactive)
REMARK    1  A    between atoms: O1_2  and  C2_3 
REMARK    2  A    between atoms: C2_3  and  C3_4 
REMARK    3  A    between atoms: C9_13  and  O2_14 
REMARK    4  A    between atoms: C11_16  and  O3_17 
REMARK    5  A    between atoms: C13_19  and  O4_20 
ROOT
HETATM    1  C3  UNL     1      25.388   4.054  49.917  1.00  0.00     0.171 C 
HETATM    2  C4  UNL     1      25.000   2.935  50.810  1.00  0.00     0.020 C 
HETATM    3  C5  UNL     1      25.164   2.162  51.847  1.00  0.00     0.006 A 
HETATM    4  C6  UNL     1      26.376   2.615  52.495  1.00  0.00     0.192 A 
HETATM    5  N1  UNL     1      26.757   1.972  53.724  1.00  0.00    -0.278 NA
HETATM    6  C7  UNL     1      26.190   1.035  54.341  1.00  0.00     0.229 A 
HETATM    7  N2  UNL     1      25.044   0.655  53.642  1.00  0.00    -0.224 NA
HETATM    8  C8  UNL     1      24.559   1.110  52.560  1.00  0.00     0.138 A 
HETATM    9  N3  UNL     1      23.461   0.186  52.631  1.00  0.00    -0.321 N 
HETATM   10  C9  UNL     1      22.351  -0.578  52.864  1.00  0.00     0.144 C 
HETATM   11  C10 UNL     1      21.392   0.243  52.730  1.00  0.00     0.095 C 
HETATM   12  C11 UNL     1      20.196   1.076  52.608  1.00  0.00     0.105 C 
HETATM   13  C13 UNL     1      20.258   2.318  52.322  1.00  0.00     0.098 C 
HETATM   14  C15 UNL     1      21.598   2.876  52.226  1.00  0.00     0.044 C 
HETATM   15  C16 UNL     1      21.823   4.203  51.831  1.00  0.00     0.026 C 
HETATM   16  C17 UNL     1      23.031   5.108  51.639  1.00  0.00     0.175 C 
HETATM   17  O5  UNL     1      23.117   5.448  50.305  1.00  0.00    -0.367 OA
HETATM   18  C18 UNL     1      24.346   6.103  50.158  1.00  0.00     0.338 C 
HETATM   19  O6  UNL     1      25.311   5.260  50.592  1.00  0.00    -0.356 OA
HETATM   20  H11 UNL     1      23.780  -0.327  51.739  1.00  0.00     0.169 HD
ENDROOT
BRANCH   1  21
HETATM   21  C2  UNL     1      26.801   3.939  49.412  1.00  0.00     0.203 C 
BRANCH  21  22
HETATM   22  O1  UNL     1      27.040   5.011  48.533  1.00  0.00    -0.393 OA
HETATM   23  C1  UNL     1      28.403   5.282  48.423  1.00  0.00     0.201 C 
ENDBRANCH  21  22
ENDBRANCH   1  21
BRANCH  10  24
HETATM   24  O2  UNL     1      22.442  -1.924  53.167  1.00  0.00    -0.346 OA
HETATM   25  H12 UNL     1      23.126  -2.200  53.859  1.00  0.00     0.219 HD
ENDBRANCH  10  24
BRANCH  12  26
HETATM   26  O3  UNL     1      18.817   0.975  52.704  1.00  0.00    -0.353 OA
HETATM   27  C12 UNL     1      18.018   0.000  52.122  1.00  0.00     0.210 C 
ENDBRANCH  12  26
BRANCH  13  28
HETATM   28  O4  UNL     1      19.433   3.382  52.098  1.00  0.00    -0.353 OA
HETATM   29  C14 UNL     1      18.741   3.459  50.819  1.00  0.00     0.210 C 
ENDBRANCH  13  28
TORSDOF 5
ENDMDL
MODEL 9
REMARK VINA RESULT:      -6.5      3.132      5.418
REMARK  5 active torsions:
REMARK  status: ('A' for Active; 'I' for Inactive)
REMARK    1  A    between atoms: O1_2  and  C2_3 
REMARK    2  A    between atoms: C2_3  and  C3_4 
REMARK    3  A    between atoms: C9_13  and  O2_14 
REMARK    4  A    between atoms: C11_16  and  O3_17 
REMARK    5  A    between atoms: C13_19  and  O4_20 
ROOT
HETATM    1  C3  UNL     1      18.338   4.000  50.792  1.00  0.00     0.171 C 
HETATM    2  C4  UNL     1      18.746   2.777  51.527  1.00  0.00     0.020 C 
HETATM    3  C5  UNL     1      18.613   1.528  51.874  1.00  0.00     0.006 A 
HETATM    4  C6  UNL     1      17.433   1.047  51.188  1.00  0.00     0.192 A 
HETATM    5  N1  UNL     1      17.093  -0.343  51.338  1.00  0.00    -0.278 NA
HETATM    6  C7  UNL     1      17.671  -1.236  52.007  1.00  0.00     0.229 A 
HETATM    7  N2  UNL     1      18.784  -0.682  52.643  1.00  0.00    -0.224 NA
HETATM    8  C8  UNL     1      19.231   0.506  52.618  1.00  0.00     0.138 A 
HETATM    9  N3  UNL     1      20.319   0.144  53.485  1.00  0.00    -0.321 N 
HETATM   10  C9  UNL     1      21.427  -0.312  54.144  1.00  0.00     0.144 C 
HETATM   11  C10 UNL     1      22.391   0.138  53.451  1.00  0.00     0.095 C 
HETATM   12  C11 UNL     1      23.592   0.589  52.749  1.00  0.00     0.105 C 
HETATM   13  C13 UNL     1      23.535   1.299  51.690  1.00  0.00     0.098 C 
HETATM   14  C15 UNL     1      22.201   1.545  51.167  1.00  0.00     0.044 C 
HETATM   15  C16 UNL     1      21.978   2.381  50.064  1.00  0.00     0.026 C 
HETATM   16  C17 UNL     1      20.775   2.846  49.256  1.00  0.00     0.175 C 
HETATM   17  O5  UNL     1      20.641   4.210  49.413  1.00  0.00    -0.367 OA
HETATM   18  C18 UNL     1      19.416   4.542  48.820  1.00  0.00     0.338 C 
HETATM   19  O6  UNL     1      18.458   3.804  49.427  1.00  0.00    -0.356 OA
HETATM   20  H11 UNL     1      19.958   0.782  54.274  1.00  0.00     0.169 HD
ENDROOT
BRANCH   1  21
HETATM   21  C2  UNL     1      16.904   4.384  51.042  1.00  0.00     0.203 C 
BRANCH  21  22
HETATM   22  O1  UNL     1      16.681   4.361  52.430  1.00  0.00    -0.393 OA
HETATM   23  C1  UNL     1      15.367   4.000  52.726  1.00  0.00     0.201 C 
ENDBRANCH  21  22
ENDBRANCH   1  21
BRANCH  10  24
HETATM   24  O2  UNL     1      21.330  -1.080  55.290  1.00  0.00    -0.346 OA
HETATM   25  H12 UNL     1      22.189  -1.300  55.776  1.00  0.00     0.219 HD
ENDBRANCH  10  24
BRANCH  12  26
HETATM   26  O3  UNL     1      24.972   0.507  52.845  1.00  0.00    -0.353 OA
HETATM   27  C12 UNL     1      25.698  -0.503  53.462  1.00  0.00     0.210 C 
ENDBRANCH  12  26
BRANCH  13  28
HETATM   28  O4  UNL     1      24.365   1.915  50.799  1.00  0.00    -0.353 OA
HETATM   29  C14 UNL     1      24.987   3.171  51.193  1.00  0.00     0.210 C 
ENDBRANCH  13  28
TORSDOF 5
ENDMDL
