MODEL 1
REMARK VINA RESULT:      -8.0      0.000      0.000
REMARK  8 active torsions:
REMARK  status: ('A' for Active; 'I' for Inactive)
REMARK    1  A    between atoms: C2_2  and  S1_3 
REMARK    2  A    between atoms: S1_3  and  N1_6 
REMARK    3  A    between atoms: N1_6  and  C3_7 
REMARK    4  A    between atoms: N1_6  and  C5_10 
REMARK    5  A    between atoms: C3_7  and  C4_8 
REMARK    6  A    between atoms: C4_8  and  O3_9 
REMARK    7  A    between atoms: C5_10  and  C6_11 
REMARK    8  A    between atoms: N2_22  and  C17_23 
ROOT
HETATM    1  C6  UNL     1      25.903   1.524  51.415  1.00  0.00    -0.000 A 
HETATM    2  C7  UNL     1      26.608   2.377  50.687  1.00  0.00     0.031 A 
HETATM    3  C8  UNL     1      25.953   3.604  50.278  1.00  0.00     0.013 A 
HETATM    4  C9  UNL     1      26.524   4.550  49.550  1.00  0.00    -0.001 A 
HETATM    5  C10 UNL     1      27.687   5.099  48.812  1.00  0.00    -0.013 A 
HETATM    6  C11 UNL     1      28.831   5.533  48.142  1.00  0.00     0.013 A 
HETATM    7  C12 UNL     1      28.773   6.756  47.505  1.00  0.00     0.001 A 
HETATM    8  C13 UNL     1      27.610   7.523  47.535  1.00  0.00     0.001 A 
HETATM    9  C14 UNL     1      26.502   7.048  48.213  1.00  0.00     0.013 A 
HETATM   10  C15 UNL     1      26.541   5.829  48.854  1.00  0.00    -0.013 A 
HETATM   11  C16 UNL     1      24.572   3.731  50.736  1.00  0.00     0.110 A 
HETATM   12  N2  UNL     1      23.730   4.665  50.553  1.00  0.00    -0.235 NA
HETATM   13  S2  UNL     1      24.273   2.228  51.663  1.00  0.00    -0.073 SA
ENDROOT
BRANCH   1  14
HETATM   14  C5  UNL     1      26.396   0.204  51.937  1.00  0.00     0.153 C 
BRANCH  14  15
HETATM   15  N1  UNL     1      26.367   0.107  53.362  1.00  0.00    -0.201 NA
BRANCH  15  16
HETATM   16  S1  UNL     1      27.958  -0.134  53.957  1.00  0.00     0.233 S 
HETATM   17  O1  UNL     1      28.006  -0.103  55.479  1.00  0.00    -0.207 OA
HETATM   18  O2  UNL     1      28.490  -1.455  53.548  1.00  0.00    -0.207 OA
BRANCH  16  19
HETATM   19  C2  UNL     1      29.028   1.175  53.419  1.00  0.00     0.115 C 
HETATM   20  C1  UNL     1      28.720   2.421  53.729  1.00  0.00     0.024 C 
ENDBRANCH  16  19
ENDBRANCH  15  16
BRANCH  15  21
HETATM   21  C3  UNL     1      25.536  -1.016  53.715  1.00  0.00     0.134 C 
BRANCH  21  22
HETATM   22  C4  UNL     1      24.647  -0.813  54.889  1.00  0.00     0.179 C 
BRANCH  22  23
HETATM   23  O3  UNL     1      25.217  -1.365  56.018  1.00  0.00    -0.400 OA
HETATM   24  H8  UNL     1      25.728  -0.672  56.500  1.00  0.00     0.209 HD
ENDBRANCH  22  23
ENDBRANCH  21  22
ENDBRANCH  15  21
ENDBRANCH  14  15
ENDBRANCH   1  14
BRANCH  12  25
HETATM   25  C17 UNL     1      22.403   4.590  51.100  1.00  0.00     0.224 C 
HETATM   26  N3  UNL     1      22.474   5.444  52.058  1.00  0.00    -0.293 NA
HETATM   27  H17 UNL     1      21.684   5.676  52.706  1.00  0.00     0.187 HD
ENDBRANCH  12  25
TORSDOF 8
ENDMDL
MODEL 2
REMARK VINA RESULT:      -7.7      1.220      1.259
REMARK  8 active torsions:
REMARK  status: ('A' for Active; 'I' for Inactive)
REMARK    1  A    between atoms: C2_2  and  S1_3 
REMARK    2  A    between atoms: S1_3  and  N1_6 
REMARK    3  A    between atoms: N1_6  and  C3_7 
REMARK    4  A    between atoms: N1_6  and  C5_10 
REMARK    5  A    between atoms: C3_7  and  C4_8 
REMARK    6  A    between atoms: C4_8  and  O3_9 
REMARK    7  A    between atoms: C5_10  and  C6_11 
REMARK    8  A    between atoms: N2_22  and  C17_23 
ROOT
HETATM    1  C6  UNL     1      25.694   1.971  51.275  1.00  0.00    -0.000 A 
HETATM    2  C7  UNL     1      26.490   2.747  50.556  1.00  0.00     0.031 A 
HETATM    3  C8  UNL     1      25.941   3.998  50.069  1.00  0.00     0.013 A 
HETATM    4  C9  UNL     1      26.611   4.875  49.339  1.00  0.00    -0.001 A 
HETATM    5  C10 UNL     1      27.843   5.318  48.644  1.00  0.00    -0.013 A 
HETATM    6  C11 UNL     1      29.046   5.649  48.020  1.00  0.00     0.013 A 
HETATM    7  C12 UNL     1      29.102   6.847  47.337  1.00  0.00     0.001 A 
HETATM    8  C13 UNL     1      27.994   7.689  47.279  1.00  0.00     0.001 A 
HETATM    9  C14 UNL     1      26.824   7.315  47.914  1.00  0.00     0.013 A 
HETATM   10  C15 UNL     1      26.748   6.122  48.600  1.00  0.00    -0.013 A 
HETATM   11  C16 UNL     1      24.551   4.233  50.449  1.00  0.00     0.110 A 
HETATM   12  N2  UNL     1      23.784   5.212  50.189  1.00  0.00    -0.235 NA
HETATM   13  S2  UNL     1      24.105   2.790  51.413  1.00  0.00    -0.073 SA
ENDROOT
BRANCH   1  14
HETATM   14  C5  UNL     1      26.070   0.643  51.869  1.00  0.00     0.153 C 
BRANCH  14  15
HETATM   15  N1  UNL     1      25.620   0.471  53.214  1.00  0.00    -0.201 NA
BRANCH  15  16
HETATM   16  S1  UNL     1      26.966   0.200  54.243  1.00  0.00     0.233 S 
HETATM   17  O1  UNL     1      27.616   1.506  54.683  1.00  0.00    -0.207 OA
HETATM   18  O2  UNL     1      26.562  -0.505  55.481  1.00  0.00    -0.207 OA
BRANCH  16  19
HETATM   19  C2  UNL     1      28.233  -0.698  53.387  1.00  0.00     0.115 C 
HETATM   20  C1  UNL     1      29.468  -0.666  53.854  1.00  0.00     0.024 C 
ENDBRANCH  16  19
ENDBRANCH  15  16
BRANCH  15  21
HETATM   21  C3  UNL     1      24.741  -0.670  53.247  1.00  0.00     0.134 C 
BRANCH  21  22
HETATM   22  C4  UNL     1      23.461  -0.473  53.978  1.00  0.00     0.179 C 
BRANCH  22  23
HETATM   23  O3  UNL     1      23.490  -1.155  55.178  1.00  0.00    -0.400 OA
HETATM   24  H8  UNL     1      22.587  -1.495  55.384  1.00  0.00     0.209 HD
ENDBRANCH  22  23
ENDBRANCH  21  22
ENDBRANCH  15  21
ENDBRANCH  14  15
ENDBRANCH   1  14
BRANCH  12  25
HETATM   25  C17 UNL     1      22.429   5.246  50.668  1.00  0.00     0.224 C 
HETATM   26  N3  UNL     1      22.492   6.187  51.542  1.00  0.00    -0.293 NA
HETATM   27  H17 UNL     1      21.681   6.514  52.120  1.00  0.00     0.187 HD
ENDBRANCH  12  25
TORSDOF 8
ENDMDL
MODEL 3
REMARK VINA RESULT:      -7.7      1.332      2.115
REMARK  8 active torsions:
REMARK  status: ('A' for Active; 'I' for Inactive)
REMARK    1  A    between atoms: C2_2  and  S1_3 
REMARK    2  A    between atoms: S1_3  and  N1_6 
REMARK    3  A    between atoms: N1_6  and  C3_7 
REMARK    4  A    between atoms: N1_6  and  C5_10 
REMARK    5  A    between atoms: C3_7  and  C4_8 
REMARK    6  A    between atoms: C4_8  and  O3_9 
REMARK    7  A    between atoms: C5_10  and  C6_11 
REMARK    8  A    between atoms: N2_22  and  C17_23 
ROOT
HETATM    1  C6  UNL     1      25.634   2.054  51.322  1.00  0.00    -0.000 A 
HETATM    2  C7  UNL     1      26.449   2.804  50.596  1.00  0.00     0.031 A 
HETATM    3  C8  UNL     1      25.920   4.047  50.070  1.00  0.00     0.013 A 
HETATM    4  C9  UNL     1      26.610   4.900  49.329  1.00  0.00    -0.001 A 
HETATM    5  C10 UNL     1      27.858   5.314  48.644  1.00  0.00    -0.013 A 
HETATM    6  C11 UNL     1      29.073   5.618  48.032  1.00  0.00     0.013 A 
HETATM    7  C12 UNL     1      29.152   6.799  47.321  1.00  0.00     0.001 A 
HETATM    8  C13 UNL     1      28.053   7.649  47.223  1.00  0.00     0.001 A 
HETATM    9  C14 UNL     1      26.870   7.302  47.848  1.00  0.00     0.013 A 
HETATM   10  C15 UNL     1      26.771   6.127  48.562  1.00  0.00    -0.013 A 
HETATM   11  C16 UNL     1      24.527   4.305  50.421  1.00  0.00     0.110 A 
HETATM   12  N2  UNL     1      23.773   5.285  50.124  1.00  0.00    -0.235 NA
HETATM   13  S2  UNL     1      24.051   2.890  51.413  1.00  0.00    -0.073 SA
ENDROOT
BRANCH   1  14
HETATM   14  C5  UNL     1      25.988   0.738  51.954  1.00  0.00     0.153 C 
BRANCH  14  15
HETATM   15  N1  UNL     1      27.211   0.770  52.691  1.00  0.00    -0.201 NA
BRANCH  15  16
HETATM   16  S1  UNL     1      27.426  -0.719  53.518  1.00  0.00     0.233 S 
HETATM   17  O1  UNL     1      27.425  -0.534  55.030  1.00  0.00    -0.207 OA
HETATM   18  O2  UNL     1      26.330  -1.667  53.211  1.00  0.00    -0.207 OA
BRANCH  16  19
HETATM   19  C2  UNL     1      29.004  -1.427  53.125  1.00  0.00     0.115 C 
HETATM   20  C1  UNL     1      30.062  -1.060  53.826  1.00  0.00     0.024 C 
ENDBRANCH  16  19
ENDBRANCH  15  16
BRANCH  15  21
HETATM   21  C3  UNL     1      27.132   1.850  53.641  1.00  0.00     0.134 C 
BRANCH  21  22
HETATM   22  C4  UNL     1      28.423   2.509  53.974  1.00  0.00     0.179 C 
BRANCH  22  23
HETATM   23  O3  UNL     1      29.333   2.312  52.955  1.00  0.00    -0.400 OA
HETATM   24  H8  UNL     1      29.020   1.579  52.373  1.00  0.00     0.209 HD
ENDBRANCH  22  23
ENDBRANCH  21  22
ENDBRANCH  15  21
ENDBRANCH  14  15
ENDBRANCH   1  14
BRANCH  12  25
HETATM   25  C17 UNL     1      22.411   5.343  50.580  1.00  0.00     0.224 C 
HETATM   26  N3  UNL     1      22.458   6.335  51.397  1.00  0.00    -0.293 NA
HETATM   27  H17 UNL     1      21.638   6.693  51.942  1.00  0.00     0.187 HD
ENDBRANCH  12  25
TORSDOF 8
ENDMDL
MODEL 4
REMARK VINA RESULT:      -7.3      3.574      6.606
REMARK  8 active torsions:
REMARK  status: ('A' for Active; 'I' for Inactive)
REMARK    1  A    between atoms: C2_2  and  S1_3 
REMARK    2  A    between atoms: S1_3  and  N1_6 
REMARK    3  A    between atoms: N1_6  and  C3_7 
REMARK    4  A    between atoms: N1_6  and  C5_10 
REMARK    5  A    between atoms: C3_7  and  C4_8 
REMARK    6  A    between atoms: C4_8  and  O3_9 
REMARK    7  A    between atoms: C5_10  and  C6_11 
REMARK    8  A    between atoms: N2_22  and  C17_23 
ROOT
HETATM    1  C6  UNL     1      24.784   1.575  52.589  1.00  0.00    -0.000 A 
HETATM    2  C7  UNL     1      23.648   0.957  52.870  1.00  0.00     0.031 A 
HETATM    3  C8  UNL     1      22.539   1.151  51.955  1.00  0.00     0.013 A 
HETATM    4  C9  UNL     1      21.344   0.602  52.100  1.00  0.00    -0.001 A 
HETATM    5  C10 UNL     1      20.389  -0.258  52.840  1.00  0.00    -0.013 A 
HETATM    6  C11 UNL     1      19.563  -1.083  53.603  1.00  0.00     0.013 A 
HETATM    7  C12 UNL     1      18.269  -1.275  53.162  1.00  0.00     0.001 A 
HETATM    8  C13 UNL     1      17.814  -0.663  51.996  1.00  0.00     0.001 A 
HETATM    9  C14 UNL     1      18.672   0.147  51.275  1.00  0.00     0.013 A 
HETATM   10  C15 UNL     1      19.967   0.351  51.700  1.00  0.00    -0.013 A 
HETATM   11  C16 UNL     1      22.839   2.024  50.824  1.00  0.00     0.110 A 
HETATM   12  N2  UNL     1      22.102   2.397  49.858  1.00  0.00    -0.235 NA
HETATM   13  S2  UNL     1      24.548   2.500  51.072  1.00  0.00    -0.073 SA
ENDROOT
BRANCH   1  14
HETATM   14  C5  UNL     1      26.043   1.504  53.406  1.00  0.00     0.153 C 
BRANCH  14  15
HETATM   15  N1  UNL     1      27.089   0.760  52.778  1.00  0.00    -0.201 NA
BRANCH  15  16
HETATM   16  S1  UNL     1      27.482  -0.607  53.738  1.00  0.00     0.233 S 
HETATM   17  O1  UNL     1      27.760  -0.224  55.186  1.00  0.00    -0.207 OA
HETATM   18  O2  UNL     1      26.365  -1.580  53.769  1.00  0.00    -0.207 OA
BRANCH  16  19
HETATM   19  C2  UNL     1      28.972  -1.371  53.152  1.00  0.00     0.115 C 
HETATM   20  C1  UNL     1      30.097  -1.169  53.813  1.00  0.00     0.024 C 
ENDBRANCH  16  19
ENDBRANCH  15  16
BRANCH  15  21
HETATM   21  C3  UNL     1      28.238   1.621  52.659  1.00  0.00     0.134 C 
BRANCH  21  22
HETATM   22  C4  UNL     1      28.393   2.638  53.732  1.00  0.00     0.179 C 
BRANCH  22  23
HETATM   23  O3  UNL     1      29.462   2.314  54.543  1.00  0.00    -0.400 OA
HETATM   24  H8  UNL     1      30.294   2.663  54.144  1.00  0.00     0.209 HD
ENDBRANCH  22  23
ENDBRANCH  21  22
ENDBRANCH  15  21
ENDBRANCH  14  15
ENDBRANCH   1  14
BRANCH  12  25
HETATM   25  C17 UNL     1      22.602   3.273  48.834  1.00  0.00     0.224 C 
HETATM   26  N3  UNL     1      22.745   2.459  47.849  1.00  0.00    -0.293 NA
HETATM   27  H17 UNL     1      23.099   2.731  46.901  1.00  0.00     0.187 HD
ENDBRANCH  12  25
TORSDOF 8
ENDMDL
MODEL 5
REMARK VINA RESULT:      -7.2      3.969      8.230
REMARK  8 active torsions:
REMARK  status: ('A' for Active; 'I' for Inactive)
REMARK    1  A    between atoms: C2_2  and  S1_3 
REMARK    2  A    between atoms: S1_3  and  N1_6 
REMARK    3  A    between atoms: N1_6  and  C3_7 
REMARK    4  A    between atoms: N1_6  and  C5_10 
REMARK    5  A    between atoms: C3_7  and  C4_8 
REMARK    6  A    between atoms: C4_8  and  O3_9 
REMARK    7  A    between atoms: C5_10  and  C6_11 
REMARK    8  A    between atoms: N2_22  and  C17_23 
ROOT
HETATM    1  C6  UNL     1      25.528   2.712  50.803  1.00  0.00    -0.000 A 
HETATM    2  C7  UNL     1      24.387   2.141  51.157  1.00  0.00     0.031 A 
HETATM    3  C8  UNL     1      24.415   1.245  52.297  1.00  0.00     0.013 A 
HETATM    4  C9  UNL     1      23.359   0.602  52.770  1.00  0.00    -0.001 A 
HETATM    5  C10 UNL     1      21.915   0.268  52.732  1.00  0.00    -0.013 A 
HETATM    6  C11 UNL     1      20.549   0.014  52.616  1.00  0.00     0.013 A 
HETATM    7  C12 UNL     1      19.981  -0.854  53.527  1.00  0.00     0.001 A 
HETATM    8  C13 UNL     1      20.753  -1.449  54.523  1.00  0.00     0.001 A 
HETATM    9  C14 UNL     1      22.104  -1.164  54.595  1.00  0.00     0.013 A 
HETATM   10  C15 UNL     1      22.688  -0.302  53.694  1.00  0.00    -0.013 A 
HETATM   11  C16 UNL     1      25.731   1.093  52.910  1.00  0.00     0.110 A 
HETATM   12  N2  UNL     1      26.096   0.393  53.907  1.00  0.00    -0.235 NA
HETATM   13  S2  UNL     1      26.801   2.145  51.931  1.00  0.00    -0.073 SA
ENDROOT
BRANCH   1  14
HETATM   14  C5  UNL     1      25.709   3.666  49.657  1.00  0.00     0.153 C 
BRANCH  14  15
HETATM   15  N1  UNL     1      25.590   5.039  50.033  1.00  0.00    -0.201 NA
BRANCH  15  16
HETATM   16  S1  UNL     1      24.013   5.605  49.661  1.00  0.00     0.233 S 
HETATM   17  O1  UNL     1      23.372   4.801  48.537  1.00  0.00    -0.207 OA
HETATM   18  O2  UNL     1      23.110   5.487  50.829  1.00  0.00    -0.207 OA
BRANCH  16  19
HETATM   19  C2  UNL     1      24.075   7.278  49.074  1.00  0.00     0.115 C 
HETATM   20  C1  UNL     1      23.270   8.176  49.613  1.00  0.00     0.024 C 
ENDBRANCH  16  19
ENDBRANCH  15  16
BRANCH  15  21
HETATM   21  C3  UNL     1      26.569   5.791  49.291  1.00  0.00     0.134 C 
BRANCH  21  22
HETATM   22  C4  UNL     1      27.613   4.985  48.604  1.00  0.00     0.179 C 
BRANCH  22  23
HETATM   23  O3  UNL     1      28.867   5.362  49.042  1.00  0.00    -0.400 OA
HETATM   24  H8  UNL     1      28.927   5.228  50.018  1.00  0.00     0.209 HD
ENDBRANCH  22  23
ENDBRANCH  21  22
ENDBRANCH  15  21
ENDBRANCH  14  15
ENDBRANCH   1  14
BRANCH  12  25
HETATM   25  C17 UNL     1      27.463   0.386  54.353  1.00  0.00     0.224 C 
HETATM   26  N3  UNL     1      27.805  -0.828  54.107  1.00  0.00    -0.293 NA
HETATM   27  H17 UNL     1      28.754  -1.227  54.300  1.00  0.00     0.187 HD
ENDBRANCH  12  25
TORSDOF 8
ENDMDL
MODEL 6
REMARK VINA RESULT:      -7.1      2.345      3.183
REMARK  8 active torsions:
REMARK  status: ('A' for Active; 'I' for Inactive)
REMARK    1  A    between atoms: C2_2  and  S1_3 
REMARK    2  A    between atoms: S1_3  and  N1_6 
REMARK    3  A    between atoms: N1_6  and  C3_7 
REMARK    4  A    between atoms: N1_6  and  C5_10 
REMARK    5  A    between atoms: C3_7  and  C4_8 
REMARK    6  A    between atoms: C4_8  and  O3_9 
REMARK    7  A    between atoms: C5_10  and  C6_11 
REMARK    8  A    between atoms: N2_22  and  C17_23 
ROOT
HETATM    1  C6  UNL     1      25.471   3.577  50.189  1.00  0.00    -0.000 A 
HETATM    2  C7  UNL     1      26.656   3.931  49.714  1.00  0.00     0.031 A 
HETATM    3  C8  UNL     1      26.726   5.156  48.942  1.00  0.00     0.013 A 
HETATM    4  C9  UNL     1      27.835   5.639  48.404  1.00  0.00    -0.001 A 
HETATM    5  C10 UNL     1      29.292   5.562  48.138  1.00  0.00    -0.013 A 
HETATM    6  C11 UNL     1      30.663   5.403  47.939  1.00  0.00     0.013 A 
HETATM    7  C12 UNL     1      31.316   6.369  47.200  1.00  0.00     0.001 A 
HETATM    8  C13 UNL     1      30.623   7.458  46.675  1.00  0.00     0.001 A 
HETATM    9  C14 UNL     1      29.263   7.569  46.900  1.00  0.00     0.013 A 
HETATM   10  C15 UNL     1      28.594   6.615  47.635  1.00  0.00    -0.013 A 
HETATM   11  C16 UNL     1      25.449   5.847  48.791  1.00  0.00     0.110 A 
HETATM   12  N2  UNL     1      25.167   6.927  48.182  1.00  0.00    -0.235 NA
HETATM   13  S2  UNL     1      24.282   4.820  49.682  1.00  0.00    -0.073 SA
ENDROOT
BRANCH   1  14
HETATM   14  C5  UNL     1      25.188   2.350  51.008  1.00  0.00     0.153 C 
BRANCH  14  15
HETATM   15  N1  UNL     1      25.375   2.545  52.411  1.00  0.00    -0.201 NA
BRANCH  15  16
HETATM   16  S1  UNL     1      26.768   1.689  52.932  1.00  0.00     0.233 S 
HETATM   17  O1  UNL     1      28.054   2.424  52.572  1.00  0.00    -0.207 OA
HETATM   18  O2  UNL     1      26.777   1.523  54.404  1.00  0.00    -0.207 OA
BRANCH  16  19
HETATM   19  C2  UNL     1      26.874   0.117  52.116  1.00  0.00     0.115 C 
HETATM   20  C1  UNL     1      26.504  -0.969  52.770  1.00  0.00     0.024 C 
ENDBRANCH  16  19
ENDBRANCH  15  16
BRANCH  15  21
HETATM   21  C3  UNL     1      24.208   2.042  53.091  1.00  0.00     0.134 C 
BRANCH  21  22
HETATM   22  C4  UNL     1      23.293   1.211  52.265  1.00  0.00     0.179 C 
BRANCH  22  23
HETATM   23  O3  UNL     1      23.083  -0.011  52.873  1.00  0.00    -0.400 OA
HETATM   24  H8  UNL     1      23.947  -0.380  53.174  1.00  0.00     0.209 HD
ENDBRANCH  22  23
ENDBRANCH  21  22
ENDBRANCH  15  21
ENDBRANCH  14  15
ENDBRANCH   1  14
BRANCH  12  25
HETATM   25  C17 UNL     1      23.824   7.439  48.157  1.00  0.00     0.224 C 
HETATM   26  N3  UNL     1      23.537   7.339  46.908  1.00  0.00    -0.293 NA
HETATM   27  H17 UNL     1      22.621   7.620  46.485  1.00  0.00     0.187 HD
ENDBRANCH  12  25
TORSDOF 8
ENDMDL
MODEL 7
REMARK VINA RESULT:      -7.0      5.103      7.511
REMARK  8 active torsions:
REMARK  status: ('A' for Active; 'I' for Inactive)
REMARK    1  A    between atoms: C2_2  and  S1_3 
REMARK    2  A    between atoms: S1_3  and  N1_6 
REMARK    3  A    between atoms: N1_6  and  C3_7 
REMARK    4  A    between atoms: N1_6  and  C5_10 
REMARK    5  A    between atoms: C3_7  and  C4_8 
REMARK    6  A    between atoms: C4_8  and  O3_9 
REMARK    7  A    between atoms: C5_10  and  C6_11 
REMARK    8  A    between atoms: N2_22  and  C17_23 
ROOT
HETATM    1  C6  UNL     1      22.520   2.988  52.023  1.00  0.00    -0.000 A 
HETATM    2  C7  UNL     1      23.804   2.918  52.338  1.00  0.00     0.031 A 
HETATM    3  C8  UNL     1      24.261   1.719  53.013  1.00  0.00     0.013 A 
HETATM    4  C9  UNL     1      25.511   1.503  53.391  1.00  0.00    -0.001 A 
HETATM    5  C10 UNL     1      26.928   1.925  53.499  1.00  0.00    -0.013 A 
HETATM    6  C11 UNL     1      28.236   2.407  53.555  1.00  0.00     0.013 A 
HETATM    7  C12 UNL     1      29.188   1.603  54.150  1.00  0.00     0.001 A 
HETATM    8  C13 UNL     1      28.845   0.358  54.674  1.00  0.00     0.001 A 
HETATM    9  C14 UNL     1      27.534  -0.074  54.594  1.00  0.00     0.013 A 
HETATM   10  C15 UNL     1      26.570   0.714  54.004  1.00  0.00    -0.013 A 
HETATM   11  C16 UNL     1      23.215   0.731  53.258  1.00  0.00     0.110 A 
HETATM   12  N2  UNL     1      23.277  -0.408  53.820  1.00  0.00    -0.235 NA
HETATM   13  S2  UNL     1      21.735   1.473  52.573  1.00  0.00    -0.073 SA
ENDROOT
BRANCH   1  14
HETATM   14  C5  UNL     1      21.853   4.139  51.324  1.00  0.00     0.153 C 
BRANCH  14  15
HETATM   15  N1  UNL     1      20.892   3.734  50.348  1.00  0.00    -0.201 NA
BRANCH  15  16
HETATM   16  S1  UNL     1      21.592   3.805  48.784  1.00  0.00     0.233 S 
HETATM   17  O1  UNL     1      20.768   4.662  47.830  1.00  0.00    -0.207 OA
HETATM   18  O2  UNL     1      22.944   4.409  48.828  1.00  0.00    -0.207 OA
BRANCH  16  19
HETATM   19  C2  UNL     1      21.643   2.191  48.050  1.00  0.00     0.115 C 
HETATM   20  C1  UNL     1      21.444   1.133  48.816  1.00  0.00     0.024 C 
ENDBRANCH  16  19
ENDBRANCH  15  16
BRANCH  15  21
HETATM   21  C3  UNL     1      19.771   4.636  50.425  1.00  0.00     0.134 C 
BRANCH  21  22
HETATM   22  C4  UNL     1      18.477   4.020  50.822  1.00  0.00     0.179 C 
BRANCH  22  23
HETATM   23  O3  UNL     1      18.582   3.466  52.082  1.00  0.00    -0.400 OA
HETATM   24  H8  UNL     1      19.017   4.112  52.689  1.00  0.00     0.209 HD
ENDBRANCH  22  23
ENDBRANCH  21  22
ENDBRANCH  15  21
ENDBRANCH  14  15
ENDBRANCH   1  14
BRANCH  12  25
HETATM   25  C17 UNL     1      22.109  -1.234  53.960  1.00  0.00     0.224 C 
HETATM   26  N3  UNL     1      22.130  -1.494  55.219  1.00  0.00    -0.293 NA
HETATM   27  H17 UNL     1      21.421  -2.085  55.714  1.00  0.00     0.187 HD
ENDBRANCH  12  25
TORSDOF 8
ENDMDL
MODEL 8
REMARK VINA RESULT:      -6.8      4.716      7.572
REMARK  8 active torsions:
REMARK  status: ('A' for Active; 'I' for Inactive)
REMARK    1  A    between atoms: C2_2  and  S1_3 
REMARK    2  A    between atoms: S1_3  and  N1_6 
REMARK    3  A    between atoms: N1_6  and  C3_7 
REMARK    4  A    between atoms: N1_6  and  C5_10 
REMARK    5  A    between atoms: C3_7  and  C4_8 
REMARK    6  A    between atoms: C4_8  and  O3_9 
REMARK    7  A    between atoms: C5_10  and  C6_11 
REMARK    8  A    between atoms: N2_22  and  C17_23 
ROOT
HETATM    1  C6  UNL     1      27.230   5.484  48.730  1.00  0.00    -0.000 A 
HETATM    2  C7  UNL     1      27.157   4.351  49.410  1.00  0.00     0.031 A 
HETATM    3  C8  UNL     1      25.954   4.114  50.184  1.00  0.00     0.013 A 
HETATM    4  C9  UNL     1      25.735   3.031  50.914  1.00  0.00    -0.001 A 
HETATM    5  C10 UNL     1      26.155   1.709  51.438  1.00  0.00    -0.013 A 
HETATM    6  C11 UNL     1      26.635   0.477  51.881  1.00  0.00     0.013 A 
HETATM    7  C12 UNL     1      25.827  -0.256  52.727  1.00  0.00     0.001 A 
HETATM    8  C13 UNL     1      24.580   0.225  53.120  1.00  0.00     0.001 A 
HETATM    9  C14 UNL     1      24.150   1.454  52.653  1.00  0.00     0.013 A 
HETATM   10  C15 UNL     1      24.942   2.200  51.809  1.00  0.00    -0.013 A 
HETATM   11  C16 UNL     1      24.966   5.185  50.104  1.00  0.00     0.110 A 
HETATM   12  N2  UNL     1      23.825   5.292  50.653  1.00  0.00    -0.235 NA
HETATM   13  S2  UNL     1      25.713   6.396  49.015  1.00  0.00    -0.073 SA
ENDROOT
BRANCH   1  14
HETATM   14  C5  UNL     1      28.385   5.916  47.871  1.00  0.00     0.153 C 
BRANCH  14  15
HETATM   15  N1  UNL     1      29.414   6.591  48.597  1.00  0.00    -0.201 NA
BRANCH  15  16
HETATM   16  S1  UNL     1      29.565   8.200  48.021  1.00  0.00     0.233 S 
HETATM   17  O1  UNL     1      30.685   8.335  46.997  1.00  0.00    -0.207 OA
HETATM   18  O2  UNL     1      28.325   8.649  47.347  1.00  0.00    -0.207 OA
BRANCH  16  19
HETATM   19  C2  UNL     1      29.997   9.297  49.347  1.00  0.00     0.115 C 
HETATM   20  C1  UNL     1      30.650  10.412  49.068  1.00  0.00     0.024 C 
ENDBRANCH  16  19
ENDBRANCH  15  16
BRANCH  15  21
HETATM   21  C3  UNL     1      30.648   5.878  48.388  1.00  0.00     0.134 C 
BRANCH  21  22
HETATM   22  C4  UNL     1      31.676   6.050  49.448  1.00  0.00     0.179 C 
BRANCH  22  23
HETATM   23  O3  UNL     1      31.311   5.350  50.581  1.00  0.00    -0.400 OA
HETATM   24  H8  UNL     1      31.990   5.487  51.283  1.00  0.00     0.209 HD
ENDBRANCH  22  23
ENDBRANCH  21  22
ENDBRANCH  15  21
ENDBRANCH  14  15
ENDBRANCH   1  14
BRANCH  12  25
HETATM   25  C17 UNL     1      22.999   6.448  50.438  1.00  0.00     0.224 C 
HETATM   26  N3  UNL     1      22.204   6.385  51.446  1.00  0.00    -0.293 NA
HETATM   27  H17 UNL     1      21.439   7.074  51.642  1.00  0.00     0.187 HD
ENDBRANCH  12  25
TORSDOF 8
ENDMDL
MODEL 9
REMARK VINA RESULT:      -6.8      3.518      6.320
REMARK  8 active torsions:
REMARK  status: ('A' for Active; 'I' for Inactive)
REMARK    1  A    between atoms: C2_2  and  S1_3 
REMARK    2  A    between atoms: S1_3  and  N1_6 
REMARK    3  A    between atoms: N1_6  and  C3_7 
REMARK    4  A    between atoms: N1_6  and  C5_10 
REMARK    5  A    between atoms: C3_7  and  C4_8 
REMARK    6  A    between atoms: C4_8  and  O3_9 
REMARK    7  A    between atoms: C5_10  and  C6_11 
REMARK    8  A    between atoms: N2_22  and  C17_23 
ROOT
HETATM    1  C6  UNL     1      24.937   2.033  52.813  1.00  0.00    -0.000 A 
HETATM    2  C7  UNL     1      23.782   1.430  53.050  1.00  0.00     0.031 A 
HETATM    3  C8  UNL     1      22.790   1.450  51.993  1.00  0.00     0.013 A 
HETATM    4  C9  UNL     1      21.593   0.892  52.080  1.00  0.00    -0.001 A 
HETATM    5  C10 UNL     1      20.567   0.125  52.826  1.00  0.00    -0.013 A 
HETATM    6  C11 UNL     1      19.665  -0.601  53.604  1.00  0.00     0.013 A 
HETATM    7  C12 UNL     1      18.436  -0.897  53.049  1.00  0.00     0.001 A 
HETATM    8  C13 UNL     1      18.117  -0.481  51.758  1.00  0.00     0.001 A 
HETATM    9  C14 UNL     1      19.046   0.236  51.027  1.00  0.00     0.013 A 
HETATM   10  C15 UNL     1      20.277   0.542  51.564  1.00  0.00    -0.013 A 
HETATM   11  C16 UNL     1      23.212   2.152  50.785  1.00  0.00     0.110 A 
HETATM   12  N2  UNL     1      22.592   2.352  49.693  1.00  0.00    -0.235 NA
HETATM   13  S2  UNL     1      24.874   2.712  51.155  1.00  0.00    -0.073 SA
ENDROOT
BRANCH   1  14
HETATM   14  C5  UNL     1      26.089   2.124  53.773  1.00  0.00     0.153 C 
BRANCH  14  15
HETATM   15  N1  UNL     1      26.845   0.916  53.873  1.00  0.00    -0.201 NA
BRANCH  15  16
HETATM   16  S1  UNL     1      28.521   1.282  53.880  1.00  0.00     0.233 S 
HETATM   17  O1  UNL     1      28.827   2.559  53.107  1.00  0.00    -0.207 OA
HETATM   18  O2  UNL     1      29.018   1.497  55.259  1.00  0.00    -0.207 OA
BRANCH  16  19
HETATM   19  C2  UNL     1      29.441   0.001  53.067  1.00  0.00     0.115 C 
HETATM   20  C1  UNL     1      29.989  -0.954  53.796  1.00  0.00     0.024 C 
ENDBRANCH  16  19
ENDBRANCH  15  16
BRANCH  15  21
HETATM   21  C3  UNL     1      26.527   0.096  52.731  1.00  0.00     0.134 C 
BRANCH  21  22
HETATM   22  C4  UNL     1      26.155  -1.311  53.035  1.00  0.00     0.179 C 
BRANCH  22  23
HETATM   23  O3  UNL     1      26.790  -2.170  52.160  1.00  0.00    -0.400 OA
HETATM   24  H8  UNL     1      27.765  -2.034  52.218  1.00  0.00     0.209 HD
ENDBRANCH  22  23
ENDBRANCH  21  22
ENDBRANCH  15  21
ENDBRANCH  14  15
ENDBRANCH   1  14
BRANCH  12  25
HETATM   25  C17 UNL     1      23.201   3.079  48.613  1.00  0.00     0.224 C 
HETATM   26  N3  UNL     1      22.252   3.089  47.746  1.00  0.00    -0.293 NA
HETATM   27  H17 UNL     1      22.316   3.538  46.801  1.00  0.00     0.187 HD
ENDBRANCH  12  25
TORSDOF 8
ENDMDL
