MODEL 1
REMARK VINA RESULT:      -7.9      0.000      0.000
REMARK  2 active torsions:
REMARK  status: ('A' for Active; 'I' for Inactive)
REMARK    1  A    between atoms: N1_2  and  C2_3 
REMARK    2  A    between atoms: C5_6  and  C6_7 
ROOT
HETATM    1  C6  UNL     1      26.448   1.751  53.298  1.00  0.00    -0.017 C 
HETATM    2  C7  UNL     1      26.180   0.854  54.231  1.00  0.00    -0.006 A 
HETATM    3  C8  UNL     1      25.734  -0.191  55.223  1.00  0.00     0.111 A 
HETATM    4  C9  UNL     1      25.196  -0.255  53.897  1.00  0.00     0.205 A 
HETATM    5  F1  UNL     1      23.926   0.058  53.589  1.00  0.00    -0.214 F 
HETATM    6  N2  UNL     1      25.951  -1.017  52.861  1.00  0.00    -0.345 N 
HETATM    7  C10 UNL     1      27.396  -0.888  52.722  1.00  0.00     0.201 C 
HETATM    8  N3  UNL     1      27.818  -0.550  53.840  1.00  0.00    -0.266 NA
HETATM    9  C11 UNL     1      29.119  -0.283  54.284  1.00  0.00     0.270 C 
HETATM   10  N4  UNL     1      29.150   1.039  54.959  1.00  0.00    -0.381 N 
HETATM   11  C12 UNL     1      28.783   1.928  53.888  1.00  0.00     0.085 C 
HETATM   12  C13 UNL     1      27.777   2.318  53.134  1.00  0.00     0.026 C 
HETATM   13  H11 UNL     1      25.436  -1.668  52.208  1.00  0.00     0.163 HD
HETATM   14  H15 UNL     1      29.357   1.354  55.931  1.00  0.00     0.160 HD
ENDROOT
BRANCH   1  15
HETATM   15  C5  UNL     1      25.620   2.210  52.154  1.00  0.00     0.254 C 
HETATM   16  C4  UNL     1      26.361   2.393  50.879  1.00  0.00     0.042 C 
HETATM   17  C3  UNL     1      25.815   3.470  49.991  1.00  0.00     0.024 C 
HETATM   18  C2  UNL     1      24.335   3.677  50.143  1.00  0.00     0.093 C 
HETATM   19  C14 UNL     1      23.816   3.536  51.534  1.00  0.00     0.290 C 
HETATM   20  N5  UNL     1      24.947   3.468  52.455  1.00  0.00     0.094 N 
HETATM   21  H18 UNL     1      25.591   4.242  52.181  1.00  0.00     0.316 HD
BRANCH  18  22
HETATM   22  N1  UNL     1      23.575   2.862  49.239  1.00  0.00    -0.327 NA
HETATM   23  C1  UNL     1      22.625   2.140  49.652  1.00  0.00     0.221 C 
ENDBRANCH  18  22
ENDBRANCH   1  15
TORSDOF 2
ENDMDL
MODEL 2
REMARK VINA RESULT:      -7.1      2.671      4.111
REMARK  2 active torsions:
REMARK  status: ('A' for Active; 'I' for Inactive)
REMARK    1  A    between atoms: N1_2  and  C2_3 
REMARK    2  A    between atoms: C5_6  and  C6_7 
ROOT
HETATM    1  C6  UNL     1      24.097   0.509  52.669  1.00  0.00    -0.017 C 
HETATM    2  C7  UNL     1      25.238   0.801  52.068  1.00  0.00    -0.006 A 
HETATM    3  C8  UNL     1      26.459   1.244  51.300  1.00  0.00     0.111 A 
HETATM    4  C9  UNL     1      25.411   2.200  51.501  1.00  0.00     0.205 A 
HETATM    5  F1  UNL     1      24.589   2.625  50.526  1.00  0.00    -0.214 F 
HETATM    6  N2  UNL     1      25.430   3.023  52.745  1.00  0.00    -0.345 N 
HETATM    7  C10 UNL     1      25.712   2.430  54.047  1.00  0.00     0.201 C 
HETATM    8  N3  UNL     1      26.401   1.421  53.820  1.00  0.00    -0.266 NA
HETATM    9  C11 UNL     1      26.951   0.474  54.694  1.00  0.00     0.270 C 
HETATM   10  N4  UNL     1      26.570  -0.889  54.248  1.00  0.00    -0.381 N 
HETATM   11  C12 UNL     1      25.137  -0.853  54.371  1.00  0.00     0.085 C 
HETATM   12  C13 UNL     1      24.042  -0.355  53.837  1.00  0.00     0.026 C 
HETATM   13  H11 UNL     1      25.236   4.059  52.693  1.00  0.00     0.163 HD
HETATM   14  H15 UNL     1      27.105  -1.719  53.912  1.00  0.00     0.160 HD
ENDROOT
BRANCH   1  15
HETATM   15  C5  UNL     1      22.745   1.089  52.475  1.00  0.00     0.254 C 
HETATM   16  C4  UNL     1      21.779   0.805  53.568  1.00  0.00     0.042 C 
HETATM   17  C3  UNL     1      20.349   0.708  53.127  1.00  0.00     0.024 C 
HETATM   18  C2  UNL     1      20.037   1.552  51.924  1.00  0.00     0.093 C 
HETATM   19  C14 UNL     1      21.120   1.622  50.902  1.00  0.00     0.290 C 
HETATM   20  N5  UNL     1      22.142   0.632  51.228  1.00  0.00     0.094 N 
HETATM   21  H18 UNL     1      21.633  -0.255  51.433  1.00  0.00     0.316 HD
BRANCH  18  22
HETATM   22  N1  UNL     1      19.598   2.869  52.282  1.00  0.00    -0.327 NA
HETATM   23  C1  UNL     1      20.162   3.896  51.811  1.00  0.00     0.221 C 
ENDBRANCH  18  22
ENDBRANCH   1  15
TORSDOF 2
ENDMDL
MODEL 3
REMARK VINA RESULT:      -6.9      1.803      6.024
REMARK  2 active torsions:
REMARK  status: ('A' for Active; 'I' for Inactive)
REMARK    1  A    between atoms: N1_2  and  C2_3 
REMARK    2  A    between atoms: C5_6  and  C6_7 
ROOT
HETATM    1  C6  UNL     1      23.166   1.889  52.038  1.00  0.00    -0.017 C 
HETATM    2  C7  UNL     1      22.746   3.137  52.162  1.00  0.00    -0.006 A 
HETATM    3  C8  UNL     1      22.380   4.578  52.416  1.00  0.00     0.111 A 
HETATM    4  C9  UNL     1      23.731   4.176  52.673  1.00  0.00     0.205 A 
HETATM    5  F1  UNL     1      24.251   4.045  53.905  1.00  0.00    -0.214 F 
HETATM    6  N2  UNL     1      24.712   4.229  51.551  1.00  0.00    -0.345 N 
HETATM    7  C10 UNL     1      24.374   3.741  50.219  1.00  0.00     0.201 C 
HETATM    8  N3  UNL     1      23.140   3.838  50.123  1.00  0.00    -0.266 NA
HETATM    9  C11 UNL     1      22.277   3.513  49.068  1.00  0.00     0.270 C 
HETATM   10  N4  UNL     1      21.186   2.643  49.573  1.00  0.00    -0.381 N 
HETATM   11  C12 UNL     1      21.911   1.481  50.014  1.00  0.00     0.085 C 
HETATM   12  C13 UNL     1      22.723   1.034  50.949  1.00  0.00     0.026 C 
HETATM   13  H11 UNL     1      25.676   4.627  51.714  1.00  0.00     0.163 HD
HETATM   14  H15 UNL     1      20.150   2.744  49.644  1.00  0.00     0.160 HD
ENDROOT
BRANCH   1  15
HETATM   15  C5  UNL     1      24.246   1.173  52.761  1.00  0.00     0.254 C 
HETATM   16  C4  UNL     1      25.514   1.019  52.001  1.00  0.00     0.042 C 
HETATM   17  C3  UNL     1      26.289  -0.222  52.326  1.00  0.00     0.024 C 
HETATM   18  C2  UNL     1      26.089  -0.699  53.737  1.00  0.00     0.093 C 
HETATM   19  C14 UNL     1      24.707  -0.532  54.271  1.00  0.00     0.290 C 
HETATM   20  N5  UNL     1      23.819  -0.158  53.174  1.00  0.00     0.094 N 
HETATM   21  H18 UNL     1      24.033  -0.814  52.390  1.00  0.00     0.316 HD
BRANCH  18  22
HETATM   22  N1  UNL     1      27.048  -0.136  54.643  1.00  0.00    -0.327 NA
HETATM   23  C1  UNL     1      28.272  -0.072  54.340  1.00  0.00     0.221 C 
ENDBRANCH  18  22
ENDBRANCH   1  15
TORSDOF 2
ENDMDL
MODEL 4
REMARK VINA RESULT:      -6.8      1.393      5.430
REMARK  2 active torsions:
REMARK  status: ('A' for Active; 'I' for Inactive)
REMARK    1  A    between atoms: N1_2  and  C2_3 
REMARK    2  A    between atoms: C5_6  and  C6_7 
ROOT
HETATM    1  C6  UNL     1      25.468   2.293  51.031  1.00  0.00    -0.017 C 
HETATM    2  C7  UNL     1      24.213   2.264  50.613  1.00  0.00    -0.006 A 
HETATM    3  C8  UNL     1      22.757   2.119  50.248  1.00  0.00     0.111 A 
HETATM    4  C9  UNL     1      23.143   1.806  51.591  1.00  0.00     0.205 A 
HETATM    5  F1  UNL     1      23.190   0.557  52.085  1.00  0.00    -0.214 F 
HETATM    6  N2  UNL     1      23.172   2.908  52.596  1.00  0.00    -0.345 N 
HETATM    7  C10 UNL     1      23.750   4.210  52.285  1.00  0.00     0.201 C 
HETATM    8  N3  UNL     1      23.657   4.338  51.053  1.00  0.00    -0.266 NA
HETATM    9  C11 UNL     1      24.052   5.386  50.211  1.00  0.00     0.270 C 
HETATM   10  N4  UNL     1      24.882   4.845  49.106  1.00  0.00    -0.381 N 
HETATM   11  C12 UNL     1      26.012   4.309  49.817  1.00  0.00     0.085 C 
HETATM   12  C13 UNL     1      26.396   3.328  50.607  1.00  0.00     0.026 C 
HETATM   13  H11 UNL     1      22.765   2.752  53.559  1.00  0.00     0.163 HD
HETATM   14  H15 UNL     1      24.774   4.803  48.069  1.00  0.00     0.160 HD
ENDROOT
BRANCH   1  15
HETATM   15  C5  UNL     1      26.135   1.499  52.093  1.00  0.00     0.254 C 
HETATM   16  C4  UNL     1      27.272   2.181  52.764  1.00  0.00     0.042 C 
HETATM   17  C3  UNL     1      28.354   1.261  53.244  1.00  0.00     0.024 C 
HETATM   18  C2  UNL     1      27.856  -0.107  53.612  1.00  0.00     0.093 C 
HETATM   19  C14 UNL     1      26.769  -0.640  52.742  1.00  0.00     0.290 C 
HETATM   20  N5  UNL     1      26.629   0.228  51.577  1.00  0.00     0.094 N 
HETATM   21  H18 UNL     1      27.596   0.390  51.217  1.00  0.00     0.316 HD
BRANCH  18  22
HETATM   22  N1  UNL     1      27.482  -0.196  54.994  1.00  0.00    -0.327 NA
HETATM   23  C1  UNL     1      26.269  -0.186  55.345  1.00  0.00     0.221 C 
ENDBRANCH  18  22
ENDBRANCH   1  15
TORSDOF 2
ENDMDL
MODEL 5
REMARK VINA RESULT:      -6.8      2.106      3.482
REMARK  2 active torsions:
REMARK  status: ('A' for Active; 'I' for Inactive)
REMARK    1  A    between atoms: N1_2  and  C2_3 
REMARK    2  A    between atoms: C5_6  and  C6_7 
ROOT
HETATM    1  C6  UNL     1      24.484   0.860  52.211  1.00  0.00    -0.017 C 
HETATM    2  C7  UNL     1      25.764   0.545  52.096  1.00  0.00    -0.006 A 
HETATM    3  C8  UNL     1      27.233   0.305  51.856  1.00  0.00     0.111 A 
HETATM    4  C9  UNL     1      26.727   1.625  51.630  1.00  0.00     0.205 A 
HETATM    5  F1  UNL     1      26.571   2.169  50.410  1.00  0.00    -0.214 F 
HETATM    6  N2  UNL     1      26.683   2.575  52.779  1.00  0.00    -0.345 N 
HETATM    7  C10 UNL     1      26.206   2.161  54.093  1.00  0.00     0.201 C 
HETATM    8  N3  UNL     1      26.401   0.936  54.156  1.00  0.00    -0.266 NA
HETATM    9  C11 UNL     1      26.133   0.019  55.181  1.00  0.00     0.270 C 
HETATM   10  N4  UNL     1      25.362  -1.124  54.632  1.00  0.00    -0.381 N 
HETATM   11  C12 UNL     1      24.151  -0.483  54.192  1.00  0.00     0.085 C 
HETATM   12  C13 UNL     1      23.652   0.317  53.272  1.00  0.00     0.026 C 
HETATM   13  H11 UNL     1      27.004   3.573  52.649  1.00  0.00     0.163 HD
HETATM   14  H15 UNL     1      25.548  -2.145  54.534  1.00  0.00     0.160 HD
ENDROOT
BRANCH   1  15
HETATM   15  C5  UNL     1      23.693   1.898  51.506  1.00  0.00     0.254 C 
HETATM   16  C4  UNL     1      23.091   2.933  52.388  1.00  0.00     0.042 C 
HETATM   17  C3  UNL     1      21.793   3.495  51.891  1.00  0.00     0.024 C 
HETATM   18  C2  UNL     1      21.673   3.491  50.394  1.00  0.00     0.093 C 
HETATM   19  C14 UNL     1      22.269   2.304  49.716  1.00  0.00     0.290 C 
HETATM   20  N5  UNL     1      22.613   1.307  50.724  1.00  0.00     0.094 N 
HETATM   21  H18 UNL     1      21.781   1.226  51.349  1.00  0.00     0.316 HD
BRANCH  18  22
HETATM   22  N1  UNL     1      22.162   4.704  49.805  1.00  0.00    -0.327 NA
HETATM   23  C1  UNL     1      23.135   4.693  49.001  1.00  0.00     0.221 C 
ENDBRANCH  18  22
ENDBRANCH   1  15
TORSDOF 2
ENDMDL
MODEL 6
REMARK VINA RESULT:      -6.7      8.206     10.316
REMARK  2 active torsions:
REMARK  status: ('A' for Active; 'I' for Inactive)
REMARK    1  A    between atoms: N1_2  and  C2_3 
REMARK    2  A    between atoms: C5_6  and  C6_7 
ROOT
HETATM    1  C6  UNL     1      31.388   5.812  48.357  1.00  0.00    -0.017 C 
HETATM    2  C7  UNL     1      31.464   6.977  48.978  1.00  0.00    -0.006 A 
HETATM    3  C8  UNL     1      31.707   8.304  49.653  1.00  0.00     0.111 A 
HETATM    4  C9  UNL     1      32.585   7.926  48.586  1.00  0.00     0.205 A 
HETATM    5  F1  UNL     1      33.863   7.550  48.766  1.00  0.00    -0.214 F 
HETATM    6  N2  UNL     1      32.198   8.278  47.189  1.00  0.00    -0.345 N 
HETATM    7  C10 UNL     1      30.837   8.083  46.704  1.00  0.00     0.201 C 
HETATM    8  N3  UNL     1      30.106   8.135  47.706  1.00  0.00    -0.266 NA
HETATM    9  C11 UNL     1      28.716   8.009  47.831  1.00  0.00     0.270 C 
HETATM   10  N4  UNL     1      28.403   6.993  48.867  1.00  0.00    -0.381 N 
HETATM   11  C12 UNL     1      28.974   5.801  48.296  1.00  0.00     0.085 C 
HETATM   12  C13 UNL     1      30.112   5.199  48.026  1.00  0.00     0.026 C 
HETATM   13  H11 UNL     1      32.918   8.680  46.530  1.00  0.00     0.163 HD
HETATM   14  H15 UNL     1      27.918   7.022  49.789  1.00  0.00     0.160 HD
ENDROOT
BRANCH   1  15
HETATM   15  C5  UNL     1      32.454   5.009  47.708  1.00  0.00     0.254 C 
HETATM   16  C4  UNL     1      31.971   3.838  46.932  1.00  0.00     0.042 C 
HETATM   17  C3  UNL     1      32.919   2.676  46.902  1.00  0.00     0.024 C 
HETATM   18  C2  UNL     1      34.362   3.080  47.009  1.00  0.00     0.093 C 
HETATM   19  C14 UNL     1      34.632   4.228  47.921  1.00  0.00     0.290 C 
HETATM   20  N5  UNL     1      33.422   4.520  48.683  1.00  0.00     0.094 N 
HETATM   21  H18 UNL     1      33.073   3.602  49.038  1.00  0.00     0.316 HD
BRANCH  18  22
HETATM   22  N1  UNL     1      34.960   3.307  45.725  1.00  0.00    -0.327 NA
HETATM   23  C1  UNL     1      34.822   4.410  45.126  1.00  0.00     0.221 C 
ENDBRANCH  18  22
ENDBRANCH   1  15
TORSDOF 2
ENDMDL
MODEL 7
REMARK VINA RESULT:      -6.5      2.386      5.727
REMARK  2 active torsions:
REMARK  status: ('A' for Active; 'I' for Inactive)
REMARK    1  A    between atoms: N1_2  and  C2_3 
REMARK    2  A    between atoms: C5_6  and  C6_7 
ROOT
HETATM    1  C6  UNL     1      23.461   1.289  52.922  1.00  0.00    -0.017 C 
HETATM    2  C7  UNL     1      22.690   2.336  52.683  1.00  0.00    -0.006 A 
HETATM    3  C8  UNL     1      21.946   3.617  52.399  1.00  0.00     0.111 A 
HETATM    4  C9  UNL     1      23.278   3.490  51.888  1.00  0.00     0.205 A 
HETATM    5  F1  UNL     1      24.334   4.161  52.378  1.00  0.00    -0.214 F 
HETATM    6  N2  UNL     1      23.467   2.860  50.549  1.00  0.00    -0.345 N 
HETATM    7  C10 UNL     1      22.754   1.646  50.171  1.00  0.00     0.201 C 
HETATM    8  N3  UNL     1      21.715   1.635  50.850  1.00  0.00    -0.266 NA
HETATM    9  C11 UNL     1      20.665   0.708  50.899  1.00  0.00     0.270 C 
HETATM   10  N4  UNL     1      20.421   0.313  52.309  1.00  0.00    -0.381 N 
HETATM   11  C12 UNL     1      21.669  -0.311  52.663  1.00  0.00     0.085 C 
HETATM   12  C13 UNL     1      22.934  -0.067  52.933  1.00  0.00     0.026 C 
HETATM   13  H11 UNL     1      24.130   3.295  49.852  1.00  0.00     0.163 HD
HETATM   14  H15 UNL     1      19.615   0.413  52.963  1.00  0.00     0.160 HD
ENDROOT
BRANCH   1  15
HETATM   15  C5  UNL     1      24.939   1.197  53.017  1.00  0.00     0.254 C 
HETATM   16  C4  UNL     1      25.607   0.600  51.831  1.00  0.00     0.042 C 
HETATM   17  C3  UNL     1      26.867  -0.151  52.139  1.00  0.00     0.024 C 
HETATM   18  C2  UNL     1      27.598   0.375  53.341  1.00  0.00     0.093 C 
HETATM   19  C14 UNL     1      26.725   0.839  54.458  1.00  0.00     0.290 C 
HETATM   20  N5  UNL     1      25.351   0.428  54.186  1.00  0.00     0.094 N 
HETATM   21  H18 UNL     1      25.398  -0.575  53.901  1.00  0.00     0.316 HD
BRANCH  18  22
HETATM   22  N1  UNL     1      28.554   1.387  52.998  1.00  0.00    -0.327 NA
HETATM   23  C1  UNL     1      28.600   2.482  53.625  1.00  0.00     0.221 C 
ENDBRANCH  18  22
ENDBRANCH   1  15
TORSDOF 2
ENDMDL
MODEL 8
REMARK VINA RESULT:      -6.3      2.490      4.321
REMARK  2 active torsions:
REMARK  status: ('A' for Active; 'I' for Inactive)
REMARK    1  A    between atoms: N1_2  and  C2_3 
REMARK    2  A    between atoms: C5_6  and  C6_7 
ROOT
HETATM    1  C6  UNL     1      25.581  -0.000  52.843  1.00  0.00    -0.017 C 
HETATM    2  C7  UNL     1      26.099   0.873  51.997  1.00  0.00    -0.006 A 
HETATM    3  C8  UNL     1      26.545   1.936  51.023  1.00  0.00     0.111 A 
HETATM    4  C9  UNL     1      25.436   2.236  51.879  1.00  0.00     0.205 A 
HETATM    5  F1  UNL     1      24.164   2.318  51.455  1.00  0.00    -0.214 F 
HETATM    6  N2  UNL     1      25.715   2.817  53.225  1.00  0.00    -0.345 N 
HETATM    7  C10 UNL     1      26.774   2.291  54.077  1.00  0.00     0.201 C 
HETATM    8  N3  UNL     1      27.604   1.775  53.311  1.00  0.00    -0.266 NA
HETATM    9  C11 UNL     1      28.813   1.120  53.581  1.00  0.00     0.270 C 
HETATM   10  N4  UNL     1      28.825  -0.196  52.895  1.00  0.00    -0.381 N 
HETATM   11  C12 UNL     1      27.726  -0.873  53.531  1.00  0.00     0.085 C 
HETATM   12  C13 UNL     1      26.412  -0.910  53.614  1.00  0.00     0.026 C 
HETATM   13  H11 UNL     1      25.138   3.628  53.577  1.00  0.00     0.163 HD
HETATM   14  H15 UNL     1      29.413  -0.620  52.145  1.00  0.00     0.160 HD
ENDROOT
BRANCH   1  15
HETATM   15  C5  UNL     1      24.190  -0.129  53.344  1.00  0.00     0.254 C 
HETATM   16  C4  UNL     1      24.072  -0.543  54.767  1.00  0.00     0.042 C 
HETATM   17  C3  UNL     1      22.850  -1.353  55.081  1.00  0.00     0.024 C 
HETATM   18  C2  UNL     1      21.679  -1.034  54.196  1.00  0.00     0.093 C 
HETATM   19  C14 UNL     1      22.021  -0.738  52.776  1.00  0.00     0.290 C 
HETATM   20  N5  UNL     1      23.422  -1.078  52.547  1.00  0.00     0.094 N 
HETATM   21  H18 UNL     1      23.563  -2.025  52.964  1.00  0.00     0.316 HD
BRANCH  18  22
HETATM   22  N1  UNL     1      20.852   0.004  54.740  1.00  0.00    -0.327 NA
HETATM   23  C1  UNL     1      20.487   0.985  54.034  1.00  0.00     0.221 C 
ENDBRANCH  18  22
ENDBRANCH   1  15
TORSDOF 2
ENDMDL
MODEL 9
REMARK VINA RESULT:      -6.1      2.164      5.925
REMARK  2 active torsions:
REMARK  status: ('A' for Active; 'I' for Inactive)
REMARK    1  A    between atoms: N1_2  and  C2_3 
REMARK    2  A    between atoms: C5_6  and  C6_7 
ROOT
HETATM    1  C6  UNL     1      24.780   3.114  50.231  1.00  0.00    -0.017 C 
HETATM    2  C7  UNL     1      23.812   3.071  49.332  1.00  0.00    -0.006 A 
HETATM    3  C8  UNL     1      22.654   2.890  48.382  1.00  0.00     0.111 A 
HETATM    4  C9  UNL     1      22.509   2.388  49.715  1.00  0.00     0.205 A 
HETATM    5  F1  UNL     1      22.513   1.081  50.027  1.00  0.00    -0.214 F 
HETATM    6  N2  UNL     1      21.992   3.310  50.768  1.00  0.00    -0.345 N 
HETATM    7  C10 UNL     1      22.475   4.681  50.885  1.00  0.00     0.201 C 
HETATM    8  N3  UNL     1      22.866   5.003  49.751  1.00  0.00    -0.266 NA
HETATM    9  C11 UNL     1      23.427   6.198  49.283  1.00  0.00     0.270 C 
HETATM   10  N4  UNL     1      24.690   5.902  48.563  1.00  0.00    -0.381 N 
HETATM   11  C12 UNL     1      25.501   5.333  49.607  1.00  0.00     0.085 C 
HETATM   12  C13 UNL     1      25.660   4.264  50.359  1.00  0.00     0.026 C 
HETATM   13  H11 UNL     1      21.259   2.972  51.449  1.00  0.00     0.163 HD
HETATM   14  H15 UNL     1      25.011   6.023  47.578  1.00  0.00     0.160 HD
ENDROOT
BRANCH   1  15
HETATM   15  C5  UNL     1      25.064   2.203  51.368  1.00  0.00     0.254 C 
HETATM   16  C4  UNL     1      24.901   2.812  52.714  1.00  0.00     0.042 C 
HETATM   17  C3  UNL     1      25.813   2.253  53.764  1.00  0.00     0.024 C 
HETATM   18  C2  UNL     1      26.188   0.818  53.529  1.00  0.00     0.093 C 
HETATM   19  C14 UNL     1      26.395   0.445  52.100  1.00  0.00     0.290 C 
HETATM   20  N5  UNL     1      26.416   1.661  51.293  1.00  0.00     0.094 N 
HETATM   21  H18 UNL     1      27.049   2.328  51.787  1.00  0.00     0.316 HD
BRANCH  18  22
HETATM   22  N1  UNL     1      25.278  -0.094  54.159  1.00  0.00    -0.327 NA
HETATM   23  C1  UNL     1      24.388  -0.693  53.493  1.00  0.00     0.221 C 
ENDBRANCH  18  22
ENDBRANCH   1  15
TORSDOF 2
ENDMDL
