MODEL 1
REMARK VINA RESULT:      -8.9      0.000      0.000
REMARK  6 active torsions:
REMARK  status: ('A' for Active; 'I' for Inactive)
REMARK    1  A    between atoms: C2_2  and  N1_3 
REMARK    2  A    between atoms: C9_13  and  N5_14 
REMARK       I    between atoms: N5_14  and  C10_15 
REMARK    3  A    between atoms: C10_15  and  C11_17 
REMARK    4  A    between atoms: C12_18  and  C13_19 
REMARK    5  A    between atoms: C13_19  and  C14_20 
REMARK    6  A    between atoms: C14_20  and  N6_21 
ROOT
HETATM    1  N1  UNL     1      34.586   4.848  47.559  1.00  0.00    -0.295 NA
HETATM    2  C3  UNL     1      33.862   5.685  48.187  1.00  0.00     0.052 C 
HETATM    3  C4  UNL     1      34.725   6.836  48.684  1.00  0.00     0.123 C 
HETATM    4  C5  UNL     1      36.125   6.213  49.042  1.00  0.00     0.038 C 
HETATM    5  N2  UNL     1      35.056   7.781  47.700  1.00  0.00    -0.395 N 
HETATM    6  C6  UNL     1      34.179   8.514  46.932  1.00  0.00     0.268 C 
HETATM    7  N3  UNL     1      33.297   9.463  47.515  1.00  0.00    -0.248 NA
HETATM    8  C7  UNL     1      32.206   9.230  48.105  1.00  0.00     0.205 C 
HETATM    9  N4  UNL     1      32.601   7.880  47.760  1.00  0.00    -0.228 NA
HETATM   10  C8  UNL     1      31.745   7.008  48.159  1.00  0.00     0.083 C 
HETATM   11  C9  UNL     1      30.341   7.416  48.203  1.00  0.00     0.262 C 
HETATM   12  N7  UNL     1      30.259   8.554  49.118  1.00  0.00    -0.227 NA
HETATM   13  C20 UNL     1      30.997   9.566  48.806  1.00  0.00     0.255 C 
HETATM   14  F1  UNL     1      31.136  10.910  48.856  1.00  0.00    -0.180 F 
HETATM   15  C21 UNL     1      32.415   5.777  48.516  1.00  0.00     0.183 C 
HETATM   16 CL1  UNL     1      31.534   4.459  47.661  1.00  0.00    -0.112 Cl
HETATM   17  H10 UNL     1      36.008   7.710  47.276  1.00  0.00     0.155 HD
ENDROOT
BRANCH  11  18
HETATM   18  N5  UNL     1      29.439   6.375  48.579  1.00  0.00    -0.322 N 
HETATM   19  C10 UNL     1      28.043   6.229  48.314  1.00  0.00     0.298 C 
HETATM   20  O1  UNL     1      27.414   7.102  47.654  1.00  0.00    -0.258 OA
HETATM   21  H14 UNL     1      29.915   5.632  49.126  1.00  0.00     0.165 HD
BRANCH  19  22
HETATM   22  C11 UNL     1      27.361   5.051  48.822  1.00  0.00    -0.006 C 
HETATM   23  C12 UNL     1      26.778   4.082  49.253  1.00  0.00    -0.095 C 
BRANCH  23  24
HETATM   24  C13 UNL     1      26.074   2.900  49.784  1.00  0.00     0.114 C 
BRANCH  24  25
HETATM   25  C14 UNL     1      26.485   2.594  51.191  1.00  0.00     0.129 C 
BRANCH  25  26
HETATM   26  N6  UNL     1      25.421   2.575  52.120  1.00  0.00    -0.412 N 
HETATM   27  C15 UNL     1      25.618   1.678  53.231  1.00  0.00     0.117 C 
HETATM   28  C16 UNL     1      25.015   0.315  52.953  1.00  0.00     0.019 C 
HETATM   29  C17 UNL     1      23.528   0.521  52.785  1.00  0.00     0.003 C 
HETATM   30  C18 UNL     1      23.323   1.406  51.580  1.00  0.00     0.019 C 
HETATM   31  C19 UNL     1      24.101   2.690  51.665  1.00  0.00     0.117 C 
ENDBRANCH  25  26
ENDBRANCH  24  25
ENDBRANCH  23  24
ENDBRANCH  19  22
ENDBRANCH  11  18
BRANCH   1  32
HETATM   32  C2  UNL     1      34.238   3.646  46.930  1.00  0.00     0.144 C 
HETATM   33  C1  UNL     1      35.092   3.361  45.689  1.00  0.00     0.028 C 
ENDBRANCH   1  32
TORSDOF 6
ENDMDL
MODEL 2
REMARK VINA RESULT:      -8.8      0.947      1.410
REMARK  6 active torsions:
REMARK  status: ('A' for Active; 'I' for Inactive)
REMARK    1  A    between atoms: C2_2  and  N1_3 
REMARK    2  A    between atoms: C9_13  and  N5_14 
REMARK       I    between atoms: N5_14  and  C10_15 
REMARK    3  A    between atoms: C10_15  and  C11_17 
REMARK    4  A    between atoms: C12_18  and  C13_19 
REMARK    5  A    between atoms: C13_19  and  C14_20 
REMARK    6  A    between atoms: C14_20  and  N6_21 
ROOT
HETATM    1  N1  UNL     1      34.153   5.407  47.185  1.00  0.00    -0.295 NA
HETATM    2  C3  UNL     1      33.446   6.175  47.912  1.00  0.00     0.052 C 
HETATM    3  C4  UNL     1      34.296   7.338  48.404  1.00  0.00     0.123 C 
HETATM    4  C5  UNL     1      35.746   6.765  48.615  1.00  0.00     0.038 C 
HETATM    5  N2  UNL     1      34.505   8.348  47.451  1.00  0.00    -0.395 N 
HETATM    6  C6  UNL     1      33.537   9.077  46.796  1.00  0.00     0.268 C 
HETATM    7  N3  UNL     1      32.664   9.951  47.499  1.00  0.00    -0.248 NA
HETATM    8  C7  UNL     1      31.636   9.635  48.159  1.00  0.00     0.205 C 
HETATM    9  N4  UNL     1      32.061   8.326  47.709  1.00  0.00    -0.228 NA
HETATM   10  C8  UNL     1      31.279   7.394  48.125  1.00  0.00     0.083 C 
HETATM   11  C9  UNL     1      29.866   7.731  48.302  1.00  0.00     0.262 C 
HETATM   12  N7  UNL     1      29.809   8.815  49.282  1.00  0.00    -0.227 NA
HETATM   13  C20 UNL     1      30.474   9.876  48.970  1.00  0.00     0.255 C 
HETATM   14  F1  UNL     1      30.558  11.221  49.084  1.00  0.00    -0.180 F 
HETATM   15  C21 UNL     1      32.029   6.180  48.359  1.00  0.00     0.183 C 
HETATM   16 CL1  UNL     1      31.139   4.867  47.504  1.00  0.00    -0.112 Cl
HETATM   17  H10 UNL     1      35.422   8.345  46.951  1.00  0.00     0.155 HD
ENDROOT
BRANCH  11  18
HETATM   18  N5  UNL     1      29.044   6.630  48.689  1.00  0.00    -0.322 N 
HETATM   19  C10 UNL     1      27.669   6.367  48.407  1.00  0.00     0.298 C 
HETATM   20  O1  UNL     1      26.983   7.172  47.718  1.00  0.00    -0.258 OA
HETATM   21  H14 UNL     1      29.569   5.940  49.261  1.00  0.00     0.165 HD
BRANCH  19  22
HETATM   22  C11 UNL     1      27.074   5.149  48.933  1.00  0.00    -0.006 C 
HETATM   23  C12 UNL     1      26.563   4.139  49.359  1.00  0.00    -0.095 C 
BRANCH  23  24
HETATM   24  C13 UNL     1      25.938   2.912  49.886  1.00  0.00     0.114 C 
BRANCH  24  25
HETATM   25  C14 UNL     1      26.700   2.357  51.049  1.00  0.00     0.129 C 
BRANCH  25  26
HETATM   26  N6  UNL     1      26.029   1.332  51.752  1.00  0.00    -0.412 N 
HETATM   27  C15 UNL     1      25.245   1.792  52.872  1.00  0.00     0.117 C 
HETATM   28  C16 UNL     1      26.045   1.751  54.159  1.00  0.00     0.019 C 
HETATM   29  C17 UNL     1      26.399   0.304  54.407  1.00  0.00     0.003 C 
HETATM   30  C18 UNL     1      27.275  -0.155  53.268  1.00  0.00     0.019 C 
HETATM   31  C19 UNL     1      26.649   0.087  51.923  1.00  0.00     0.117 C 
ENDBRANCH  25  26
ENDBRANCH  24  25
ENDBRANCH  23  24
ENDBRANCH  19  22
ENDBRANCH  11  18
BRANCH   1  32
HETATM   32  C2  UNL     1      33.808   4.224  46.519  1.00  0.00     0.144 C 
HETATM   33  C1  UNL     1      35.030   3.482  45.963  1.00  0.00     0.028 C 
ENDBRANCH   1  32
TORSDOF 6
ENDMDL
MODEL 3
REMARK VINA RESULT:      -8.5      7.740     10.845
REMARK  6 active torsions:
REMARK  status: ('A' for Active; 'I' for Inactive)
REMARK    1  A    between atoms: C2_2  and  N1_3 
REMARK    2  A    between atoms: C9_13  and  N5_14 
REMARK       I    between atoms: N5_14  and  C10_15 
REMARK    3  A    between atoms: C10_15  and  C11_17 
REMARK    4  A    between atoms: C12_18  and  C13_19 
REMARK    5  A    between atoms: C13_19  and  C14_20 
REMARK    6  A    between atoms: C14_20  and  N6_21 
ROOT
HETATM    1  N1  UNL     1      27.058   0.853  52.921  1.00  0.00    -0.295 NA
HETATM    2  C3  UNL     1      25.886   0.400  52.716  1.00  0.00     0.052 C 
HETATM    3  C4  UNL     1      25.845  -1.083  53.057  1.00  0.00     0.123 C 
HETATM    4  C5  UNL     1      27.256  -1.662  52.670  1.00  0.00     0.038 C 
HETATM    5  N2  UNL     1      25.769  -1.362  54.431  1.00  0.00    -0.395 N 
HETATM    6  C6  UNL     1      24.797  -0.934  55.307  1.00  0.00     0.268 C 
HETATM    7  N3  UNL     1      23.443  -1.345  55.171  1.00  0.00    -0.248 NA
HETATM    8  C7  UNL     1      22.582  -0.887  54.371  1.00  0.00     0.205 C 
HETATM    9  N4  UNL     1      23.722  -0.068  54.013  1.00  0.00    -0.228 NA
HETATM   10  C8  UNL     1      23.444   0.766  53.075  1.00  0.00     0.083 C 
HETATM   11  C9  UNL     1      22.074   1.276  53.013  1.00  0.00     0.262 C 
HETATM   12  N7  UNL     1      21.198   0.118  52.838  1.00  0.00    -0.227 NA
HETATM   13  C20 UNL     1      21.286  -0.784  53.757  1.00  0.00     0.255 C 
HETATM   14  F1  UNL     1      20.637  -1.748  54.449  1.00  0.00    -0.180 F 
HETATM   15  C21 UNL     1      24.606   0.988  52.243  1.00  0.00     0.183 C 
HETATM   16 CL1  UNL     1      24.793   2.774  52.109  1.00  0.00    -0.112 Cl
HETATM   17  H10 UNL     1      26.657  -1.633  54.909  1.00  0.00     0.155 HD
ENDROOT
BRANCH  11  18
HETATM   18  N5  UNL     1      21.857   2.256  51.997  1.00  0.00    -0.322 N 
HETATM   19  C10 UNL     1      20.794   3.195  51.839  1.00  0.00     0.298 C 
HETATM   20  O1  UNL     1      19.847   3.248  52.672  1.00  0.00    -0.258 OA
HETATM   21  H14 UNL     1      22.615   2.247  51.287  1.00  0.00     0.165 HD
BRANCH  19  22
HETATM   22  C11 UNL     1      20.825   4.091  50.695  1.00  0.00    -0.006 C 
HETATM   23  C12 UNL     1      20.863   4.850  49.753  1.00  0.00    -0.095 C 
BRANCH  23  24
HETATM   24  C13 UNL     1      20.901   5.776  48.608  1.00  0.00     0.114 C 
BRANCH  24  25
HETATM   25  C14 UNL     1      22.194   5.679  47.858  1.00  0.00     0.129 C 
BRANCH  25  26
HETATM   26  N6  UNL     1      23.162   6.636  48.235  1.00  0.00    -0.412 N 
HETATM   27  C15 UNL     1      24.434   6.076  48.621  1.00  0.00     0.117 C 
HETATM   28  C16 UNL     1      24.503   5.844  50.117  1.00  0.00     0.019 C 
HETATM   29  C17 UNL     1      24.378   7.198  50.775  1.00  0.00     0.003 C 
HETATM   30  C18 UNL     1      23.018   7.751  50.425  1.00  0.00     0.019 C 
HETATM   31  C19 UNL     1      22.769   7.780  48.943  1.00  0.00     0.117 C 
ENDBRANCH  25  26
ENDBRANCH  24  25
ENDBRANCH  23  24
ENDBRANCH  19  22
ENDBRANCH  11  18
BRANCH   1  32
HETATM   32  C2  UNL     1      27.569   2.146  52.750  1.00  0.00     0.144 C 
HETATM   33  C1  UNL     1      28.735   2.449  53.699  1.00  0.00     0.028 C 
ENDBRANCH   1  32
TORSDOF 6
ENDMDL
MODEL 4
REMARK VINA RESULT:      -8.4      7.249     10.427
REMARK  6 active torsions:
REMARK  status: ('A' for Active; 'I' for Inactive)
REMARK    1  A    between atoms: C2_2  and  N1_3 
REMARK    2  A    between atoms: C9_13  and  N5_14 
REMARK       I    between atoms: N5_14  and  C10_15 
REMARK    3  A    between atoms: C10_15  and  C11_17 
REMARK    4  A    between atoms: C12_18  and  C13_19 
REMARK    5  A    between atoms: C13_19  and  C14_20 
REMARK    6  A    between atoms: C14_20  and  N6_21 
ROOT
HETATM    1  N1  UNL     1      24.543   4.139  51.302  1.00  0.00    -0.295 NA
HETATM    2  C3  UNL     1      24.814   2.897  51.324  1.00  0.00     0.052 C 
HETATM    3  C4  UNL     1      26.177   2.659  50.690  1.00  0.00     0.123 C 
HETATM    4  C5  UNL     1      26.320   3.726  49.541  1.00  0.00     0.038 C 
HETATM    5  N2  UNL     1      27.266   2.964  51.523  1.00  0.00    -0.395 N 
HETATM    6  C6  UNL     1      27.532   2.427  52.763  1.00  0.00     0.268 C 
HETATM    7  N3  UNL     1      27.822   1.046  52.926  1.00  0.00    -0.248 NA
HETATM    8  C7  UNL     1      26.998   0.091  52.956  1.00  0.00     0.205 C 
HETATM    9  N4  UNL     1      26.090   1.203  52.769  1.00  0.00    -0.228 NA
HETATM   10  C8  UNL     1      24.863   0.821  52.710  1.00  0.00     0.083 C 
HETATM   11  C9  UNL     1      24.489  -0.362  53.484  1.00  0.00     0.262 C 
HETATM   12  N7  UNL     1      25.311  -1.467  52.993  1.00  0.00    -0.227 NA
HETATM   13  C20 UNL     1      26.586  -1.282  53.069  1.00  0.00     0.255 C 
HETATM   14  F1  UNL     1      27.797  -1.865  53.222  1.00  0.00    -0.180 F 
HETATM   15  C21 UNL     1      24.115   1.682  51.820  1.00  0.00     0.183 C 
HETATM   16 CL1  UNL     1      22.642   2.182  52.728  1.00  0.00    -0.112 Cl
HETATM   17  H10 UNL     1      27.741   3.882  51.366  1.00  0.00     0.155 HD
ENDROOT
BRANCH  11  18
HETATM   18  N5  UNL     1      23.098  -0.680  53.434  1.00  0.00    -0.322 N 
HETATM   19  C10 UNL     1      22.256  -1.272  54.424  1.00  0.00     0.298 C 
HETATM   20  O1  UNL     1      22.715  -1.605  55.552  1.00  0.00    -0.258 OA
HETATM   21  H14 UNL     1      22.677  -0.423  52.521  1.00  0.00     0.165 HD
BRANCH  19  22
HETATM   22  C11 UNL     1      20.854  -1.485  54.103  1.00  0.00    -0.006 C 
HETATM   23  C12 UNL     1      19.689  -1.647  53.820  1.00  0.00    -0.095 C 
BRANCH  23  24
HETATM   24  C13 UNL     1      18.267  -1.841  53.483  1.00  0.00     0.114 C 
BRANCH  24  25
HETATM   25  C14 UNL     1      17.682  -0.630  52.827  1.00  0.00     0.129 C 
BRANCH  25  26
HETATM   26  N6  UNL     1      18.017  -0.484  51.462  1.00  0.00    -0.412 N 
HETATM   27  C15 UNL     1      19.117   0.414  51.212  1.00  0.00     0.117 C 
HETATM   28  C16 UNL     1      18.628   1.823  50.942  1.00  0.00     0.019 C 
HETATM   29  C17 UNL     1      17.789   1.762  49.688  1.00  0.00     0.003 C 
HETATM   30  C18 UNL     1      16.602   0.875  49.975  1.00  0.00     0.019 C 
HETATM   31  C19 UNL     1      17.002  -0.477  50.495  1.00  0.00     0.117 C 
ENDBRANCH  25  26
ENDBRANCH  24  25
ENDBRANCH  23  24
ENDBRANCH  19  22
ENDBRANCH  11  18
BRANCH   1  32
HETATM   32  C2  UNL     1      23.414   4.826  51.767  1.00  0.00     0.144 C 
HETATM   33  C1  UNL     1      22.680   5.579  50.651  1.00  0.00     0.028 C 
ENDBRANCH   1  32
TORSDOF 6
ENDMDL
MODEL 5
REMARK VINA RESULT:      -8.1      1.341      1.991
REMARK  6 active torsions:
REMARK  status: ('A' for Active; 'I' for Inactive)
REMARK    1  A    between atoms: C2_2  and  N1_3 
REMARK    2  A    between atoms: C9_13  and  N5_14 
REMARK       I    between atoms: N5_14  and  C10_15 
REMARK    3  A    between atoms: C10_15  and  C11_17 
REMARK    4  A    between atoms: C12_18  and  C13_19 
REMARK    5  A    between atoms: C13_19  and  C14_20 
REMARK    6  A    between atoms: C14_20  and  N6_21 
ROOT
HETATM    1  N1  UNL     1      33.931   5.560  47.189  1.00  0.00    -0.295 NA
HETATM    2  C3  UNL     1      33.252   6.331  47.939  1.00  0.00     0.052 C 
HETATM    3  C4  UNL     1      34.134   7.467  48.437  1.00  0.00     0.123 C 
HETATM    4  C5  UNL     1      35.574   6.858  48.618  1.00  0.00     0.038 C 
HETATM    5  N2  UNL     1      34.352   8.487  47.497  1.00  0.00    -0.395 N 
HETATM    6  C6  UNL     1      33.393   9.248  46.867  1.00  0.00     0.268 C 
HETATM    7  N3  UNL     1      32.549  10.130  47.596  1.00  0.00    -0.248 NA
HETATM    8  C7  UNL     1      31.523   9.826  48.265  1.00  0.00     0.205 C 
HETATM    9  N4  UNL     1      31.912   8.515  47.789  1.00  0.00    -0.228 NA
HETATM   10  C8  UNL     1      31.115   7.594  48.201  1.00  0.00     0.083 C 
HETATM   11  C9  UNL     1      29.713   7.960  48.403  1.00  0.00     0.262 C 
HETATM   12  N7  UNL     1      29.693   9.029  49.401  1.00  0.00    -0.227 NA
HETATM   13  C20 UNL     1      30.378  10.079  49.096  1.00  0.00     0.255 C 
HETATM   14  F1  UNL     1      30.494  11.420  49.230  1.00  0.00    -0.180 F 
HETATM   15  C21 UNL     1      31.841   6.360  48.405  1.00  0.00     0.183 C 
HETATM   16 CL1  UNL     1      30.910   5.082  47.542  1.00  0.00    -0.112 Cl
HETATM   17  H10 UNL     1      35.262   8.472  46.983  1.00  0.00     0.155 HD
ENDROOT
BRANCH  11  18
HETATM   18  N5  UNL     1      28.872   6.871  48.784  1.00  0.00    -0.322 N 
HETATM   19  C10 UNL     1      27.551   6.538  48.356  1.00  0.00     0.298 C 
HETATM   20  O1  UNL     1      26.943   7.254  47.513  1.00  0.00    -0.258 OA
HETATM   21  H14 UNL     1      29.333   6.253  49.480  1.00  0.00     0.165 HD
BRANCH  19  22
HETATM   22  C11 UNL     1      26.920   5.353  48.914  1.00  0.00    -0.006 C 
HETATM   23  C12 UNL     1      26.388   4.362  49.359  1.00  0.00    -0.095 C 
BRANCH  23  24
HETATM   24  C13 UNL     1      25.735   3.159  49.905  1.00  0.00     0.114 C 
BRANCH  24  25
HETATM   25  C14 UNL     1      24.281   3.106  49.548  1.00  0.00     0.129 C 
BRANCH  25  26
HETATM   26  N6  UNL     1      23.415   2.921  50.648  1.00  0.00    -0.412 N 
HETATM   27  C15 UNL     1      22.061   3.362  50.421  1.00  0.00     0.117 C 
HETATM   28  C16 UNL     1      21.864   4.793  50.879  1.00  0.00     0.019 C 
HETATM   29  C17 UNL     1      22.111   4.813  52.369  1.00  0.00     0.003 C 
HETATM   30  C18 UNL     1      23.548   4.417  52.599  1.00  0.00     0.019 C 
HETATM   31  C19 UNL     1      23.898   3.106  51.951  1.00  0.00     0.117 C 
ENDBRANCH  25  26
ENDBRANCH  24  25
ENDBRANCH  23  24
ENDBRANCH  19  22
ENDBRANCH  11  18
BRANCH   1  32
HETATM   32  C2  UNL     1      33.551   4.395  46.509  1.00  0.00     0.144 C 
HETATM   33  C1  UNL     1      34.100   3.123  47.166  1.00  0.00     0.028 C 
ENDBRANCH   1  32
TORSDOF 6
ENDMDL
MODEL 6
REMARK VINA RESULT:      -8.1      7.166     10.691
REMARK  6 active torsions:
REMARK  status: ('A' for Active; 'I' for Inactive)
REMARK    1  A    between atoms: C2_2  and  N1_3 
REMARK    2  A    between atoms: C9_13  and  N5_14 
REMARK       I    between atoms: N5_14  and  C10_15 
REMARK    3  A    between atoms: C10_15  and  C11_17 
REMARK    4  A    between atoms: C12_18  and  C13_19 
REMARK    5  A    between atoms: C13_19  and  C14_20 
REMARK    6  A    between atoms: C14_20  and  N6_21 
ROOT
HETATM    1  N1  UNL     1      24.678   4.242  51.149  1.00  0.00    -0.295 NA
HETATM    2  C3  UNL     1      24.894   2.990  51.211  1.00  0.00     0.052 C 
HETATM    3  C4  UNL     1      26.261   2.678  50.618  1.00  0.00     0.123 C 
HETATM    4  C5  UNL     1      26.476   3.705  49.445  1.00  0.00     0.038 C 
HETATM    5  N2  UNL     1      27.341   2.959  51.470  1.00  0.00    -0.395 N 
HETATM    6  C6  UNL     1      27.554   2.446  52.730  1.00  0.00     0.268 C 
HETATM    7  N3  UNL     1      27.781   1.059  52.937  1.00  0.00    -0.248 NA
HETATM    8  C7  UNL     1      26.916   0.141  52.973  1.00  0.00     0.205 C 
HETATM    9  N4  UNL     1      26.061   1.284  52.733  1.00  0.00    -0.228 NA
HETATM   10  C8  UNL     1      24.821   0.954  52.653  1.00  0.00     0.083 C 
HETATM   11  C9  UNL     1      24.378  -0.191  53.449  1.00  0.00     0.262 C 
HETATM   12  N7  UNL     1      25.163  -1.343  53.009  1.00  0.00    -0.227 NA
HETATM   13  C20 UNL     1      26.443  -1.210  53.112  1.00  0.00     0.255 C 
HETATM   14  F1  UNL     1      27.623  -1.839  53.311  1.00  0.00    -0.180 F 
HETATM   15  C21 UNL     1      24.132   1.820  51.722  1.00  0.00     0.183 C 
HETATM   16 CL1  UNL     1      22.660   2.407  52.578  1.00  0.00    -0.112 Cl
HETATM   17  H10 UNL     1      27.859   3.851  51.300  1.00  0.00     0.155 HD
ENDROOT
BRANCH  11  18
HETATM   18  N5  UNL     1      22.976  -0.451  53.373  1.00  0.00    -0.322 N 
HETATM   19  C10 UNL     1      22.098  -1.037  54.334  1.00  0.00     0.298 C 
HETATM   20  O1  UNL     1      22.528  -1.421  55.457  1.00  0.00    -0.258 OA
HETATM   21  H14 UNL     1      22.578  -0.150  52.462  1.00  0.00     0.165 HD
BRANCH  19  22
HETATM   22  C11 UNL     1      20.693  -1.184  53.990  1.00  0.00    -0.006 C 
HETATM   23  C12 UNL     1      19.530  -1.309  53.683  1.00  0.00    -0.095 C 
BRANCH  23  24
HETATM   24  C13 UNL     1      18.110  -1.454  53.311  1.00  0.00     0.114 C 
BRANCH  24  25
HETATM   25  C14 UNL     1      17.781  -0.684  52.070  1.00  0.00     0.129 C 
BRANCH  25  26
HETATM   26  N6  UNL     1      16.420  -0.325  51.948  1.00  0.00    -0.412 N 
HETATM   27  C15 UNL     1      15.495  -1.352  52.357  1.00  0.00     0.117 C 
HETATM   28  C16 UNL     1      15.072  -2.213  51.183  1.00  0.00     0.019 C 
HETATM   29  C17 UNL     1      14.354  -1.306  50.213  1.00  0.00     0.003 C 
HETATM   30  C18 UNL     1      15.344  -0.273  49.734  1.00  0.00     0.019 C 
HETATM   31  C19 UNL     1      16.004   0.463  50.867  1.00  0.00     0.117 C 
ENDBRANCH  25  26
ENDBRANCH  24  25
ENDBRANCH  23  24
ENDBRANCH  19  22
ENDBRANCH  11  18
BRANCH   1  32
HETATM   32  C2  UNL     1      23.568   4.988  51.566  1.00  0.00     0.144 C 
HETATM   33  C1  UNL     1      23.734   6.490  51.303  1.00  0.00     0.028 C 
ENDBRANCH   1  32
TORSDOF 6
ENDMDL
MODEL 7
REMARK VINA RESULT:      -8.0      3.335      9.613
REMARK  6 active torsions:
REMARK  status: ('A' for Active; 'I' for Inactive)
REMARK    1  A    between atoms: C2_2  and  N1_3 
REMARK    2  A    between atoms: C9_13  and  N5_14 
REMARK       I    between atoms: N5_14  and  C10_15 
REMARK    3  A    between atoms: C10_15  and  C11_17 
REMARK    4  A    between atoms: C12_18  and  C13_19 
REMARK    5  A    between atoms: C13_19  and  C14_20 
REMARK    6  A    between atoms: C14_20  and  N6_21 
ROOT
HETATM    1  N1  UNL     1      24.495   1.543  51.531  1.00  0.00    -0.295 NA
HETATM    2  C3  UNL     1      24.258   2.562  50.807  1.00  0.00     0.052 C 
HETATM    3  C4  UNL     1      22.755   2.720  50.624  1.00  0.00     0.123 C 
HETATM    4  C5  UNL     1      22.162   1.263  50.580  1.00  0.00     0.038 C 
HETATM    5  N2  UNL     1      22.092   3.284  51.726  1.00  0.00    -0.395 N 
HETATM    6  C6  UNL     1      22.348   4.507  52.305  1.00  0.00     0.268 C 
HETATM    7  N3  UNL     1      22.149   5.721  51.592  1.00  0.00    -0.248 NA
HETATM    8  C7  UNL     1      22.918   6.237  50.735  1.00  0.00     0.205 C 
HETATM    9  N4  UNL     1      23.673   5.047  51.067  1.00  0.00    -0.228 NA
HETATM   10  C8  UNL     1      24.772   4.971  50.405  1.00  0.00     0.083 C 
HETATM   11  C9  UNL     1      25.428   6.228  50.044  1.00  0.00     0.262 C 
HETATM   12  N7  UNL     1      24.479   6.981  49.224  1.00  0.00    -0.227 NA
HETATM   13  C20 UNL     1      23.342   7.227  49.782  1.00  0.00     0.255 C 
HETATM   14  F1  UNL     1      22.296   8.079  49.868  1.00  0.00    -0.180 F 
HETATM   15  C21 UNL     1      25.099   3.588  50.136  1.00  0.00     0.183 C 
HETATM   16 CL1  UNL     1      26.812   3.368  50.647  1.00  0.00    -0.112 Cl
HETATM   17  H10 UNL     1      21.593   2.627  52.367  1.00  0.00     0.155 HD
ENDROOT
BRANCH  11  18
HETATM   18  N5  UNL     1      26.682   6.067  49.382  1.00  0.00    -0.322 N 
HETATM   19  C10 UNL     1      27.575   7.048  48.855  1.00  0.00     0.298 C 
HETATM   20  O1  UNL     1      27.307   8.279  48.935  1.00  0.00    -0.258 OA
HETATM   21  H14 UNL     1      26.944   5.066  49.292  1.00  0.00     0.165 HD
BRANCH  19  22
HETATM   22  C11 UNL     1      28.804   6.598  48.222  1.00  0.00    -0.006 C 
HETATM   23  C12 UNL     1      29.837   6.236  47.707  1.00  0.00    -0.095 C 
BRANCH  23  24
HETATM   24  C13 UNL     1      31.095   5.799  47.074  1.00  0.00     0.114 C 
BRANCH  24  25
HETATM   25  C14 UNL     1      31.734   4.673  47.827  1.00  0.00     0.129 C 
BRANCH  25  26
HETATM   26  N6  UNL     1      32.358   3.704  47.012  1.00  0.00    -0.412 N 
HETATM   27  C15 UNL     1      33.238   2.807  47.720  1.00  0.00     0.117 C 
HETATM   28  C16 UNL     1      34.666   3.314  47.709  1.00  0.00     0.019 C 
HETATM   29  C17 UNL     1      35.107   3.346  46.265  1.00  0.00     0.003 C 
HETATM   30  C18 UNL     1      34.228   4.336  45.541  1.00  0.00     0.019 C 
HETATM   31  C19 UNL     1      32.764   4.045  45.714  1.00  0.00     0.117 C 
ENDBRANCH  25  26
ENDBRANCH  24  25
ENDBRANCH  23  24
ENDBRANCH  19  22
ENDBRANCH  11  18
BRANCH   1  32
HETATM   32  C2  UNL     1      25.715   1.007  51.964  1.00  0.00     0.144 C 
HETATM   33  C1  UNL     1      25.915   1.142  53.478  1.00  0.00     0.028 C 
ENDBRANCH   1  32
TORSDOF 6
ENDMDL
MODEL 8
REMARK VINA RESULT:      -7.6      7.559     11.130
REMARK  6 active torsions:
REMARK  status: ('A' for Active; 'I' for Inactive)
REMARK    1  A    between atoms: C2_2  and  N1_3 
REMARK    2  A    between atoms: C9_13  and  N5_14 
REMARK       I    between atoms: N5_14  and  C10_15 
REMARK    3  A    between atoms: C10_15  and  C11_17 
REMARK    4  A    between atoms: C12_18  and  C13_19 
REMARK    5  A    between atoms: C13_19  and  C14_20 
REMARK    6  A    between atoms: C14_20  and  N6_21 
ROOT
HETATM    1  N1  UNL     1      24.321   4.273  50.698  1.00  0.00    -0.295 NA
HETATM    2  C3  UNL     1      24.317   3.046  51.031  1.00  0.00     0.052 C 
HETATM    3  C4  UNL     1      25.736   2.496  50.973  1.00  0.00     0.123 C 
HETATM    4  C5  UNL     1      26.446   3.239  49.780  1.00  0.00     0.038 C 
HETATM    5  N2  UNL     1      26.540   2.845  52.069  1.00  0.00    -0.395 N 
HETATM    6  C6  UNL     1      26.284   2.583  53.397  1.00  0.00     0.268 C 
HETATM    7  N3  UNL     1      26.226   1.251  53.891  1.00  0.00    -0.248 NA
HETATM    8  C7  UNL     1      25.262   0.442  53.795  1.00  0.00     0.205 C 
HETATM    9  N4  UNL     1      24.702   1.587  53.107  1.00  0.00    -0.228 NA
HETATM   10  C8  UNL     1      23.508   1.361  52.686  1.00  0.00     0.083 C 
HETATM   11  C9  UNL     1      22.679   0.448  53.472  1.00  0.00     0.262 C 
HETATM   12  N7  UNL     1      23.377  -0.837  53.505  1.00  0.00    -0.227 NA
HETATM   13  C20 UNL     1      24.571  -0.802  53.994  1.00  0.00     0.255 C 
HETATM   14  F1  UNL     1      25.528  -1.483  54.665  1.00  0.00    -0.180 F 
HETATM   15  C21 UNL     1      23.270   2.079  51.453  1.00  0.00     0.183 C 
HETATM   16 CL1  UNL     1      21.715   2.960  51.678  1.00  0.00    -0.112 Cl
HETATM   17  H10 UNL     1      27.213   3.633  51.932  1.00  0.00     0.155 HD
ENDROOT
BRANCH  11  18
HETATM   18  N5  UNL     1      21.342   0.307  52.990  1.00  0.00    -0.322 N 
HETATM   19  C10 UNL     1      20.298  -0.567  53.421  1.00  0.00     0.298 C 
HETATM   20  O1  UNL     1      20.484  -1.381  54.368  1.00  0.00    -0.258 OA
HETATM   21  H14 UNL     1      21.144   0.960  52.207  1.00  0.00     0.165 HD
BRANCH  19  22
HETATM   22  C11 UNL     1      19.014  -0.498  52.744  1.00  0.00    -0.006 C 
HETATM   23  C12 UNL     1      17.951  -0.423  52.171  1.00  0.00    -0.095 C 
BRANCH  23  24
HETATM   24  C13 UNL     1      16.652  -0.330  51.479  1.00  0.00     0.114 C 
BRANCH  24  25
HETATM   25  C14 UNL     1      15.654   0.452  52.276  1.00  0.00     0.129 C 
BRANCH  25  26
HETATM   26  N6  UNL     1      15.234   1.655  51.667  1.00  0.00    -0.412 N 
HETATM   27  C15 UNL     1      16.221   2.267  50.813  1.00  0.00     0.117 C 
HETATM   28  C16 UNL     1      17.053   3.282  51.572  1.00  0.00     0.019 C 
HETATM   29  C17 UNL     1      16.108   4.366  52.032  1.00  0.00     0.003 C 
HETATM   30  C18 UNL     1      15.117   3.735  52.980  1.00  0.00     0.019 C 
HETATM   31  C19 UNL     1      14.420   2.546  52.380  1.00  0.00     0.117 C 
ENDBRANCH  25  26
ENDBRANCH  24  25
ENDBRANCH  23  24
ENDBRANCH  19  22
ENDBRANCH  11  18
BRANCH   1  32
HETATM   32  C2  UNL     1      23.264   5.187  50.605  1.00  0.00     0.144 C 
HETATM   33  C1  UNL     1      22.805   5.416  49.159  1.00  0.00     0.028 C 
ENDBRANCH   1  32
TORSDOF 6
ENDMDL
MODEL 9
REMARK VINA RESULT:      -7.4      2.819      5.039
REMARK  6 active torsions:
REMARK  status: ('A' for Active; 'I' for Inactive)
REMARK    1  A    between atoms: C2_2  and  N1_3 
REMARK    2  A    between atoms: C9_13  and  N5_14 
REMARK       I    between atoms: N5_14  and  C10_15 
REMARK    3  A    between atoms: C10_15  and  C11_17 
REMARK    4  A    between atoms: C12_18  and  C13_19 
REMARK    5  A    between atoms: C13_19  and  C14_20 
REMARK    6  A    between atoms: C14_20  and  N6_21 
ROOT
HETATM    1  N1  UNL     1      29.535  12.631  47.588  1.00  0.00    -0.295 NA
HETATM    2  C3  UNL     1      29.911  11.562  47.011  1.00  0.00     0.052 C 
HETATM    3  C4  UNL     1      30.847  11.904  45.860  1.00  0.00     0.123 C 
HETATM    4  C5  UNL     1      30.334  13.270  45.268  1.00  0.00     0.038 C 
HETATM    5  N2  UNL     1      32.159  12.217  46.251  1.00  0.00    -0.395 N 
HETATM    6  C6  UNL     1      33.019  11.417  46.969  1.00  0.00     0.268 C 
HETATM    7  N3  UNL     1      33.492  10.182  46.447  1.00  0.00    -0.248 NA
HETATM    8  C7  UNL     1      32.878   9.080  46.417  1.00  0.00     0.205 C 
HETATM    9  N4  UNL     1      31.876   9.911  47.052  1.00  0.00    -0.228 NA
HETATM   10  C8  UNL     1      30.806   9.254  47.329  1.00  0.00     0.083 C 
HETATM   11  C9  UNL     1      30.955   7.835  47.653  1.00  0.00     0.262 C 
HETATM   12  N7  UNL     1      31.568   7.196  46.489  1.00  0.00    -0.227 NA
HETATM   13  C20 UNL     1      32.708   7.682  46.130  1.00  0.00     0.255 C 
HETATM   14  F1  UNL     1      33.906   7.426  45.558  1.00  0.00    -0.180 F 
HETATM   15  C21 UNL     1      29.649  10.114  47.218  1.00  0.00     0.183 C 
HETATM   16 CL1  UNL     1      28.715   9.898  48.743  1.00  0.00    -0.112 Cl
HETATM   17  H10 UNL     1      32.411  13.230  46.297  1.00  0.00     0.155 HD
ENDROOT
BRANCH  11  18
HETATM   18  N5  UNL     1      29.738   7.188  48.027  1.00  0.00    -0.322 N 
HETATM   19  C10 UNL     1      29.455   5.801  48.214  1.00  0.00     0.298 C 
HETATM   20  O1  UNL     1      30.352   4.928  48.047  1.00  0.00    -0.258 OA
HETATM   21  H14 UNL     1      28.969   7.871  48.175  1.00  0.00     0.165 HD
BRANCH  19  22
HETATM   22  C11 UNL     1      28.109   5.415  48.602  1.00  0.00    -0.006 C 
HETATM   23  C12 UNL     1      26.995   5.075  48.932  1.00  0.00    -0.095 C 
BRANCH  23  24
HETATM   24  C13 UNL     1      25.636   4.661  49.326  1.00  0.00     0.114 C 
BRANCH  24  25
HETATM   25  C14 UNL     1      25.605   3.241  49.801  1.00  0.00     0.129 C 
BRANCH  25  26
HETATM   26  N6  UNL     1      25.633   3.094  51.206  1.00  0.00    -0.412 N 
HETATM   27  C15 UNL     1      26.769   2.359  51.704  1.00  0.00     0.117 C 
HETATM   28  C16 UNL     1      26.451   0.883  51.848  1.00  0.00     0.019 C 
HETATM   29  C17 UNL     1      25.346   0.772  52.870  1.00  0.00     0.003 C 
HETATM   30  C18 UNL     1      24.137   1.484  52.315  1.00  0.00     0.019 C 
HETATM   31  C19 UNL     1      24.436   2.900  51.908  1.00  0.00     0.117 C 
ENDBRANCH  25  26
ENDBRANCH  24  25
ENDBRANCH  23  24
ENDBRANCH  19  22
ENDBRANCH  11  18
BRANCH   1  32
HETATM   32  C2  UNL     1      28.682  12.814  48.684  1.00  0.00     0.144 C 
HETATM   33  C1  UNL     1      27.305  13.352  48.278  1.00  0.00     0.028 C 
ENDBRANCH   1  32
TORSDOF 6
ENDMDL
