MODEL 1
REMARK VINA RESULT:      -8.1      0.000      0.000
REMARK  6 active torsions:
REMARK  status: ('A' for Active; 'I' for Inactive)
REMARK    1  A    between atoms: O1_2  and  C2_3 
REMARK    2  A    between atoms: C8_11  and  N3_12 
REMARK    3  A    between atoms: N3_12  and  C9_13 
REMARK    4  A    between atoms: C9_13  and  C10_14 
REMARK    5  A    between atoms: C19_24  and  O2_25 
REMARK    6  A    between atoms: C21_27  and  O3_28 
ROOT
HETATM    1  N3  UNL     1      25.102   2.809  50.852  1.00  0.00    -0.383 N 
HETATM    2  H7  UNL     1      24.768   2.586  49.864  1.00  0.00     0.160 HD
ENDROOT
BRANCH   1   3
HETATM    3  C8  UNL     1      23.972   3.559  51.164  1.00  0.00     0.079 A 
HETATM    4  C7  UNL     1      22.768   3.149  51.691  1.00  0.00     0.040 A 
HETATM    5  C4  UNL     1      21.710   3.973  51.997  1.00  0.00     0.074 A 
HETATM    6  C6  UNL     1      22.631   1.798  51.914  1.00  0.00     0.134 A 
HETATM    7  C3  UNL     1      21.915   5.311  51.738  1.00  0.00     0.072 A 
HETATM    8  N1  UNL     1      20.571   3.470  52.503  1.00  0.00    -0.241 NA
HETATM    9  C2  UNL     1      23.069   5.848  51.212  1.00  0.00     0.106 A 
HETATM   10  C21 UNL     1      24.067   4.940  50.941  1.00  0.00     0.129 A 
HETATM   11  C5  UNL     1      20.431   2.131  52.727  1.00  0.00     0.233 A 
HETATM   12  N2  UNL     1      21.481   1.320  52.420  1.00  0.00    -0.253 NA
BRANCH   9  13
HETATM   13  O1  UNL     1      23.223   7.206  50.968  1.00  0.00    -0.353 OA
HETATM   14  C1  UNL     1      22.459   7.925  50.050  1.00  0.00     0.210 C 
ENDBRANCH   9  13
BRANCH  10  15
HETATM   15  O3  UNL     1      25.241   5.511  50.404  1.00  0.00    -0.351 OA
HETATM   16  C22 UNL     1      25.281   5.535  48.973  1.00  0.00     0.210 C 
ENDBRANCH  10  15
ENDBRANCH   1   3
BRANCH   1  17
HETATM   17  C9  UNL     1      26.352   2.311  51.315  1.00  0.00     0.147 C 
BRANCH  17  18
HETATM   18  C10 UNL     1      26.353   0.849  51.374  1.00  0.00    -0.002 C 
HETATM   19  C11 UNL     1      26.214  -0.225  52.172  1.00  0.00    -0.045 C 
HETATM   20  C12 UNL     1      26.278  -1.705  51.881  1.00  0.00     0.063 C 
HETATM   21  C19 UNL     1      25.845   0.016  53.614  1.00  0.00     0.190 C 
HETATM   22  C13 UNL     1      27.477  -2.223  52.672  1.00  0.00    -0.026 C 
HETATM   23  C14 UNL     1      28.338  -1.419  53.358  1.00  0.00    -0.025 C 
HETATM   24  C15 UNL     1      29.306  -0.613  54.122  1.00  0.00     0.020 C 
HETATM   25  C16 UNL     1      30.280   0.171  53.325  1.00  0.00     0.016 C 
HETATM   26  C17 UNL     1      28.664   0.254  55.192  1.00  0.00     0.115 C 
HETATM   27  N4  UNL     1      27.751   1.210  54.725  1.00  0.00    -0.421 NA
HETATM   28  C18 UNL     1      26.661   1.137  54.115  1.00  0.00     0.283 C 
BRANCH  21  29
HETATM   29  O2  UNL     1      25.849  -1.115  54.376  1.00  0.00    -0.381 OA
HETATM   30  C20 UNL     1      24.842  -1.055  55.350  1.00  0.00     0.202 C 
ENDBRANCH  21  29
ENDBRANCH  17  18
ENDBRANCH   1  17
TORSDOF 6
ENDMDL
MODEL 2
REMARK VINA RESULT:      -7.8      2.224      7.188
REMARK  6 active torsions:
REMARK  status: ('A' for Active; 'I' for Inactive)
REMARK    1  A    between atoms: O1_2  and  C2_3 
REMARK    2  A    between atoms: C8_11  and  N3_12 
REMARK    3  A    between atoms: N3_12  and  C9_13 
REMARK    4  A    between atoms: C9_13  and  C10_14 
REMARK    5  A    between atoms: C19_24  and  O2_25 
REMARK    6  A    between atoms: C21_27  and  O3_28 
ROOT
HETATM    1  N3  UNL     1      25.790   2.864  51.958  1.00  0.00    -0.383 N 
HETATM    2  H7  UNL     1      25.732   3.479  52.828  1.00  0.00     0.160 HD
ENDROOT
BRANCH   1   3
HETATM    3  C8  UNL     1      25.711   1.677  52.679  1.00  0.00     0.079 A 
HETATM    4  C7  UNL     1      24.600   0.972  53.086  1.00  0.00     0.040 A 
HETATM    5  C4  UNL     1      24.620  -0.218  53.774  1.00  0.00     0.074 A 
HETATM    6  C6  UNL     1      23.381   1.529  52.775  1.00  0.00     0.134 A 
HETATM    7  C3  UNL     1      25.875  -0.710  54.060  1.00  0.00     0.072 A 
HETATM    8  N1  UNL     1      23.474  -0.824  54.132  1.00  0.00    -0.241 NA
HETATM    9  C2  UNL     1      27.061  -0.104  53.711  1.00  0.00     0.106 A 
HETATM   10  C21 UNL     1      26.933   1.082  53.025  1.00  0.00     0.129 A 
HETATM   11  C5  UNL     1      22.262  -0.276  53.826  1.00  0.00     0.233 A 
HETATM   12  N2  UNL     1      22.249   0.904  53.145  1.00  0.00    -0.253 NA
BRANCH   9  13
HETATM   13  O1  UNL     1      28.302  -0.642  54.025  1.00  0.00    -0.353 OA
HETATM   14  C1  UNL     1      28.942  -1.620  53.266  1.00  0.00     0.210 C 
ENDBRANCH   9  13
BRANCH  10  15
HETATM   15  O3  UNL     1      28.160   1.687  52.676  1.00  0.00    -0.351 OA
HETATM   16  C22 UNL     1      28.727   2.502  53.707  1.00  0.00     0.210 C 
ENDBRANCH  10  15
ENDBRANCH   1   3
BRANCH   1  17
HETATM   17  C9  UNL     1      25.903   3.457  50.669  1.00  0.00     0.147 C 
BRANCH  17  18
HETATM   18  C10 UNL     1      24.779   3.081  49.811  1.00  0.00    -0.002 C 
HETATM   19  C11 UNL     1      23.818   3.536  48.985  1.00  0.00    -0.045 C 
HETATM   20  C12 UNL     1      22.744   2.816  48.205  1.00  0.00     0.063 C 
HETATM   21  C19 UNL     1      23.803   5.010  48.672  1.00  0.00     0.190 C 
HETATM   22  C13 UNL     1      21.421   3.314  48.782  1.00  0.00    -0.026 C 
HETATM   23  C14 UNL     1      21.327   4.132  49.869  1.00  0.00    -0.025 C 
HETATM   24  C15 UNL     1      21.149   5.014  51.036  1.00  0.00     0.020 C 
HETATM   25  C16 UNL     1      21.399   4.404  52.364  1.00  0.00     0.016 C 
HETATM   26  C17 UNL     1      21.875   6.343  50.907  1.00  0.00     0.115 C 
HETATM   27  N4  UNL     1      23.269   6.258  50.781  1.00  0.00    -0.421 NA
HETATM   28  C18 UNL     1      24.028   5.749  49.928  1.00  0.00     0.283 C 
BRANCH  21  29
HETATM   29  O2  UNL     1      22.727   5.402  47.932  1.00  0.00    -0.381 OA
HETATM   30  C20 UNL     1      23.029   6.554  47.194  1.00  0.00     0.202 C 
ENDBRANCH  21  29
ENDBRANCH  17  18
ENDBRANCH   1  17
TORSDOF 6
ENDMDL
MODEL 3
REMARK VINA RESULT:      -7.7      2.365      7.595
REMARK  6 active torsions:
REMARK  status: ('A' for Active; 'I' for Inactive)
REMARK    1  A    between atoms: O1_2  and  C2_3 
REMARK    2  A    between atoms: C8_11  and  N3_12 
REMARK    3  A    between atoms: N3_12  and  C9_13 
REMARK    4  A    between atoms: C9_13  and  C10_14 
REMARK    5  A    between atoms: C19_24  and  O2_25 
REMARK    6  A    between atoms: C21_27  and  O3_28 
ROOT
HETATM    1  N3  UNL     1      24.969   3.015  52.282  1.00  0.00    -0.383 N 
HETATM    2  H7  UNL     1      24.526   3.520  53.111  1.00  0.00     0.160 HD
ENDROOT
BRANCH   1   3
HETATM    3  C8  UNL     1      25.127   1.820  52.976  1.00  0.00     0.079 A 
HETATM    4  C7  UNL     1      26.245   1.310  53.598  1.00  0.00     0.040 A 
HETATM    5  C4  UNL     1      26.299   0.124  54.293  1.00  0.00     0.074 A 
HETATM    6  C6  UNL     1      27.393   2.062  53.496  1.00  0.00     0.134 A 
HETATM    7  C3  UNL     1      25.116  -0.580  54.345  1.00  0.00     0.072 A 
HETATM    8  N1  UNL     1      27.446  -0.289  54.859  1.00  0.00    -0.241 NA
HETATM    9  C2  UNL     1      23.931  -0.182  53.765  1.00  0.00     0.106 A 
HETATM   10  C21 UNL     1      23.982   1.018  53.094  1.00  0.00     0.129 A 
HETATM   11  C5  UNL     1      28.588   0.454  54.761  1.00  0.00     0.233 A 
HETATM   12  N2  UNL     1      28.528   1.627  54.071  1.00  0.00    -0.253 NA
BRANCH   9  13
HETATM   13  O1  UNL     1      22.766  -0.931  53.846  1.00  0.00    -0.353 OA
HETATM   14  C1  UNL     1      21.927  -0.950  54.959  1.00  0.00     0.210 C 
ENDBRANCH   9  13
BRANCH  10  15
HETATM   15  O3  UNL     1      22.758   1.409  52.509  1.00  0.00    -0.351 OA
HETATM   16  C22 UNL     1      22.405   0.667  51.336  1.00  0.00     0.210 C 
ENDBRANCH  10  15
ENDBRANCH   1   3
BRANCH   1  17
HETATM   17  C9  UNL     1      25.159   3.696  51.047  1.00  0.00     0.147 C 
BRANCH  17  18
HETATM   18  C10 UNL     1      24.325   3.124  49.990  1.00  0.00    -0.002 C 
HETATM   19  C11 UNL     1      23.491   3.398  48.970  1.00  0.00    -0.045 C 
HETATM   20  C12 UNL     1      22.750   2.497  48.012  1.00  0.00     0.063 C 
HETATM   21  C19 UNL     1      23.278   4.846  48.608  1.00  0.00     0.190 C 
HETATM   22  C13 UNL     1      21.269   2.744  48.287  1.00  0.00    -0.026 C 
HETATM   23  C14 UNL     1      20.805   3.527  49.302  1.00  0.00    -0.025 C 
HETATM   24  C15 UNL     1      20.233   4.359  50.376  1.00  0.00     0.020 C 
HETATM   25  C16 UNL     1      20.306   3.801  51.747  1.00  0.00     0.016 C 
HETATM   26  C17 UNL     1      20.720   5.798  50.352  1.00  0.00     0.115 C 
HETATM   27  N4  UNL     1      22.102   5.969  50.518  1.00  0.00    -0.421 NA
HETATM   28  C18 UNL     1      23.101   5.610  49.857  1.00  0.00     0.283 C 
BRANCH  21  29
HETATM   29  O2  UNL     1      22.327   5.037  47.650  1.00  0.00    -0.381 OA
HETATM   30  C20 UNL     1      22.607   6.188  46.901  1.00  0.00     0.202 C 
ENDBRANCH  21  29
ENDBRANCH  17  18
ENDBRANCH   1  17
TORSDOF 6
ENDMDL
MODEL 4
REMARK VINA RESULT:      -7.7      1.876      3.172
REMARK  6 active torsions:
REMARK  status: ('A' for Active; 'I' for Inactive)
REMARK    1  A    between atoms: O1_2  and  C2_3 
REMARK    2  A    between atoms: C8_11  and  N3_12 
REMARK    3  A    between atoms: N3_12  and  C9_13 
REMARK    4  A    between atoms: C9_13  and  C10_14 
REMARK    5  A    between atoms: C19_24  and  O2_25 
REMARK    6  A    between atoms: C21_27  and  O3_28 
ROOT
HETATM    1  N3  UNL     1      25.018   3.052  52.097  1.00  0.00    -0.383 N 
HETATM    2  H7  UNL     1      24.773   2.880  53.122  1.00  0.00     0.160 HD
ENDROOT
BRANCH   1   3
HETATM    3  C8  UNL     1      23.867   3.795  51.852  1.00  0.00     0.079 A 
HETATM    4  C7  UNL     1      23.728   5.011  51.221  1.00  0.00     0.040 A 
HETATM    5  C4  UNL     1      22.537   5.660  50.996  1.00  0.00     0.074 A 
HETATM    6  C6  UNL     1      24.891   5.611  50.798  1.00  0.00     0.134 A 
HETATM    7  C3  UNL     1      21.416   5.005  51.457  1.00  0.00     0.072 A 
HETATM    8  N1  UNL     1      22.510   6.852  50.375  1.00  0.00    -0.241 NA
HETATM    9  C2  UNL     1      21.418   3.789  52.104  1.00  0.00     0.106 A 
HETATM   10  C21 UNL     1      22.660   3.222  52.279  1.00  0.00     0.129 A 
HETATM   11  C5  UNL     1      23.662   7.451  49.951  1.00  0.00     0.233 A 
HETATM   12  N2  UNL     1      24.838   6.804  50.179  1.00  0.00    -0.253 NA
BRANCH   9  13
HETATM   13  O1  UNL     1      20.258   3.172  52.550  1.00  0.00    -0.353 OA
HETATM   14  C1  UNL     1      19.158   2.899  51.738  1.00  0.00     0.210 C 
ENDBRANCH   9  13
BRANCH  10  15
HETATM   15  O3  UNL     1      22.642   1.976  52.943  1.00  0.00    -0.351 OA
HETATM   16  C22 UNL     1      22.476   0.850  52.074  1.00  0.00     0.210 C 
ENDBRANCH  10  15
ENDBRANCH   1   3
BRANCH   1  17
HETATM   17  C9  UNL     1      26.220   2.523  51.550  1.00  0.00     0.147 C 
BRANCH  17  18
HETATM   18  C10 UNL     1      26.194   1.060  51.526  1.00  0.00    -0.002 C 
HETATM   19  C11 UNL     1      26.075  -0.056  52.268  1.00  0.00    -0.045 C 
HETATM   20  C12 UNL     1      26.094  -1.518  51.891  1.00  0.00     0.063 C 
HETATM   21  C19 UNL     1      25.786   0.108  53.739  1.00  0.00     0.190 C 
HETATM   22  C13 UNL     1      27.322  -2.100  52.587  1.00  0.00    -0.026 C 
HETATM   23  C14 UNL     1      28.233  -1.352  53.272  1.00  0.00    -0.025 C 
HETATM   24  C15 UNL     1      29.256  -0.607  54.027  1.00  0.00     0.020 C 
HETATM   25  C16 UNL     1      30.203   0.204  53.226  1.00  0.00     0.016 C 
HETATM   26  C17 UNL     1      28.686   0.207  55.177  1.00  0.00     0.115 C 
HETATM   27  N4  UNL     1      27.770   1.204  54.814  1.00  0.00    -0.421 NA
HETATM   28  C18 UNL     1      26.649   1.184  54.259  1.00  0.00     0.283 C 
BRANCH  21  29
HETATM   29  O2  UNL     1      25.806  -1.064  54.435  1.00  0.00    -0.381 OA
HETATM   30  C20 UNL     1      24.727  -1.125  55.327  1.00  0.00     0.202 C 
ENDBRANCH  21  29
ENDBRANCH  17  18
ENDBRANCH   1  17
TORSDOF 6
ENDMDL
MODEL 5
REMARK VINA RESULT:      -7.6      2.225      7.962
REMARK  6 active torsions:
REMARK  status: ('A' for Active; 'I' for Inactive)
REMARK    1  A    between atoms: O1_2  and  C2_3 
REMARK    2  A    between atoms: C8_11  and  N3_12 
REMARK    3  A    between atoms: N3_12  and  C9_13 
REMARK    4  A    between atoms: C9_13  and  C10_14 
REMARK    5  A    between atoms: C19_24  and  O2_25 
REMARK    6  A    between atoms: C21_27  and  O3_28 
ROOT
HETATM    1  N3  UNL     1      24.940   3.203  52.535  1.00  0.00    -0.383 N 
HETATM    2  H7  UNL     1      24.942   3.698  53.481  1.00  0.00     0.160 HD
ENDROOT
BRANCH   1   3
HETATM    3  C8  UNL     1      25.110   1.940  53.092  1.00  0.00     0.079 A 
HETATM    4  C7  UNL     1      26.229   1.379  53.666  1.00  0.00     0.040 A 
HETATM    5  C4  UNL     1      26.294   0.123  54.223  1.00  0.00     0.074 A 
HETATM    6  C6  UNL     1      27.366   2.153  53.662  1.00  0.00     0.134 A 
HETATM    7  C3  UNL     1      25.122  -0.599  54.181  1.00  0.00     0.072 A 
HETATM    8  N1  UNL     1      27.442  -0.335  54.752  1.00  0.00    -0.241 NA
HETATM    9  C2  UNL     1      23.937  -0.155  53.636  1.00  0.00     0.106 A 
HETATM   10  C21 UNL     1      23.976   1.114  53.106  1.00  0.00     0.129 A 
HETATM   11  C5  UNL     1      28.573   0.430  54.751  1.00  0.00     0.233 A 
HETATM   12  N2  UNL     1      28.502   1.672  54.197  1.00  0.00    -0.253 NA
BRANCH   9  13
HETATM   13  O1  UNL     1      22.782  -0.925  53.619  1.00  0.00    -0.353 OA
HETATM   14  C1  UNL     1      22.069  -1.287  54.760  1.00  0.00     0.210 C 
ENDBRANCH   9  13
BRANCH  10  15
HETATM   15  O3  UNL     1      22.752   1.551  52.554  1.00  0.00    -0.351 OA
HETATM   16  C22 UNL     1      22.547   1.155  51.193  1.00  0.00     0.210 C 
ENDBRANCH  10  15
ENDBRANCH   1   3
BRANCH   1  17
HETATM   17  C9  UNL     1      24.788   3.953  51.335  1.00  0.00     0.147 C 
BRANCH  17  18
HETATM   18  C10 UNL     1      23.589   4.791  51.381  1.00  0.00    -0.002 C 
HETATM   19  C11 UNL     1      22.654   5.424  50.648  1.00  0.00    -0.045 C 
HETATM   20  C12 UNL     1      21.464   6.262  51.050  1.00  0.00     0.063 C 
HETATM   21  C19 UNL     1      22.690   5.237  49.153  1.00  0.00     0.190 C 
HETATM   22  C13 UNL     1      21.747   7.657  50.500  1.00  0.00    -0.026 C 
HETATM   23  C14 UNL     1      22.920   8.016  49.904  1.00  0.00    -0.025 C 
HETATM   24  C15 UNL     1      24.160   8.471  49.251  1.00  0.00     0.020 C 
HETATM   25  C16 UNL     1      25.331   8.677  50.136  1.00  0.00     0.016 C 
HETATM   26  C17 UNL     1      24.541   7.647  48.033  1.00  0.00     0.115 C 
HETATM   27  N4  UNL     1      24.792   6.289  48.279  1.00  0.00    -0.421 NA
HETATM   28  C18 UNL     1      24.092   5.347  48.711  1.00  0.00     0.283 C 
BRANCH  21  29
HETATM   29  O2  UNL     1      21.788   6.010  48.483  1.00  0.00    -0.381 OA
HETATM   30  C20 UNL     1      21.412   5.396  47.280  1.00  0.00     0.202 C 
ENDBRANCH  21  29
ENDBRANCH  17  18
ENDBRANCH   1  17
TORSDOF 6
ENDMDL
MODEL 6
REMARK VINA RESULT:      -7.5      2.181      7.806
REMARK  6 active torsions:
REMARK  status: ('A' for Active; 'I' for Inactive)
REMARK    1  A    between atoms: O1_2  and  C2_3 
REMARK    2  A    between atoms: C8_11  and  N3_12 
REMARK    3  A    between atoms: N3_12  and  C9_13 
REMARK    4  A    between atoms: C9_13  and  C10_14 
REMARK    5  A    between atoms: C19_24  and  O2_25 
REMARK    6  A    between atoms: C21_27  and  O3_28 
ROOT
HETATM    1  N3  UNL     1      24.640   3.173  52.658  1.00  0.00    -0.383 N 
HETATM    2  H7  UNL     1      25.575   3.227  52.147  1.00  0.00     0.160 HD
ENDROOT
BRANCH   1   3
HETATM    3  C8  UNL     1      24.887   1.901  53.166  1.00  0.00     0.079 A 
HETATM    4  C7  UNL     1      26.048   1.378  53.690  1.00  0.00     0.040 A 
HETATM    5  C4  UNL     1      26.191   0.109  54.200  1.00  0.00     0.074 A 
HETATM    6  C6  UNL     1      27.145   2.208  53.684  1.00  0.00     0.134 A 
HETATM    7  C3  UNL     1      25.055  -0.670  54.163  1.00  0.00     0.072 A 
HETATM    8  N1  UNL     1      27.374  -0.309  54.683  1.00  0.00    -0.241 NA
HETATM    9  C2  UNL     1      23.835  -0.267  53.665  1.00  0.00     0.106 A 
HETATM   10  C21 UNL     1      23.796   1.019  53.179  1.00  0.00     0.129 A 
HETATM   11  C5  UNL     1      28.465   0.512  54.680  1.00  0.00     0.233 A 
HETATM   12  N2  UNL     1      28.317   1.767  54.173  1.00  0.00    -0.253 NA
BRANCH   9  13
HETATM   13  O1  UNL     1      22.720  -1.094  53.650  1.00  0.00    -0.353 OA
HETATM   14  C1  UNL     1      21.911  -1.332  54.760  1.00  0.00     0.210 C 
ENDBRANCH   9  13
BRANCH  10  15
HETATM   15  O3  UNL     1      22.538   1.413  52.675  1.00  0.00    -0.351 OA
HETATM   16  C22 UNL     1      22.280   0.977  51.336  1.00  0.00     0.210 C 
ENDBRANCH  10  15
ENDBRANCH   1   3
BRANCH   1  17
HETATM   17  C9  UNL     1      23.724   4.259  52.592  1.00  0.00     0.147 C 
BRANCH  17  18
HETATM   18  C10 UNL     1      24.031   5.145  51.469  1.00  0.00    -0.002 C 
HETATM   19  C11 UNL     1      23.515   5.964  50.533  1.00  0.00    -0.045 C 
HETATM   20  C12 UNL     1      24.170   6.785  49.449  1.00  0.00     0.063 C 
HETATM   21  C19 UNL     1      22.029   6.218  50.566  1.00  0.00     0.190 C 
HETATM   22  C13 UNL     1      23.656   6.205  48.134  1.00  0.00    -0.026 C 
HETATM   23  C14 UNL     1      22.880   5.087  48.049  1.00  0.00    -0.025 C 
HETATM   24  C15 UNL     1      22.040   3.888  47.882  1.00  0.00     0.020 C 
HETATM   25  C16 UNL     1      22.710   2.583  48.096  1.00  0.00     0.016 C 
HETATM   26  C17 UNL     1      20.730   3.954  48.648  1.00  0.00     0.115 C 
HETATM   27  N4  UNL     1      20.851   4.066  50.041  1.00  0.00    -0.421 NA
HETATM   28  C18 UNL     1      21.349   4.930  50.796  1.00  0.00     0.283 C 
BRANCH  21  29
HETATM   29  O2  UNL     1      21.576   6.954  49.512  1.00  0.00    -0.381 OA
HETATM   30  C20 UNL     1      20.643   7.907  49.942  1.00  0.00     0.202 C 
ENDBRANCH  21  29
ENDBRANCH  17  18
ENDBRANCH   1  17
TORSDOF 6
ENDMDL
MODEL 7
REMARK VINA RESULT:      -7.3      2.449      8.046
REMARK  6 active torsions:
REMARK  status: ('A' for Active; 'I' for Inactive)
REMARK    1  A    between atoms: O1_2  and  C2_3 
REMARK    2  A    between atoms: C8_11  and  N3_12 
REMARK    3  A    between atoms: N3_12  and  C9_13 
REMARK    4  A    between atoms: C9_13  and  C10_14 
REMARK    5  A    between atoms: C19_24  and  O2_25 
REMARK    6  A    between atoms: C21_27  and  O3_28 
ROOT
HETATM    1  N3  UNL     1      24.995   2.977  50.939  1.00  0.00    -0.383 N 
HETATM    2  H7  UNL     1      25.236   2.359  50.104  1.00  0.00     0.160 HD
ENDROOT
BRANCH   1   3
HETATM    3  C8  UNL     1      25.172   1.954  51.865  1.00  0.00     0.079 A 
HETATM    4  C7  UNL     1      26.291   1.614  52.592  1.00  0.00     0.040 A 
HETATM    5  C4  UNL     1      26.363   0.597  53.515  1.00  0.00     0.074 A 
HETATM    6  C6  UNL     1      27.420   2.362  52.352  1.00  0.00     0.134 A 
HETATM    7  C3  UNL     1      25.199  -0.116  53.695  1.00  0.00     0.072 A 
HETATM    8  N1  UNL     1      27.511   0.342  54.166  1.00  0.00    -0.241 NA
HETATM    9  C2  UNL     1      24.014   0.121  53.032  1.00  0.00     0.106 A 
HETATM   10  C21 UNL     1      24.046   1.161  52.131  1.00  0.00     0.129 A 
HETATM   11  C5  UNL     1      28.634   1.082  53.933  1.00  0.00     0.233 A 
HETATM   12  N2  UNL     1      28.556   2.087  53.017  1.00  0.00    -0.253 NA
BRANCH   9  13
HETATM   13  O1  UNL     1      22.867  -0.629  53.250  1.00  0.00    -0.353 OA
HETATM   14  C1  UNL     1      22.267  -0.790  54.498  1.00  0.00     0.210 C 
ENDBRANCH   9  13
BRANCH  10  15
HETATM   15  O3  UNL     1      22.823   1.388  51.463  1.00  0.00    -0.351 OA
HETATM   16  C22 UNL     1      21.917   2.242  52.170  1.00  0.00     0.210 C 
ENDBRANCH  10  15
ENDBRANCH   1   3
BRANCH   1  17
HETATM   17  C9  UNL     1      24.659   4.346  50.743  1.00  0.00     0.147 C 
BRANCH  17  18
HETATM   18  C10 UNL     1      25.562   4.983  49.784  1.00  0.00    -0.002 C 
HETATM   19  C11 UNL     1      26.111   6.146  49.386  1.00  0.00    -0.045 C 
HETATM   20  C12 UNL     1      27.080   6.467  48.274  1.00  0.00     0.063 C 
HETATM   21  C19 UNL     1      25.813   7.377  50.203  1.00  0.00     0.190 C 
HETATM   22  C13 UNL     1      26.314   7.380  47.320  1.00  0.00    -0.026 C 
HETATM   23  C14 UNL     1      24.990   7.677  47.451  1.00  0.00    -0.025 C 
HETATM   24  C15 UNL     1      23.564   8.040  47.532  1.00  0.00     0.020 C 
HETATM   25  C16 UNL     1      22.595   6.982  47.159  1.00  0.00     0.016 C 
HETATM   26  C17 UNL     1      23.177   8.686  48.851  1.00  0.00     0.115 C 
HETATM   27  N4  UNL     1      23.367   7.890  49.990  1.00  0.00    -0.421 NA
HETATM   28  C18 UNL     1      24.375   7.377  50.525  1.00  0.00     0.283 C 
BRANCH  21  29
HETATM   29  O2  UNL     1      26.305   8.527  49.659  1.00  0.00    -0.381 OA
HETATM   30  C20 UNL     1      27.084   9.220  50.595  1.00  0.00     0.202 C 
ENDBRANCH  21  29
ENDBRANCH  17  18
ENDBRANCH   1  17
TORSDOF 6
ENDMDL
MODEL 8
REMARK VINA RESULT:      -7.1      2.284      7.374
REMARK  6 active torsions:
REMARK  status: ('A' for Active; 'I' for Inactive)
REMARK    1  A    between atoms: O1_2  and  C2_3 
REMARK    2  A    between atoms: C8_11  and  N3_12 
REMARK    3  A    between atoms: N3_12  and  C9_13 
REMARK    4  A    between atoms: C9_13  and  C10_14 
REMARK    5  A    between atoms: C19_24  and  O2_25 
REMARK    6  A    between atoms: C21_27  and  O3_28 
ROOT
HETATM    1  N3  UNL     1      23.461   3.025  52.346  1.00  0.00    -0.383 N 
HETATM    2  H7  UNL     1      23.380   2.655  51.349  1.00  0.00     0.160 HD
ENDROOT
BRANCH   1   3
HETATM    3  C8  UNL     1      23.755   1.776  52.884  1.00  0.00     0.079 A 
HETATM    4  C7  UNL     1      22.901   0.775  53.291  1.00  0.00     0.040 A 
HETATM    5  C4  UNL     1      23.286  -0.449  53.785  1.00  0.00     0.074 A 
HETATM    6  C6  UNL     1      21.556   1.048  53.194  1.00  0.00     0.134 A 
HETATM    7  C3  UNL     1      24.647  -0.648  53.865  1.00  0.00     0.072 A 
HETATM    8  N1  UNL     1      22.370  -1.356  54.164  1.00  0.00    -0.241 NA
HETATM    9  C2  UNL     1      25.605   0.270  53.492  1.00  0.00     0.106 A 
HETATM   10  C21 UNL     1      25.116   1.463  53.009  1.00  0.00     0.129 A 
HETATM   11  C5  UNL     1      21.034  -1.091  54.068  1.00  0.00     0.233 A 
HETATM   12  N2  UNL     1      20.659   0.124  53.579  1.00  0.00    -0.253 NA
BRANCH   9  13
HETATM   13  O1  UNL     1      26.966   0.019  53.594  1.00  0.00    -0.353 OA
HETATM   14  C1  UNL     1      27.699   0.157  54.771  1.00  0.00     0.210 C 
ENDBRANCH   9  13
BRANCH  10  15
HETATM   15  O3  UNL     1      26.113   2.389  52.633  1.00  0.00    -0.351 OA
HETATM   16  C22 UNL     1      26.565   2.248  51.282  1.00  0.00     0.210 C 
ENDBRANCH  10  15
ENDBRANCH   1   3
BRANCH   1  17
HETATM   17  C9  UNL     1      23.264   4.408  52.614  1.00  0.00     0.147 C 
BRANCH  17  18
HETATM   18  C10 UNL     1      23.703   5.236  51.490  1.00  0.00    -0.002 C 
HETATM   19  C11 UNL     1      23.302   6.018  50.470  1.00  0.00    -0.045 C 
HETATM   20  C12 UNL     1      24.082   6.776  49.424  1.00  0.00     0.063 C 
HETATM   21  C19 UNL     1      21.827   6.298  50.339  1.00  0.00     0.190 C 
HETATM   22  C13 UNL     1      23.692   6.144  48.090  1.00  0.00    -0.026 C 
HETATM   23  C14 UNL     1      22.906   5.036  47.976  1.00  0.00    -0.025 C 
HETATM   24  C15 UNL     1      22.062   3.845  47.778  1.00  0.00     0.020 C 
HETATM   25  C16 UNL     1      22.678   2.540  48.118  1.00  0.00     0.016 C 
HETATM   26  C17 UNL     1      20.682   3.969  48.401  1.00  0.00     0.115 C 
HETATM   27  N4  UNL     1      20.663   4.144  49.792  1.00  0.00    -0.421 NA
HETATM   28  C18 UNL     1      21.099   5.034  50.556  1.00  0.00     0.283 C 
BRANCH  21  29
HETATM   29  O2  UNL     1      21.499   6.991  49.212  1.00  0.00    -0.381 OA
HETATM   30  C20 UNL     1      20.381   7.804  49.441  1.00  0.00     0.202 C 
ENDBRANCH  21  29
ENDBRANCH  17  18
ENDBRANCH   1  17
TORSDOF 6
ENDMDL
MODEL 9
REMARK VINA RESULT:      -6.8      2.196      7.629
REMARK  6 active torsions:
REMARK  status: ('A' for Active; 'I' for Inactive)
REMARK    1  A    between atoms: O1_2  and  C2_3 
REMARK    2  A    between atoms: C8_11  and  N3_12 
REMARK    3  A    between atoms: N3_12  and  C9_13 
REMARK    4  A    between atoms: C9_13  and  C10_14 
REMARK    5  A    between atoms: C19_24  and  O2_25 
REMARK    6  A    between atoms: C21_27  and  O3_28 
ROOT
HETATM    1  N3  UNL     1      24.094   2.192  50.963  1.00  0.00    -0.383 N 
HETATM    2  H7  UNL     1      23.840   1.474  50.214  1.00  0.00     0.160 HD
ENDROOT
BRANCH   1   3
HETATM    3  C8  UNL     1      24.020   1.270  52.002  1.00  0.00     0.079 A 
HETATM    4  C7  UNL     1      22.931   0.873  52.744  1.00  0.00     0.040 A 
HETATM    5  C4  UNL     1      22.948  -0.076  53.740  1.00  0.00     0.074 A 
HETATM    6  C6  UNL     1      21.739   1.495  52.453  1.00  0.00     0.134 A 
HETATM    7  C3  UNL     1      24.177  -0.649  53.984  1.00  0.00     0.072 A 
HETATM    8  N1  UNL     1      21.826  -0.387  54.412  1.00  0.00    -0.241 NA
HETATM    9  C2  UNL     1      25.341  -0.340  53.315  1.00  0.00     0.106 A 
HETATM   10  C21 UNL     1      25.218   0.620  52.337  1.00  0.00     0.129 A 
HETATM   11  C5  UNL     1      20.640   0.227  54.126  1.00  0.00     0.233 A 
HETATM   12  N2  UNL     1      20.630   1.166  53.140  1.00  0.00    -0.253 NA
BRANCH   9  13
HETATM   13  O1  UNL     1      26.556  -0.947  53.601  1.00  0.00    -0.353 OA
HETATM   14  C1  UNL     1      27.102  -1.989  52.854  1.00  0.00     0.210 C 
ENDBRANCH   9  13
BRANCH  10  15
HETATM   15  O3  UNL     1      26.421   0.922  51.664  1.00  0.00    -0.351 OA
HETATM   16  C22 UNL     1      27.212   1.932  52.298  1.00  0.00     0.210 C 
ENDBRANCH  10  15
ENDBRANCH   1   3
BRANCH   1  17
HETATM   17  C9  UNL     1      24.350   3.544  50.600  1.00  0.00     0.147 C 
BRANCH  17  18
HETATM   18  C10 UNL     1      23.206   4.402  50.907  1.00  0.00    -0.002 C 
HETATM   19  C11 UNL     1      22.239   5.182  50.390  1.00  0.00    -0.045 C 
HETATM   20  C12 UNL     1      21.138   5.981  51.045  1.00  0.00     0.063 C 
HETATM   21  C19 UNL     1      22.122   5.251  48.888  1.00  0.00     0.190 C 
HETATM   22  C13 UNL     1      21.438   7.439  50.707  1.00  0.00    -0.026 C 
HETATM   23  C14 UNL     1      22.566   7.852  50.062  1.00  0.00    -0.025 C 
HETATM   24  C15 UNL     1      23.759   8.370  49.369  1.00  0.00     0.020 C 
HETATM   25  C16 UNL     1      25.018   8.381  50.150  1.00  0.00     0.016 C 
HETATM   26  C17 UNL     1      23.979   7.751  47.999  1.00  0.00     0.115 C 
HETATM   27  N4  UNL     1      24.182   6.364  47.989  1.00  0.00    -0.421 NA
HETATM   28  C18 UNL     1      23.479   5.387  48.328  1.00  0.00     0.283 C 
BRANCH  21  29
HETATM   29  O2  UNL     1      21.201   6.157  48.452  1.00  0.00    -0.381 OA
HETATM   30  C20 UNL     1      20.665   5.760  47.219  1.00  0.00     0.202 C 
ENDBRANCH  21  29
ENDBRANCH  17  18
ENDBRANCH   1  17
TORSDOF 6
ENDMDL
