MODEL 1
REMARK VINA RESULT:      -8.2      0.000      0.000
REMARK  4 active torsions:
REMARK  status: ('A' for Active; 'I' for Inactive)
REMARK    1  A    between atoms: C1_2  and  C2_3 
REMARK       I    between atoms: C1_2  and  N1_11 
REMARK    2  A    between atoms: C2_3  and  C3_4 
REMARK    3  A    between atoms: N1_11  and  S1_12 
REMARK    4  A    between atoms: S1_12  and  C9_15 
ROOT
HETATM    1  O1  UNL     1      25.248   1.916  51.649  1.00  0.00    -0.272 OA
HETATM    2  C1  UNL     1      26.156   2.521  51.019  1.00  0.00     0.235 C 
HETATM    3  N1  UNL     1      27.371   2.691  51.747  1.00  0.00    -0.250 N 
HETATM    4  H7  UNL     1      28.195   3.186  51.307  1.00  0.00     0.181 HD
ENDROOT
BRANCH   3   5
HETATM    5  S1  UNL     1      27.412   2.053  53.354  1.00  0.00     0.265 S 
HETATM    6  O2  UNL     1      28.573   2.733  54.044  1.00  0.00    -0.200 OA
HETATM    7  O3  UNL     1      26.161   2.333  54.101  1.00  0.00    -0.200 OA
BRANCH   5   8
HETATM    8  C9  UNL     1      27.821   0.380  53.218  1.00  0.00     0.079 A 
HETATM    9  C10 UNL     1      26.980  -0.594  52.723  1.00  0.00     0.025 A 
HETATM   10  C11 UNL     1      27.357  -1.928  52.634  1.00  0.00     0.002 A 
HETATM   11  C12 UNL     1      28.619  -2.301  53.055  1.00  0.00     0.000 A 
HETATM   12  C13 UNL     1      29.494  -1.338  53.560  1.00  0.00     0.002 A 
HETATM   13  C14 UNL     1      29.046  -0.036  53.617  1.00  0.00     0.025 A 
ENDBRANCH   5   8
ENDBRANCH   3   5
BRANCH   2  14
HETATM   14  C2  UNL     1      26.121   3.065  49.648  1.00  0.00     0.142 C 
BRANCH  14  15
HETATM   15  C3  UNL     1      26.243   4.504  49.539  1.00  0.00    -0.049 A 
HETATM   16  C4  UNL     1      27.213   5.049  48.755  1.00  0.00     0.009 A 
HETATM   17  C5  UNL     1      27.387   6.411  48.604  1.00  0.00     0.019 A 
HETATM   18  C6  UNL     1      26.542   7.283  49.278  1.00  0.00     0.011 A 
HETATM   19 BR1  UNL     1      26.774   9.169  49.077  1.00  0.00    -0.051 Br
HETATM   20  C7  UNL     1      25.533   6.756  50.094  1.00  0.00     0.019 A 
HETATM   21  C8  UNL     1      25.404   5.386  50.208  1.00  0.00     0.009 A 
ENDBRANCH  14  15
ENDBRANCH   2  14
TORSDOF 4
ENDMDL
MODEL 2
REMARK VINA RESULT:      -7.7      4.569      5.771
REMARK  4 active torsions:
REMARK  status: ('A' for Active; 'I' for Inactive)
REMARK    1  A    between atoms: C1_2  and  C2_3 
REMARK       I    between atoms: C1_2  and  N1_11 
REMARK    2  A    between atoms: C2_3  and  C3_4 
REMARK    3  A    between atoms: N1_11  and  S1_12 
REMARK    4  A    between atoms: S1_12  and  C9_15 
ROOT
HETATM    1  O1  UNL     1      24.607   3.109  52.820  1.00  0.00    -0.272 OA
HETATM    2  C1  UNL     1      24.424   2.167  52.003  1.00  0.00     0.235 C 
HETATM    3  N1  UNL     1      25.466   1.194  51.975  1.00  0.00    -0.250 N 
HETATM    4  H7  UNL     1      25.408   0.364  51.324  1.00  0.00     0.181 HD
ENDROOT
BRANCH   3   5
HETATM    5  S1  UNL     1      26.798   1.449  53.048  1.00  0.00     0.265 S 
HETATM    6  O2  UNL     1      27.692   2.464  52.371  1.00  0.00    -0.200 OA
HETATM    7  O3  UNL     1      26.365   1.976  54.366  1.00  0.00    -0.200 OA
BRANCH   5   8
HETATM    8  C9  UNL     1      27.682  -0.034  53.111  1.00  0.00     0.079 A 
HETATM    9  C10 UNL     1      28.989  -0.150  53.536  1.00  0.00     0.025 A 
HETATM   10  C11 UNL     1      29.655  -1.368  53.569  1.00  0.00     0.002 A 
HETATM   11  C12 UNL     1      28.992  -2.510  53.162  1.00  0.00     0.000 A 
HETATM   12  C13 UNL     1      27.669  -2.426  52.727  1.00  0.00     0.002 A 
HETATM   13  C14 UNL     1      27.077  -1.181  52.723  1.00  0.00     0.025 A 
ENDBRANCH   5   8
ENDBRANCH   3   5
BRANCH   2  14
HETATM   14  C2  UNL     1      23.287   1.950  51.088  1.00  0.00     0.142 C 
BRANCH  14  15
HETATM   15  C3  UNL     1      22.175   1.199  51.633  1.00  0.00    -0.049 A 
HETATM   16  C4  UNL     1      21.002   1.123  50.947  1.00  0.00     0.009 A 
HETATM   17  C5  UNL     1      19.901   0.425  51.406  1.00  0.00     0.019 A 
HETATM   18  C6  UNL     1      19.976  -0.236  52.625  1.00  0.00     0.011 A 
HETATM   19 BR1  UNL     1      18.460  -1.204  53.270  1.00  0.00    -0.051 Br
HETATM   20  C7  UNL     1      21.168  -0.178  53.358  1.00  0.00     0.019 A 
HETATM   21  C8  UNL     1      22.237   0.534  52.851  1.00  0.00     0.009 A 
ENDBRANCH  14  15
ENDBRANCH   2  14
TORSDOF 4
ENDMDL
MODEL 3
REMARK VINA RESULT:      -7.6      3.608      6.978
REMARK  4 active torsions:
REMARK  status: ('A' for Active; 'I' for Inactive)
REMARK    1  A    between atoms: C1_2  and  C2_3 
REMARK       I    between atoms: C1_2  and  N1_11 
REMARK    2  A    between atoms: C2_3  and  C3_4 
REMARK    3  A    between atoms: N1_11  and  S1_12 
REMARK    4  A    between atoms: S1_12  and  C9_15 
ROOT
HETATM    1  O1  UNL     1      23.420   3.297  52.460  1.00  0.00    -0.272 OA
HETATM    2  C1  UNL     1      23.548   2.071  52.203  1.00  0.00     0.235 C 
HETATM    3  N1  UNL     1      23.370   1.730  50.829  1.00  0.00    -0.250 N 
HETATM    4  H7  UNL     1      23.457   0.727  50.510  1.00  0.00     0.181 HD
ENDROOT
BRANCH   3   5
HETATM    5  S1  UNL     1      23.012   3.030  49.745  1.00  0.00     0.265 S 
HETATM    6  O2  UNL     1      22.588   2.385  48.445  1.00  0.00    -0.200 OA
HETATM    7  O3  UNL     1      21.916   3.894  50.248  1.00  0.00    -0.200 OA
BRANCH   5   8
HETATM    8  C9  UNL     1      24.502   3.849  49.436  1.00  0.00     0.079 A 
HETATM    9  C10 UNL     1      25.752   3.288  49.593  1.00  0.00     0.025 A 
HETATM   10  C11 UNL     1      26.921   3.990  49.329  1.00  0.00     0.002 A 
HETATM   11  C12 UNL     1      26.837   5.298  48.892  1.00  0.00     0.000 A 
HETATM   12  C13 UNL     1      25.587   5.894  48.722  1.00  0.00     0.002 A 
HETATM   13  C14 UNL     1      24.473   5.132  49.006  1.00  0.00     0.025 A 
ENDBRANCH   5   8
ENDBRANCH   3   5
BRANCH   2  14
HETATM   14  C2  UNL     1      23.853   0.963  53.128  1.00  0.00     0.142 C 
BRANCH  14  15
HETATM   15  C3  UNL     1      25.251   0.603  53.240  1.00  0.00    -0.049 A 
HETATM   16  C4  UNL     1      25.662  -0.653  52.912  1.00  0.00     0.009 A 
HETATM   17  C5  UNL     1      26.978  -1.064  52.994  1.00  0.00     0.019 A 
HETATM   18  C6  UNL     1      27.944  -0.167  53.432  1.00  0.00     0.011 A 
HETATM   19 BR1  UNL     1      29.768  -0.725  53.551  1.00  0.00    -0.051 Br
HETATM   20  C7  UNL     1      27.557   1.133  53.779  1.00  0.00     0.019 A 
HETATM   21  C8  UNL     1      26.227   1.491  53.677  1.00  0.00     0.009 A 
ENDBRANCH  14  15
ENDBRANCH   2  14
TORSDOF 4
ENDMDL
MODEL 4
REMARK VINA RESULT:      -7.5      4.664      7.151
REMARK  4 active torsions:
REMARK  status: ('A' for Active; 'I' for Inactive)
REMARK    1  A    between atoms: C1_2  and  C2_3 
REMARK       I    between atoms: C1_2  and  N1_11 
REMARK    2  A    between atoms: C2_3  and  C3_4 
REMARK    3  A    between atoms: N1_11  and  S1_12 
REMARK    4  A    between atoms: S1_12  and  C9_15 
ROOT
HETATM    1  O1  UNL     1      25.631  -0.788  52.768  1.00  0.00    -0.272 OA
HETATM    2  C1  UNL     1      25.190  -0.320  53.851  1.00  0.00     0.235 C 
HETATM    3  N1  UNL     1      25.799   0.901  54.263  1.00  0.00    -0.250 N 
HETATM    4  H7  UNL     1      25.499   1.375  55.159  1.00  0.00     0.181 HD
ENDROOT
BRANCH   3   5
HETATM    5  S1  UNL     1      27.030   1.544  53.232  1.00  0.00     0.265 S 
HETATM    6  O2  UNL     1      27.733   2.614  54.036  1.00  0.00    -0.200 OA
HETATM    7  O3  UNL     1      28.012   0.511  52.819  1.00  0.00    -0.200 OA
BRANCH   5   8
HETATM    8  C9  UNL     1      26.224   2.345  51.929  1.00  0.00     0.079 A 
HETATM    9  C10 UNL     1      26.794   2.614  50.703  1.00  0.00     0.025 A 
HETATM   10  C11 UNL     1      26.102   3.260  49.687  1.00  0.00     0.002 A 
HETATM   11  C12 UNL     1      24.795   3.652  49.905  1.00  0.00     0.000 A 
HETATM   12  C13 UNL     1      24.190   3.394  51.136  1.00  0.00     0.002 A 
HETATM   13  C14 UNL     1      24.943   2.749  52.094  1.00  0.00     0.025 A 
ENDBRANCH   5   8
ENDBRANCH   3   5
BRANCH   2  14
HETATM   14  C2  UNL     1      24.140  -0.869  54.731  1.00  0.00     0.142 C 
BRANCH  14  15
HETATM   15  C3  UNL     1      22.785  -0.768  54.233  1.00  0.00    -0.049 A 
HETATM   16  C4  UNL     1      21.848  -1.680  54.611  1.00  0.00     0.009 A 
HETATM   17  C5  UNL     1      20.538  -1.645  54.175  1.00  0.00     0.019 A 
HETATM   18  C6  UNL     1      20.137  -0.637  53.308  1.00  0.00     0.011 A 
HETATM   19 BR1  UNL     1      18.327  -0.578  52.698  1.00  0.00    -0.051 Br
HETATM   20  C7  UNL     1      21.075   0.318  52.897  1.00  0.00     0.019 A 
HETATM   21  C8  UNL     1      22.372   0.235  53.364  1.00  0.00     0.009 A 
ENDBRANCH  14  15
ENDBRANCH   2  14
TORSDOF 4
ENDMDL
MODEL 5
REMARK VINA RESULT:      -7.4      3.529      7.057
REMARK  4 active torsions:
REMARK  status: ('A' for Active; 'I' for Inactive)
REMARK    1  A    between atoms: C1_2  and  C2_3 
REMARK       I    between atoms: C1_2  and  N1_11 
REMARK    2  A    between atoms: C2_3  and  C3_4 
REMARK    3  A    between atoms: N1_11  and  S1_12 
REMARK    4  A    between atoms: S1_12  and  C9_15 
ROOT
HETATM    1  O1  UNL     1      23.491   2.395  51.180  1.00  0.00    -0.272 OA
HETATM    2  C1  UNL     1      24.414   2.849  51.906  1.00  0.00     0.235 C 
HETATM    3  N1  UNL     1      25.135   3.940  51.338  1.00  0.00    -0.250 N 
HETATM    4  H7  UNL     1      25.930   4.393  51.868  1.00  0.00     0.181 HD
ENDROOT
BRANCH   3   5
HETATM    5  S1  UNL     1      24.641   4.465  49.766  1.00  0.00     0.265 S 
HETATM    6  O2  UNL     1      24.434   3.208  48.951  1.00  0.00    -0.200 OA
HETATM    7  O3  UNL     1      23.377   5.242  49.805  1.00  0.00    -0.200 OA
BRANCH   5   8
HETATM    8  C9  UNL     1      25.986   5.297  49.069  1.00  0.00     0.079 A 
HETATM    9  C10 UNL     1      25.958   6.605  48.634  1.00  0.00     0.025 A 
HETATM   10  C11 UNL     1      27.069   7.229  48.081  1.00  0.00     0.002 A 
HETATM   11  C12 UNL     1      28.249   6.521  47.960  1.00  0.00     0.000 A 
HETATM   12  C13 UNL     1      28.310   5.196  48.392  1.00  0.00     0.002 A 
HETATM   13  C14 UNL     1      27.165   4.646  48.929  1.00  0.00     0.025 A 
ENDBRANCH   5   8
ENDBRANCH   3   5
BRANCH   2  14
HETATM   14  C2  UNL     1      24.836   2.401  53.247  1.00  0.00     0.142 C 
BRANCH  14  15
HETATM   15  C3  UNL     1      25.989   1.526  53.285  1.00  0.00    -0.049 A 
HETATM   16  C4  UNL     1      27.198   2.006  53.685  1.00  0.00     0.009 A 
HETATM   17  C5  UNL     1      28.339   1.229  53.745  1.00  0.00     0.019 A 
HETATM   18  C6  UNL     1      28.268  -0.110  53.383  1.00  0.00     0.011 A 
HETATM   19 BR1  UNL     1      29.840  -1.195  53.462  1.00  0.00    -0.051 Br
HETATM   20  C7  UNL     1      27.040  -0.638  52.966  1.00  0.00     0.019 A 
HETATM   21  C8  UNL     1      25.931   0.185  52.925  1.00  0.00     0.009 A 
ENDBRANCH  14  15
ENDBRANCH   2  14
TORSDOF 4
ENDMDL
MODEL 6
REMARK VINA RESULT:      -7.2      3.116      3.831
REMARK  4 active torsions:
REMARK  status: ('A' for Active; 'I' for Inactive)
REMARK    1  A    between atoms: C1_2  and  C2_3 
REMARK       I    between atoms: C1_2  and  N1_11 
REMARK    2  A    between atoms: C2_3  and  C3_4 
REMARK    3  A    between atoms: N1_11  and  S1_12 
REMARK    4  A    between atoms: S1_12  and  C9_15 
ROOT
HETATM    1  O1  UNL     1      24.375   2.944  49.521  1.00  0.00    -0.272 OA
HETATM    2  C1  UNL     1      25.407   3.462  50.026  1.00  0.00     0.235 C 
HETATM    3  N1  UNL     1      25.235   3.959  51.351  1.00  0.00    -0.250 N 
HETATM    4  H7  UNL     1      26.041   4.412  51.864  1.00  0.00     0.181 HD
ENDROOT
BRANCH   3   5
HETATM    5  S1  UNL     1      23.664   3.778  52.052  1.00  0.00     0.265 S 
HETATM    6  O2  UNL     1      23.654   4.651  53.288  1.00  0.00    -0.200 OA
HETATM    7  O3  UNL     1      22.585   4.214  51.132  1.00  0.00    -0.200 OA
BRANCH   5   8
HETATM    8  C9  UNL     1      23.542   2.142  52.594  1.00  0.00     0.079 A 
HETATM    9  C10 UNL     1      24.614   1.357  52.963  1.00  0.00     0.025 A 
HETATM   10  C11 UNL     1      24.462   0.045  53.393  1.00  0.00     0.002 A 
HETATM   11  C12 UNL     1      23.194  -0.501  53.457  1.00  0.00     0.000 A 
HETATM   12  C13 UNL     1      22.089   0.268  53.091  1.00  0.00     0.002 A 
HETATM   13  C14 UNL     1      22.322   1.562  52.674  1.00  0.00     0.025 A 
ENDBRANCH   5   8
ENDBRANCH   3   5
BRANCH   2  14
HETATM   14  C2  UNL     1      26.747   3.616  49.428  1.00  0.00     0.142 C 
BRANCH  14  15
HETATM   15  C3  UNL     1      27.036   4.915  48.859  1.00  0.00    -0.049 A 
HETATM   16  C4  UNL     1      28.297   5.211  48.438  1.00  0.00     0.009 A 
HETATM   17  C5  UNL     1      28.644   6.429  47.886  1.00  0.00     0.019 A 
HETATM   18  C6  UNL     1      27.674   7.413  47.746  1.00  0.00     0.011 A 
HETATM   19 BR1  UNL     1      28.143   9.102  46.984  1.00  0.00    -0.051 Br
HETATM   20  C7  UNL     1      26.366   7.143  48.169  1.00  0.00     0.019 A 
HETATM   21  C8  UNL     1      26.075   5.908  48.714  1.00  0.00     0.009 A 
ENDBRANCH  14  15
ENDBRANCH   2  14
TORSDOF 4
ENDMDL
MODEL 7
REMARK VINA RESULT:      -6.8      4.964      7.577
REMARK  4 active torsions:
REMARK  status: ('A' for Active; 'I' for Inactive)
REMARK    1  A    between atoms: C1_2  and  C2_3 
REMARK       I    between atoms: C1_2  and  N1_11 
REMARK    2  A    between atoms: C2_3  and  C3_4 
REMARK    3  A    between atoms: N1_11  and  S1_12 
REMARK    4  A    between atoms: S1_12  and  C9_15 
ROOT
HETATM    1  O1  UNL     1      22.160   4.452  50.577  1.00  0.00    -0.272 OA
HETATM    2  C1  UNL     1      22.808   3.588  49.929  1.00  0.00     0.235 C 
HETATM    3  N1  UNL     1      24.017   4.067  49.344  1.00  0.00    -0.250 N 
HETATM    4  H7  UNL     1      24.634   3.420  48.780  1.00  0.00     0.181 HD
ENDROOT
BRANCH   3   5
HETATM    5  S1  UNL     1      24.404   5.732  49.609  1.00  0.00     0.265 S 
HETATM    6  O2  UNL     1      23.486   6.523  48.704  1.00  0.00    -0.200 OA
HETATM    7  O3  UNL     1      24.182   6.143  51.018  1.00  0.00    -0.200 OA
BRANCH   5   8
HETATM    8  C9  UNL     1      26.012   5.972  49.025  1.00  0.00     0.079 A 
HETATM    9  C10 UNL     1      26.531   7.189  48.636  1.00  0.00     0.025 A 
HETATM   10  C11 UNL     1      27.833   7.330  48.174  1.00  0.00     0.002 A 
HETATM   11  C12 UNL     1      28.645   6.214  48.098  1.00  0.00     0.000 A 
HETATM   12  C13 UNL     1      28.150   4.968  48.485  1.00  0.00     0.002 A 
HETATM   13  C14 UNL     1      26.847   4.911  48.932  1.00  0.00     0.025 A 
ENDBRANCH   5   8
ENDBRANCH   3   5
BRANCH   2  14
HETATM   14  C2  UNL     1      22.479   2.167  49.703  1.00  0.00     0.142 C 
BRANCH  14  15
HETATM   15  C3  UNL     1      22.384   1.346  50.892  1.00  0.00    -0.049 A 
HETATM   16  C4  UNL     1      23.379   1.370  51.819  1.00  0.00     0.009 A 
HETATM   17  C5  UNL     1      23.354   0.614  52.975  1.00  0.00     0.019 A 
HETATM   18  C6  UNL     1      22.270  -0.218  53.220  1.00  0.00     0.011 A 
HETATM   19 BR1  UNL     1      22.225  -1.269  54.816  1.00  0.00    -0.051 Br
HETATM   20  C7  UNL     1      21.228  -0.268  52.286  1.00  0.00     0.019 A 
HETATM   21  C8  UNL     1      21.304   0.510  51.147  1.00  0.00     0.009 A 
ENDBRANCH  14  15
ENDBRANCH   2  14
TORSDOF 4
ENDMDL
MODEL 8
REMARK VINA RESULT:      -6.7      5.697      7.636
REMARK  4 active torsions:
REMARK  status: ('A' for Active; 'I' for Inactive)
REMARK    1  A    between atoms: C1_2  and  C2_3 
REMARK       I    between atoms: C1_2  and  N1_11 
REMARK    2  A    between atoms: C2_3  and  C3_4 
REMARK    3  A    between atoms: N1_11  and  S1_12 
REMARK    4  A    between atoms: S1_12  and  C9_15 
ROOT
HETATM    1  O1  UNL     1      23.585   3.047  50.871  1.00  0.00    -0.272 OA
HETATM    2  C1  UNL     1      23.611   2.529  52.019  1.00  0.00     0.235 C 
HETATM    3  N1  UNL     1      22.518   1.660  52.304  1.00  0.00    -0.250 N 
HETATM    4  H7  UNL     1      22.447   1.175  53.241  1.00  0.00     0.181 HD
ENDROOT
BRANCH   3   5
HETATM    5  S1  UNL     1      21.342   1.451  51.053  1.00  0.00     0.265 S 
HETATM    6  O2  UNL     1      20.774   2.826  50.779  1.00  0.00    -0.200 OA
HETATM    7  O3  UNL     1      21.938   0.906  49.808  1.00  0.00    -0.200 OA
BRANCH   5   8
HETATM    8  C9  UNL     1      20.061   0.505  51.722  1.00  0.00     0.079 A 
HETATM    9  C10 UNL     1      20.141  -0.198  52.906  1.00  0.00     0.025 A 
HETATM   10  C11 UNL     1      19.080  -0.944  53.402  1.00  0.00     0.002 A 
HETATM   11  C12 UNL     1      17.897  -0.991  52.689  1.00  0.00     0.000 A 
HETATM   12  C13 UNL     1      17.784  -0.290  51.488  1.00  0.00     0.002 A 
HETATM   13  C14 UNL     1      18.882   0.428  51.062  1.00  0.00     0.025 A 
ENDBRANCH   5   8
ENDBRANCH   3   5
BRANCH   2  14
HETATM   14  C2  UNL     1      24.614   2.707  53.087  1.00  0.00     0.142 C 
BRANCH  14  15
HETATM   15  C3  UNL     1      25.641   1.690  53.162  1.00  0.00    -0.049 A 
HETATM   16  C4  UNL     1      25.920   0.920  52.074  1.00  0.00     0.009 A 
HETATM   17  C5  UNL     1      26.886  -0.067  52.074  1.00  0.00     0.019 A 
HETATM   18  C6  UNL     1      27.618  -0.302  53.231  1.00  0.00     0.011 A 
HETATM   19 BR1  UNL     1      28.956  -1.666  53.243  1.00  0.00    -0.051 Br
HETATM   20  C7  UNL     1      27.357   0.471  54.369  1.00  0.00     0.019 A 
HETATM   21  C8  UNL     1      26.380   1.445  54.313  1.00  0.00     0.009 A 
ENDBRANCH  14  15
ENDBRANCH   2  14
TORSDOF 4
ENDMDL
MODEL 9
REMARK VINA RESULT:      -6.7      3.084      3.798
REMARK  4 active torsions:
REMARK  status: ('A' for Active; 'I' for Inactive)
REMARK    1  A    between atoms: C1_2  and  C2_3 
REMARK       I    between atoms: C1_2  and  N1_11 
REMARK    2  A    between atoms: C2_3  and  C3_4 
REMARK    3  A    between atoms: N1_11  and  S1_12 
REMARK    4  A    between atoms: S1_12  and  C9_15 
ROOT
HETATM    1  O1  UNL     1      27.622   2.651  51.661  1.00  0.00    -0.272 OA
HETATM    2  C1  UNL     1      26.376   2.497  51.558  1.00  0.00     0.235 C 
HETATM    3  N1  UNL     1      25.763   1.855  52.674  1.00  0.00    -0.250 N 
HETATM    4  H7  UNL     1      24.721   1.679  52.686  1.00  0.00     0.181 HD
ENDROOT
BRANCH   3   5
HETATM    5  S1  UNL     1      26.804   1.395  53.976  1.00  0.00     0.265 S 
HETATM    6  O2  UNL     1      27.921   2.413  53.998  1.00  0.00    -0.200 OA
HETATM    7  O3  UNL     1      26.103   1.403  55.285  1.00  0.00    -0.200 OA
BRANCH   5   8
HETATM    8  C9  UNL     1      27.514  -0.118  53.539  1.00  0.00     0.079 A 
HETATM    9  C10 UNL     1      26.831  -1.165  52.956  1.00  0.00     0.025 A 
HETATM   10  C11 UNL     1      27.450  -2.363  52.622  1.00  0.00     0.002 A 
HETATM   11  C12 UNL     1      28.798  -2.520  52.882  1.00  0.00     0.000 A 
HETATM   12  C13 UNL     1      29.517  -1.480  53.471  1.00  0.00     0.002 A 
HETATM   13  C14 UNL     1      28.832  -0.322  53.773  1.00  0.00     0.025 A 
ENDBRANCH   5   8
ENDBRANCH   3   5
BRANCH   2  14
HETATM   14  C2  UNL     1      25.488   2.889  50.447  1.00  0.00     0.142 C 
BRANCH  14  15
HETATM   15  C3  UNL     1      24.074   2.928  50.755  1.00  0.00    -0.049 A 
HETATM   16  C4  UNL     1      23.544   4.007  51.396  1.00  0.00     0.009 A 
HETATM   17  C5  UNL     1      22.206   4.112  51.720  1.00  0.00     0.019 A 
HETATM   18  C6  UNL     1      21.342   3.077  51.387  1.00  0.00     0.011 A 
HETATM   19 BR1  UNL     1      19.489   3.211  51.832  1.00  0.00    -0.051 Br
HETATM   20  C7  UNL     1      21.853   1.951  50.727  1.00  0.00     0.019 A 
HETATM   21  C8  UNL     1      23.200   1.899  50.427  1.00  0.00     0.009 A 
ENDBRANCH  14  15
ENDBRANCH   2  14
TORSDOF 4
ENDMDL
