MODEL 1
REMARK VINA RESULT:      -7.9      0.000      0.000
REMARK  3 active torsions:
REMARK  status: ('A' for Active; 'I' for Inactive)
REMARK    1  A    between atoms: C3_3  and  C4_4 
REMARK    2  A    between atoms: C3_3  and  N5_22 
REMARK    3  A    between atoms: C7_8  and  N2_9 
ROOT
HETATM    1  C4  UNL     1      24.210   6.767  51.157  1.00  0.00     0.039 C 
HETATM    2  C5  UNL     1      23.617   5.734  51.725  1.00  0.00    -0.025 A 
HETATM    3  C6  UNL     1      23.087   4.607  52.264  1.00  0.00     0.161 A 
HETATM    4  N1  UNL     1      24.070   3.750  52.964  1.00  0.00    -0.185 NA
HETATM    5  C7  UNL     1      23.975   2.479  52.468  1.00  0.00     0.087 A 
HETATM    6  C13 UNL     1      23.534   3.050  51.098  1.00  0.00     0.112 A 
HETATM    7  C14 UNL     1      23.116   2.295  49.851  1.00  0.00     0.320 A 
HETATM    8  N3  UNL     1      22.812   3.663  49.460  1.00  0.00     0.330 N 
HETATM    9  C15 UNL     1      23.254   4.168  50.694  1.00  0.00     0.276 A 
HETATM   10  N4  UNL     1      23.714   4.302  51.870  1.00  0.00     0.000 N 
ENDROOT
BRANCH   5  11
HETATM   11  N2  UNL     1      24.112   1.036  52.707  1.00  0.00    -0.365 N 
HETATM   12  C8  UNL     1      22.951   0.291  53.078  1.00  0.00     0.174 C 
HETATM   13  C9  UNL     1      23.280  -0.682  54.131  1.00  0.00     0.028 C 
HETATM   14 CL1  UNL     1      22.008  -1.618  54.916  1.00  0.00    -0.087 Cl
HETATM   15  C10 UNL     1      24.547  -0.853  54.489  1.00  0.00     0.032 C 
HETATM   16  C11 UNL     1      25.756  -0.166  53.953  1.00  0.00     0.212 C 
HETATM   17  F1  UNL     1      26.054   0.952  54.714  1.00  0.00    -0.243 F 
HETATM   18  C12 UNL     1      25.384   0.351  52.577  1.00  0.00     0.165 C 
ENDBRANCH   5  11
BRANCH   1  19
HETATM   19  C3  UNL     1      25.392   6.854  50.323  1.00  0.00     0.039 C 
HETATM   20  C2  UNL     1      25.492   6.098  49.245  1.00  0.00    -0.001 C 
HETATM   21  C1  UNL     1      26.722   6.223  48.421  1.00  0.00     0.038 C 
BRANCH  19  22
HETATM   22  N5  UNL     1      26.410   7.766  50.706  1.00  0.00    -0.299 N 
HETATM   23 CL2  UNL     1      27.307   9.232  50.413  1.00  0.00     0.011 Cl
HETATM   24  H14 UNL     1      26.725   7.266  51.564  1.00  0.00     0.180 HD
ENDBRANCH  19  22
ENDBRANCH   1  19
TORSDOF 3
ENDMDL
MODEL 2
REMARK VINA RESULT:      -7.7      3.907      6.097
REMARK  3 active torsions:
REMARK  status: ('A' for Active; 'I' for Inactive)
REMARK    1  A    between atoms: C3_3  and  C4_4 
REMARK    2  A    between atoms: C3_3  and  N5_22 
REMARK    3  A    between atoms: C7_8  and  N2_9 
ROOT
HETATM    1  C4  UNL     1      26.712   0.988  54.267  1.00  0.00     0.039 C 
HETATM    2  C5  UNL     1      25.828   1.871  53.842  1.00  0.00    -0.025 A 
HETATM    3  C6  UNL     1      24.902   2.713  53.317  1.00  0.00     0.161 A 
HETATM    4  N1  UNL     1      23.648   2.048  52.897  1.00  0.00    -0.185 NA
HETATM    5  C7  UNL     1      23.383   2.391  51.599  1.00  0.00     0.087 A 
HETATM    6  C13 UNL     1      24.901   2.528  51.329  1.00  0.00     0.112 A 
HETATM    7  C14 UNL     1      25.597   2.975  50.058  1.00  0.00     0.320 A 
HETATM    8  N3  UNL     1      26.723   2.895  50.976  1.00  0.00     0.330 N 
HETATM    9  C15 UNL     1      25.898   2.484  52.035  1.00  0.00     0.276 A 
HETATM   10  N4  UNL     1      24.914   2.137  52.759  1.00  0.00     0.000 N 
ENDROOT
BRANCH   5  11
HETATM   11  N2  UNL     1      22.377   2.632  50.556  1.00  0.00    -0.365 N 
HETATM   12  C8  UNL     1      21.459   3.713  50.729  1.00  0.00     0.174 C 
HETATM   13  C9  UNL     1      20.109   3.312  50.308  1.00  0.00     0.028 C 
HETATM   14 CL1  UNL     1      18.732   4.381  50.575  1.00  0.00    -0.087 Cl
HETATM   15  C10 UNL     1      19.930   2.134  49.723  1.00  0.00     0.032 C 
HETATM   16  C11 UNL     1      20.954   1.097  49.410  1.00  0.00     0.212 C 
HETATM   17  F1  UNL     1      21.043   0.180  50.444  1.00  0.00    -0.243 F 
HETATM   18  C12 UNL     1      22.290   1.810  49.365  1.00  0.00     0.165 C 
ENDBRANCH   5  11
BRANCH   1  19
HETATM   19  C3  UNL     1      27.165  -0.264  53.696  1.00  0.00     0.039 C 
HETATM   20  C2  UNL     1      26.389  -0.921  52.854  1.00  0.00    -0.001 C 
HETATM   21  C1  UNL     1      26.897  -2.201  52.294  1.00  0.00     0.038 C 
BRANCH  19  22
HETATM   22  N5  UNL     1      28.449  -0.740  54.072  1.00  0.00    -0.299 N 
HETATM   23 CL2  UNL     1      30.158  -0.873  53.755  1.00  0.00     0.011 Cl
HETATM   24  H14 UNL     1      28.164  -1.223  54.949  1.00  0.00     0.180 HD
ENDBRANCH  19  22
ENDBRANCH   1  19
TORSDOF 3
ENDMDL
MODEL 3
REMARK VINA RESULT:      -7.4      3.760      6.382
REMARK  3 active torsions:
REMARK  status: ('A' for Active; 'I' for Inactive)
REMARK    1  A    between atoms: C3_3  and  C4_4 
REMARK    2  A    between atoms: C3_3  and  N5_22 
REMARK    3  A    between atoms: C7_8  and  N2_9 
ROOT
HETATM    1  C4  UNL     1      26.886   0.725  54.265  1.00  0.00     0.039 C 
HETATM    2  C5  UNL     1      26.060   1.705  53.954  1.00  0.00    -0.025 A 
HETATM    3  C6  UNL     1      25.185   2.657  53.540  1.00  0.00     0.161 A 
HETATM    4  N1  UNL     1      23.868   2.127  53.121  1.00  0.00    -0.185 NA
HETATM    5  C7  UNL     1      23.583   2.599  51.869  1.00  0.00     0.087 A 
HETATM    6  C13 UNL     1      25.097   2.644  51.546  1.00  0.00     0.112 A 
HETATM    7  C14 UNL     1      25.779   3.145  50.288  1.00  0.00     0.320 A 
HETATM    8  N3  UNL     1      26.929   2.903  51.147  1.00  0.00     0.330 N 
HETATM    9  C15 UNL     1      26.112   2.465  52.203  1.00  0.00     0.276 A 
HETATM   10  N4  UNL     1      25.130   2.132  52.936  1.00  0.00     0.000 N 
ENDROOT
BRANCH   5  11
HETATM   11  N2  UNL     1      22.562   3.005  50.894  1.00  0.00    -0.365 N 
HETATM   12  C8  UNL     1      22.459   2.275  49.670  1.00  0.00     0.174 C 
HETATM   13  C9  UNL     1      22.233   3.193  48.543  1.00  0.00     0.028 C 
HETATM   14 CL1  UNL     1      22.244   2.597  46.884  1.00  0.00    -0.087 Cl
HETATM   15  C10 UNL     1      22.020   4.482  48.783  1.00  0.00     0.032 C 
HETATM   16  C11 UNL     1      21.973   5.177  50.101  1.00  0.00     0.212 C 
HETATM   17  F1  UNL     1      23.222   5.679  50.427  1.00  0.00    -0.243 F 
HETATM   18  C12 UNL     1      21.663   4.115  51.137  1.00  0.00     0.165 C 
ENDBRANCH   5  11
BRANCH   1  19
HETATM   19  C3  UNL     1      27.219  -0.505  53.573  1.00  0.00     0.039 C 
HETATM   20  C2  UNL     1      26.314  -1.098  52.817  1.00  0.00    -0.001 C 
HETATM   21  C1  UNL     1      26.701  -2.356  52.127  1.00  0.00     0.038 C 
BRANCH  19  22
HETATM   22  N5  UNL     1      28.528  -1.028  53.740  1.00  0.00    -0.299 N 
HETATM   23 CL2  UNL     1      30.256  -0.793  53.734  1.00  0.00     0.011 Cl
HETATM   24  H14 UNL     1      28.255  -2.006  53.971  1.00  0.00     0.180 HD
ENDBRANCH  19  22
ENDBRANCH   1  19
TORSDOF 3
ENDMDL
MODEL 4
REMARK VINA RESULT:      -7.1      3.489      6.162
REMARK  3 active torsions:
REMARK  status: ('A' for Active; 'I' for Inactive)
REMARK    1  A    between atoms: C3_3  and  C4_4 
REMARK    2  A    between atoms: C3_3  and  N5_22 
REMARK    3  A    between atoms: C7_8  and  N2_9 
ROOT
HETATM    1  C4  UNL     1      25.237  -0.066  53.737  1.00  0.00     0.039 C 
HETATM    2  C5  UNL     1      24.078   0.414  53.328  1.00  0.00    -0.025 A 
HETATM    3  C6  UNL     1      22.942   0.963  52.828  1.00  0.00     0.161 A 
HETATM    4  N1  UNL     1      22.805   0.838  51.359  1.00  0.00    -0.185 NA
HETATM    5  C7  UNL     1      22.565   2.078  50.834  1.00  0.00     0.087 A 
HETATM    6  C13 UNL     1      23.379   2.719  51.985  1.00  0.00     0.112 A 
HETATM    7  C14 UNL     1      23.611   4.189  52.272  1.00  0.00     0.320 A 
HETATM    8  N3  UNL     1      24.197   3.582  53.457  1.00  0.00     0.330 N 
HETATM    9  C15 UNL     1      23.891   2.287  53.007  1.00  0.00     0.276 A 
HETATM   10  N4  UNL     1      23.490   1.284  52.339  1.00  0.00     0.000 N 
ENDROOT
BRANCH   5  11
HETATM   11  N2  UNL     1      21.938   2.882  49.776  1.00  0.00    -0.365 N 
HETATM   12  C8  UNL     1      20.527   3.097  49.828  1.00  0.00     0.174 C 
HETATM   13  C9  UNL     1      19.942   2.988  48.483  1.00  0.00     0.028 C 
HETATM   14 CL1  UNL     1      18.194   3.028  48.259  1.00  0.00    -0.087 Cl
HETATM   15  C10 UNL     1      20.743   2.858  47.431  1.00  0.00     0.032 C 
HETATM   16  C11 UNL     1      22.232   2.804  47.409  1.00  0.00     0.212 C 
HETATM   17  F1  UNL     1      22.668   1.491  47.466  1.00  0.00    -0.243 F 
HETATM   18  C12 UNL     1      22.706   3.460  48.691  1.00  0.00     0.165 C 
ENDBRANCH   5  11
BRANCH   1  19
HETATM   19  C3  UNL     1      26.586   0.143  53.250  1.00  0.00     0.039 C 
HETATM   20  C2  UNL     1      27.616  -0.189  54.006  1.00  0.00    -0.001 C 
HETATM   21  C1  UNL     1      28.980   0.043  53.465  1.00  0.00     0.038 C 
BRANCH  19  22
HETATM   22  N5  UNL     1      26.746   0.706  51.956  1.00  0.00    -0.299 N 
HETATM   23 CL2  UNL     1      26.790   2.106  50.918  1.00  0.00     0.011 Cl
HETATM   24  H14 UNL     1      26.907  -0.184  51.440  1.00  0.00     0.180 HD
ENDBRANCH  19  22
ENDBRANCH   1  19
TORSDOF 3
ENDMDL
MODEL 5
REMARK VINA RESULT:      -7.1      3.153      6.503
REMARK  3 active torsions:
REMARK  status: ('A' for Active; 'I' for Inactive)
REMARK    1  A    between atoms: C3_3  and  C4_4 
REMARK    2  A    between atoms: C3_3  and  N5_22 
REMARK    3  A    between atoms: C7_8  and  N2_9 
ROOT
HETATM    1  C4  UNL     1      24.795  -0.169  53.223  1.00  0.00     0.039 C 
HETATM    2  C5  UNL     1      23.729   0.469  52.779  1.00  0.00    -0.025 A 
HETATM    3  C6  UNL     1      22.701   1.187  52.260  1.00  0.00     0.161 A 
HETATM    4  N1  UNL     1      22.728   1.303  50.784  1.00  0.00    -0.185 NA
HETATM    5  C7  UNL     1      22.640   2.626  50.447  1.00  0.00     0.087 A 
HETATM    6  C13 UNL     1      23.356   3.007  51.766  1.00  0.00     0.112 A 
HETATM    7  C14 UNL     1      23.656   4.389  52.311  1.00  0.00     0.320 A 
HETATM    8  N3  UNL     1      24.054   3.556  53.436  1.00  0.00     0.330 N 
HETATM    9  C15 UNL     1      23.713   2.378  52.751  1.00  0.00     0.276 A 
HETATM   10  N4  UNL     1      23.324   1.530  51.890  1.00  0.00     0.000 N 
ENDROOT
BRANCH   5  11
HETATM   11  N2  UNL     1      22.199   3.636  49.475  1.00  0.00    -0.365 N 
HETATM   12  C8  UNL     1      23.186   4.295  48.679  1.00  0.00     0.174 C 
HETATM   13  C9  UNL     1      22.875   5.727  48.558  1.00  0.00     0.028 C 
HETATM   14 CL1  UNL     1      24.012   6.830  47.784  1.00  0.00    -0.087 Cl
HETATM   15  C10 UNL     1      21.726   6.188  49.038  1.00  0.00     0.032 C 
HETATM   16  C11 UNL     1      20.641   5.427  49.721  1.00  0.00     0.212 C 
HETATM   17  F1  UNL     1      20.825   5.451  51.094  1.00  0.00    -0.243 F 
HETATM   18  C12 UNL     1      20.801   3.979  49.302  1.00  0.00     0.165 C 
ENDBRANCH   5  11
BRANCH   1  19
HETATM   19  C3  UNL     1      26.203  -0.007  52.921  1.00  0.00     0.039 C 
HETATM   20  C2  UNL     1      27.112  -0.474  53.756  1.00  0.00    -0.001 C 
HETATM   21  C1  UNL     1      28.543  -0.286  53.403  1.00  0.00     0.038 C 
BRANCH  19  22
HETATM   22  N5  UNL     1      26.552   0.659  51.716  1.00  0.00    -0.299 N 
HETATM   23 CL2  UNL     1      26.698   2.134  50.799  1.00  0.00     0.011 Cl
HETATM   24  H14 UNL     1      26.846  -0.182  51.177  1.00  0.00     0.180 HD
ENDBRANCH  19  22
ENDBRANCH   1  19
TORSDOF 3
ENDMDL
MODEL 6
REMARK VINA RESULT:      -6.9      4.525      6.550
REMARK  3 active torsions:
REMARK  status: ('A' for Active; 'I' for Inactive)
REMARK    1  A    between atoms: C3_3  and  C4_4 
REMARK    2  A    between atoms: C3_3  and  N5_22 
REMARK    3  A    between atoms: C7_8  and  N2_9 
ROOT
HETATM    1  C4  UNL     1      24.156   1.957  52.886  1.00  0.00     0.039 C 
HETATM    2  C5  UNL     1      22.965   2.416  52.553  1.00  0.00    -0.025 A 
HETATM    3  C6  UNL     1      21.710   2.783  52.188  1.00  0.00     0.161 A 
HETATM    4  N1  UNL     1      20.638   1.972  52.806  1.00  0.00    -0.185 NA
HETATM    5  C7  UNL     1      19.819   1.500  51.817  1.00  0.00     0.087 A 
HETATM    6  C13 UNL     1      21.016   1.489  50.836  1.00  0.00     0.112 A 
HETATM    7  C14 UNL     1      21.025   1.139  49.361  1.00  0.00     0.320 A 
HETATM    8  N3  UNL     1      22.385   1.625  49.536  1.00  0.00     0.330 N 
HETATM    9  C15 UNL     1      22.172   1.880  50.901  1.00  0.00     0.276 A 
HETATM   10  N4  UNL     1      21.676   1.992  52.064  1.00  0.00     0.000 N 
ENDROOT
BRANCH   5  11
HETATM   11  N2  UNL     1      18.471   1.077  51.413  1.00  0.00    -0.365 N 
HETATM   12  C8  UNL     1      17.459   2.074  51.259  1.00  0.00     0.174 C 
HETATM   13  C9  UNL     1      16.182   1.597  51.809  1.00  0.00     0.028 C 
HETATM   14 CL1  UNL     1      14.794   2.679  51.924  1.00  0.00    -0.087 Cl
HETATM   15  C10 UNL     1      16.077   0.339  52.222  1.00  0.00     0.032 C 
HETATM   16  C11 UNL     1      17.123  -0.723  52.210  1.00  0.00     0.212 C 
HETATM   17  F1  UNL     1      17.800  -0.748  53.419  1.00  0.00    -0.243 F 
HETATM   18  C12 UNL     1      18.143  -0.313  51.167  1.00  0.00     0.165 C 
ENDBRANCH   5  11
BRANCH   1  19
HETATM   19  C3  UNL     1      24.701   0.613  52.882  1.00  0.00     0.039 C 
HETATM   20  C2  UNL     1      25.947   0.411  52.496  1.00  0.00    -0.001 C 
HETATM   21  C1  UNL     1      26.461  -0.983  52.510  1.00  0.00     0.038 C 
BRANCH  19  22
HETATM   22  N5  UNL     1      23.855  -0.447  53.301  1.00  0.00    -0.299 N 
HETATM   23 CL2  UNL     1      22.294  -1.005  53.841  1.00  0.00     0.011 Cl
HETATM   24  H14 UNL     1      24.555  -1.215  53.231  1.00  0.00     0.180 HD
ENDBRANCH  19  22
ENDBRANCH   1  19
TORSDOF 3
ENDMDL
MODEL 7
REMARK VINA RESULT:      -6.9      2.962      7.058
REMARK  3 active torsions:
REMARK  status: ('A' for Active; 'I' for Inactive)
REMARK    1  A    between atoms: C3_3  and  C4_4 
REMARK    2  A    between atoms: C3_3  and  N5_22 
REMARK    3  A    between atoms: C7_8  and  N2_9 
ROOT
HETATM    1  C4  UNL     1      21.612   0.365  51.044  1.00  0.00     0.039 C 
HETATM    2  C5  UNL     1      21.773   1.353  50.185  1.00  0.00    -0.025 A 
HETATM    3  C6  UNL     1      21.993   2.425  49.382  1.00  0.00     0.161 A 
HETATM    4  N1  UNL     1      23.397   2.893  49.369  1.00  0.00    -0.185 NA
HETATM    5  C7  UNL     1      23.416   4.233  49.648  1.00  0.00     0.087 A 
HETATM    6  C13 UNL     1      22.139   4.068  50.507  1.00  0.00     0.112 A 
HETATM    7  C14 UNL     1      21.335   5.139  51.217  1.00  0.00     0.320 A 
HETATM    8  N3  UNL     1      20.481   3.977  51.415  1.00  0.00     0.330 N 
HETATM    9  C15 UNL     1      21.369   3.142  50.717  1.00  0.00     0.276 A 
HETATM   10  N4  UNL     1      22.347   2.671  50.058  1.00  0.00     0.000 N 
ENDROOT
BRANCH   5  11
HETATM   11  N2  UNL     1      24.077   5.532  49.468  1.00  0.00    -0.365 N 
HETATM   12  C8  UNL     1      23.489   6.480  48.576  1.00  0.00     0.174 C 
HETATM   13  C9  UNL     1      24.529   7.151  47.782  1.00  0.00     0.028 C 
HETATM   14 CL1  UNL     1      24.091   8.243  46.468  1.00  0.00    -0.087 Cl
HETATM   15  C10 UNL     1      25.809   6.928  48.060  1.00  0.00     0.032 C 
HETATM   16  C11 UNL     1      26.380   6.049  49.119  1.00  0.00     0.212 C 
HETATM   17  F1  UNL     1      26.629   4.784  48.614  1.00  0.00    -0.243 F 
HETATM   18  C12 UNL     1      25.299   5.878  50.167  1.00  0.00     0.165 C 
ENDBRANCH   5  11
BRANCH   1  19
HETATM   19  C3  UNL     1      22.033   0.215  52.422  1.00  0.00     0.039 C 
HETATM   20  C2  UNL     1      21.294  -0.484  53.263  1.00  0.00    -0.001 C 
HETATM   21  C1  UNL     1      21.766  -0.610  54.666  1.00  0.00     0.038 C 
BRANCH  19  22
HETATM   22  N5  UNL     1      23.247   0.837  52.818  1.00  0.00    -0.299 N 
HETATM   23 CL2  UNL     1      24.178   2.286  53.089  1.00  0.00     0.011 Cl
HETATM   24  H14 UNL     1      23.783  -0.031  53.027  1.00  0.00     0.180 HD
ENDBRANCH  19  22
ENDBRANCH   1  19
TORSDOF 3
ENDMDL
MODEL 8
REMARK VINA RESULT:      -6.9      3.286      6.647
REMARK  3 active torsions:
REMARK  status: ('A' for Active; 'I' for Inactive)
REMARK    1  A    between atoms: C3_3  and  C4_4 
REMARK    2  A    between atoms: C3_3  and  N5_22 
REMARK    3  A    between atoms: C7_8  and  N2_9 
ROOT
HETATM    1  C4  UNL     1      25.733   1.129  53.895  1.00  0.00     0.039 C 
HETATM    2  C5  UNL     1      25.243   2.269  53.447  1.00  0.00    -0.025 A 
HETATM    3  C6  UNL     1      24.705   3.387  52.896  1.00  0.00     0.161 A 
HETATM    4  N1  UNL     1      23.320   3.211  52.403  1.00  0.00    -0.185 NA
HETATM    5  C7  UNL     1      23.260   3.628  51.102  1.00  0.00     0.087 A 
HETATM    6  C13 UNL     1      24.740   3.218  50.907  1.00  0.00     0.112 A 
HETATM    7  C14 UNL     1      25.614   3.391  49.680  1.00  0.00     0.320 A 
HETATM    8  N3  UNL     1      26.591   2.915  50.648  1.00  0.00     0.330 N 
HETATM    9  C15 UNL     1      25.619   2.821  51.658  1.00  0.00     0.276 A 
HETATM   10  N4  UNL     1      24.540   2.845  52.327  1.00  0.00     0.000 N 
ENDROOT
BRANCH   5  11
HETATM   11  N2  UNL     1      22.461   4.213  50.017  1.00  0.00    -0.365 N 
HETATM   12  C8  UNL     1      22.093   3.383  48.915  1.00  0.00     0.174 C 
HETATM   13  C9  UNL     1      22.222   4.122  47.650  1.00  0.00     0.028 C 
HETATM   14 CL1  UNL     1      22.009   3.300  46.105  1.00  0.00    -0.087 Cl
HETATM   15  C10 UNL     1      22.501   5.420  47.678  1.00  0.00     0.032 C 
HETATM   16  C11 UNL     1      22.716   6.290  48.869  1.00  0.00     0.212 C 
HETATM   17  F1  UNL     1      24.062   6.347  49.189  1.00  0.00    -0.243 F 
HETATM   18  C12 UNL     1      22.037   5.600  50.035  1.00  0.00     0.165 C 
ENDBRANCH   5  11
BRANCH   1  19
HETATM   19  C3  UNL     1      25.742  -0.201  53.322  1.00  0.00     0.039 C 
HETATM   20  C2  UNL     1      26.880  -0.735  52.919  1.00  0.00    -0.001 C 
HETATM   21  C1  UNL     1      26.839  -2.102  52.337  1.00  0.00     0.038 C 
BRANCH  19  22
HETATM   22  N5  UNL     1      24.503  -0.888  53.216  1.00  0.00    -0.299 N 
HETATM   23 CL2  UNL     1      22.765  -0.846  53.083  1.00  0.00     0.011 Cl
HETATM   24  H14 UNL     1      24.883  -1.857  53.234  1.00  0.00     0.180 HD
ENDBRANCH  19  22
ENDBRANCH   1  19
TORSDOF 3
ENDMDL
MODEL 9
REMARK VINA RESULT:      -6.8      3.179      4.551
REMARK  3 active torsions:
REMARK  status: ('A' for Active; 'I' for Inactive)
REMARK    1  A    between atoms: C3_3  and  C4_4 
REMARK    2  A    between atoms: C3_3  and  N5_22 
REMARK    3  A    between atoms: C7_8  and  N2_9 
ROOT
HETATM    1  C4  UNL     1      23.254   4.718  48.327  1.00  0.00     0.039 C 
HETATM    2  C5  UNL     1      24.250   4.565  49.179  1.00  0.00    -0.025 A 
HETATM    3  C6  UNL     1      25.216   4.326  50.102  1.00  0.00     0.161 A 
HETATM    4  N1  UNL     1      25.576   2.897  50.245  1.00  0.00    -0.185 NA
HETATM    5  C7  UNL     1      25.487   2.552  51.566  1.00  0.00     0.087 A 
HETATM    6  C13 UNL     1      24.371   3.608  51.762  1.00  0.00     0.112 A 
HETATM    7  C14 UNL     1      23.659   4.002  53.042  1.00  0.00     0.320 A 
HETATM    8  N3  UNL     1      23.140   5.001  52.119  1.00  0.00     0.330 N 
HETATM    9  C15 UNL     1      23.888   4.477  51.051  1.00  0.00     0.276 A 
HETATM   10  N4  UNL     1      24.664   3.787  50.321  1.00  0.00     0.000 N 
ENDROOT
BRANCH   5  11
HETATM   11  N2  UNL     1      25.967   1.707  52.667  1.00  0.00    -0.365 N 
HETATM   12  C8  UNL     1      27.032   2.192  53.487  1.00  0.00     0.174 C 
HETATM   13  C9  UNL     1      27.981   1.110  53.787  1.00  0.00     0.028 C 
HETATM   14 CL1  UNL     1      29.493   1.450  54.629  1.00  0.00    -0.087 Cl
HETATM   15  C10 UNL     1      27.694  -0.133  53.417  1.00  0.00     0.032 C 
HETATM   16  C11 UNL     1      26.481  -0.623  52.703  1.00  0.00     0.212 C 
HETATM   17  F1  UNL     1      26.699  -0.637  51.335  1.00  0.00    -0.243 F 
HETATM   18  C12 UNL     1      25.393   0.404  52.944  1.00  0.00     0.165 C 
ENDBRANCH   5  11
BRANCH   1  19
HETATM   19  C3  UNL     1      21.983   4.032  48.207  1.00  0.00     0.039 C 
HETATM   20  C2  UNL     1      20.859   4.724  48.232  1.00  0.00    -0.001 C 
HETATM   21  C1  UNL     1      19.580   3.978  48.104  1.00  0.00     0.038 C 
BRANCH  19  22
HETATM   22  N5  UNL     1      22.000   2.620  48.064  1.00  0.00    -0.299 N 
HETATM   23 CL2  UNL     1      21.571   1.040  48.664  1.00  0.00     0.011 Cl
HETATM   24  H14 UNL     1      22.530   2.580  47.169  1.00  0.00     0.180 HD
ENDBRANCH  19  22
ENDBRANCH   1  19
TORSDOF 3
ENDMDL
