MODEL 1
REMARK VINA RESULT:      -8.8      0.000      0.000
REMARK  7 active torsions:
REMARK  status: ('A' for Active; 'I' for Inactive)
REMARK    1  A    between atoms: C2_2  and  N1_3 
REMARK    2  A    between atoms: C2_2  and  C15_19 
REMARK    3  A    between atoms: N1_3  and  C3_4 
REMARK    4  A    between atoms: C5_8  and  N4_9 
REMARK    5  A    between atoms: N4_9  and  C6_10 
REMARK    6  A    between atoms: C7_11  and  C8_12 
REMARK    7  A    between atoms: C18_22  and  O1_23 
ROOT
HETATM    1  C3  UNL     1      23.468   2.630  50.635  1.00  0.00     0.277 A 
HETATM    2  N2  UNL     1      23.429   3.309  49.373  1.00  0.00    -0.249 NA
HETATM    3  C4  UNL     1      24.057   4.423  49.495  1.00  0.00     0.232 A 
HETATM    4  N3  UNL     1      24.559   4.590  50.805  1.00  0.00    -0.225 NA
HETATM    5  C5  UNL     1      24.235   3.549  51.525  1.00  0.00     0.149 A 
ENDROOT
BRANCH   1   6
HETATM    6  N1  UNL     1      22.156   2.441  51.235  1.00  0.00    -0.361 N 
HETATM    7  H3  UNL     1      21.439   3.134  51.544  1.00  0.00     0.162 HD
BRANCH   6   8
HETATM    8  C2  UNL     1      21.782   1.078  51.434  1.00  0.00     0.030 C 
HETATM    9  C1  UNL     1      21.222   0.624  50.329  1.00  0.00     0.043 C 
BRANCH   8  10
HETATM   10  C15 UNL     1      21.987   0.316  52.661  1.00  0.00    -0.010 A 
HETATM   11  C16 UNL     1      21.034   0.004  53.602  1.00  0.00     0.016 A 
HETATM   12  C17 UNL     1      21.353  -0.716  54.711  1.00  0.00     0.037 A 
HETATM   13  C18 UNL     1      22.656  -1.160  54.924  1.00  0.00     0.065 A 
HETATM   14  C19 UNL     1      23.628  -0.854  53.985  1.00  0.00     0.037 A 
HETATM   15  C20 UNL     1      23.279  -0.121  52.868  1.00  0.00     0.016 A 
BRANCH  13  16
HETATM   16  O1  UNL     1      23.046  -1.901  56.035  1.00  0.00    -0.361 OA
HETATM   17  H18 UNL     1      23.909  -2.430  56.071  1.00  0.00     0.217 HD
ENDBRANCH  13  16
ENDBRANCH   8  10
ENDBRANCH   6   8
ENDBRANCH   1   6
BRANCH   5  18
HETATM   18  N4  UNL     1      24.589   3.388  52.915  1.00  0.00    -0.351 N 
HETATM   19  H6  UNL     1      24.055   4.101  53.501  1.00  0.00     0.166 HD
BRANCH  18  20
HETATM   20  C6  UNL     1      25.537   2.386  53.346  1.00  0.00     0.090 C 
HETATM   21  C7  UNL     1      26.444   1.716  52.657  1.00  0.00     0.029 C 
BRANCH  21  22
HETATM   22  C8  UNL     1      27.446   0.700  52.943  1.00  0.00    -0.029 A 
HETATM   23  C9  UNL     1      27.096  -0.601  52.654  1.00  0.00     0.012 A 
HETATM   24  C10 UNL     1      27.978  -1.613  52.892  1.00  0.00     0.001 A 
HETATM   25  C11 UNL     1      29.198  -1.257  53.422  1.00  0.00     0.001 A 
HETATM   26  C12 UNL     1      29.608   0.004  53.731  1.00  0.00     0.007 A 
HETATM   27  C13 UNL     1      28.678   1.015  53.473  1.00  0.00    -0.052 A 
HETATM   28  C14 UNL     1      29.054   2.413  53.782  1.00  0.00     0.049 C 
ENDBRANCH  21  22
ENDBRANCH  18  20
ENDBRANCH   5  18
TORSDOF 7
ENDMDL
MODEL 2
REMARK VINA RESULT:      -8.3      2.703      6.090
REMARK  7 active torsions:
REMARK  status: ('A' for Active; 'I' for Inactive)
REMARK    1  A    between atoms: C2_2  and  N1_3 
REMARK    2  A    between atoms: C2_2  and  C15_19 
REMARK    3  A    between atoms: N1_3  and  C3_4 
REMARK    4  A    between atoms: C5_8  and  N4_9 
REMARK    5  A    between atoms: N4_9  and  C6_10 
REMARK    6  A    between atoms: C7_11  and  C8_12 
REMARK    7  A    between atoms: C18_22  and  O1_23 
ROOT
HETATM    1  C3  UNL     1      27.769   1.774  53.047  1.00  0.00     0.277 A 
HETATM    2  N2  UNL     1      28.901   2.553  53.451  1.00  0.00    -0.249 NA
HETATM    3  C4  UNL     1      29.409   2.013  54.500  1.00  0.00     0.232 A 
HETATM    4  N3  UNL     1      28.690   0.860  54.884  1.00  0.00    -0.225 NA
HETATM    5  C5  UNL     1      27.701   0.673  54.051  1.00  0.00     0.149 A 
ENDROOT
BRANCH   1   6
HETATM    6  N1  UNL     1      26.509   2.499  53.113  1.00  0.00    -0.361 N 
HETATM    7  H3  UNL     1      26.024   2.954  53.917  1.00  0.00     0.162 HD
BRANCH   6   8
HETATM    8  C2  UNL     1      25.819   2.610  51.870  1.00  0.00     0.030 C 
HETATM    9  C1  UNL     1      26.568   2.088  50.917  1.00  0.00     0.043 C 
BRANCH   8  10
HETATM   10  C15 UNL     1      24.499   3.204  51.685  1.00  0.00    -0.010 A 
HETATM   11  C16 UNL     1      23.706   3.760  52.661  1.00  0.00     0.016 A 
HETATM   12  C17 UNL     1      22.487   4.284  52.361  1.00  0.00     0.037 A 
HETATM   13  C18 UNL     1      22.008   4.272  51.053  1.00  0.00     0.065 A 
HETATM   14  C19 UNL     1      22.794   3.716  50.058  1.00  0.00     0.037 A 
HETATM   15  C20 UNL     1      24.029   3.190  50.389  1.00  0.00     0.016 A 
BRANCH  13  16
HETATM   16  O1  UNL     1      20.772   4.792  50.680  1.00  0.00    -0.361 OA
HETATM   17  H18 UNL     1      20.553   5.779  50.721  1.00  0.00     0.217 HD
ENDBRANCH  13  16
ENDBRANCH   8  10
ENDBRANCH   6   8
ENDBRANCH   1   6
BRANCH   5  18
HETATM   18  N4  UNL     1      26.760  -0.419  54.147  1.00  0.00    -0.351 N 
HETATM   19  H6  UNL     1      27.291  -1.342  54.177  1.00  0.00     0.166 HD
BRANCH  18  20
HETATM   20  C6  UNL     1      25.334  -0.190  54.186  1.00  0.00     0.090 C 
HETATM   21  C7  UNL     1      24.396  -0.494  53.306  1.00  0.00     0.029 C 
BRANCH  21  22
HETATM   22  C8  UNL     1      22.953  -0.332  53.206  1.00  0.00    -0.029 A 
HETATM   23  C9  UNL     1      22.490   0.348  52.100  1.00  0.00     0.012 A 
HETATM   24  C10 UNL     1      21.151   0.543  51.931  1.00  0.00     0.001 A 
HETATM   25  C11 UNL     1      20.325   0.032  52.906  1.00  0.00     0.001 A 
HETATM   26  C12 UNL     1      20.713  -0.648  54.020  1.00  0.00     0.007 A 
HETATM   27  C13 UNL     1      22.093  -0.829  54.160  1.00  0.00    -0.052 A 
HETATM   28  C14 UNL     1      22.590  -1.560  55.347  1.00  0.00     0.049 C 
ENDBRANCH  21  22
ENDBRANCH  18  20
ENDBRANCH   5  18
TORSDOF 7
ENDMDL
MODEL 3
REMARK VINA RESULT:      -8.1      2.731      4.795
REMARK  7 active torsions:
REMARK  status: ('A' for Active; 'I' for Inactive)
REMARK    1  A    between atoms: C2_2  and  N1_3 
REMARK    2  A    between atoms: C2_2  and  C15_19 
REMARK    3  A    between atoms: N1_3  and  C3_4 
REMARK    4  A    between atoms: C5_8  and  N4_9 
REMARK    5  A    between atoms: N4_9  and  C6_10 
REMARK    6  A    between atoms: C7_11  and  C8_12 
REMARK    7  A    between atoms: C18_22  and  O1_23 
ROOT
HETATM    1  C3  UNL     1      21.841   1.653  51.484  1.00  0.00     0.277 A 
HETATM    2  N2  UNL     1      20.759   0.725  51.635  1.00  0.00    -0.249 NA
HETATM    3  C4  UNL     1      20.967   0.033  52.698  1.00  0.00     0.232 A 
HETATM    4  N3  UNL     1      22.165   0.420  53.338  1.00  0.00    -0.225 NA
HETATM    5  C5  UNL     1      22.725   1.382  52.655  1.00  0.00     0.149 A 
ENDROOT
BRANCH   1   6
HETATM    6  N1  UNL     1      22.632   1.434  50.283  1.00  0.00    -0.361 N 
HETATM    7  H3  UNL     1      23.063   0.566  49.897  1.00  0.00     0.162 HD
BRANCH   6   8
HETATM    8  C2  UNL     1      22.858   2.603  49.497  1.00  0.00     0.030 C 
HETATM    9  C1  UNL     1      21.774   2.856  48.787  1.00  0.00     0.043 C 
BRANCH   8  10
HETATM   10  C15 UNL     1      24.087   3.388  49.483  1.00  0.00    -0.010 A 
HETATM   11  C16 UNL     1      25.333   2.969  49.887  1.00  0.00     0.016 A 
HETATM   12  C17 UNL     1      26.407   3.802  49.826  1.00  0.00     0.037 A 
HETATM   13  C18 UNL     1      26.275   5.104  49.349  1.00  0.00     0.065 A 
HETATM   14  C19 UNL     1      25.027   5.541  48.937  1.00  0.00     0.037 A 
HETATM   15  C20 UNL     1      23.952   4.677  49.010  1.00  0.00     0.016 A 
BRANCH  13  16
HETATM   16  O1  UNL     1      27.333   6.004  49.259  1.00  0.00    -0.361 OA
HETATM   17  H18 UNL     1      27.975   6.025  48.476  1.00  0.00     0.217 HD
ENDBRANCH  13  16
ENDBRANCH   8  10
ENDBRANCH   6   8
ENDBRANCH   1   6
BRANCH   5  18
HETATM   18  N4  UNL     1      23.969   2.016  53.025  1.00  0.00    -0.351 N 
HETATM   19  H6  UNL     1      23.864   3.073  52.943  1.00  0.00     0.166 HD
BRANCH  18  20
HETATM   20  C6  UNL     1      25.123   1.246  53.427  1.00  0.00     0.090 C 
HETATM   21  C7  UNL     1      26.249   0.995  52.783  1.00  0.00     0.029 C 
BRANCH  21  22
HETATM   22  C8  UNL     1      27.474   0.255  53.049  1.00  0.00    -0.029 A 
HETATM   23  C9  UNL     1      27.403  -1.114  52.908  1.00  0.00     0.012 A 
HETATM   24  C10 UNL     1      28.506  -1.882  53.139  1.00  0.00     0.001 A 
HETATM   25  C11 UNL     1      29.653  -1.217  53.510  1.00  0.00     0.001 A 
HETATM   26  C12 UNL     1      29.794   0.127  53.668  1.00  0.00     0.007 A 
HETATM   27  C13 UNL     1      28.642   0.882  53.422  1.00  0.00    -0.052 A 
HETATM   28  C14 UNL     1      28.719   2.353  53.573  1.00  0.00     0.049 C 
ENDBRANCH  21  22
ENDBRANCH  18  20
ENDBRANCH   5  18
TORSDOF 7
ENDMDL
MODEL 4
REMARK VINA RESULT:      -8.0      1.748      5.549
REMARK  7 active torsions:
REMARK  status: ('A' for Active; 'I' for Inactive)
REMARK    1  A    between atoms: C2_2  and  N1_3 
REMARK    2  A    between atoms: C2_2  and  C15_19 
REMARK    3  A    between atoms: N1_3  and  C3_4 
REMARK    4  A    between atoms: C5_8  and  N4_9 
REMARK    5  A    between atoms: N4_9  and  C6_10 
REMARK    6  A    between atoms: C7_11  and  C8_12 
REMARK    7  A    between atoms: C18_22  and  O1_23 
ROOT
HETATM    1  C3  UNL     1      24.217   4.348  50.914  1.00  0.00     0.277 A 
HETATM    2  N2  UNL     1      24.464   5.723  50.598  1.00  0.00    -0.249 NA
HETATM    3  C4  UNL     1      24.151   5.917  49.367  1.00  0.00     0.232 A 
HETATM    4  N3  UNL     1      23.680   4.730  48.764  1.00  0.00    -0.225 NA
HETATM    5  C5  UNL     1      23.699   3.764  49.643  1.00  0.00     0.149 A 
ENDROOT
BRANCH   1   6
HETATM    6  N1  UNL     1      25.417   3.608  51.274  1.00  0.00    -0.361 N 
HETATM    7  H3  UNL     1      26.372   3.609  50.854  1.00  0.00     0.162 HD
BRANCH   6   8
HETATM    8  C2  UNL     1      25.267   2.733  52.391  1.00  0.00     0.030 C 
HETATM    9  C1  UNL     1      24.259   3.155  53.130  1.00  0.00     0.043 C 
BRANCH   8  10
HETATM   10  C15 UNL     1      26.094   1.563  52.666  1.00  0.00    -0.010 A 
HETATM   11  C16 UNL     1      26.111   0.385  51.957  1.00  0.00     0.016 A 
HETATM   12  C17 UNL     1      26.933  -0.638  52.317  1.00  0.00     0.037 A 
HETATM   13  C18 UNL     1      27.781  -0.519  53.414  1.00  0.00     0.065 A 
HETATM   14  C19 UNL     1      27.777   0.661  54.139  1.00  0.00     0.037 A 
HETATM   15  C20 UNL     1      26.933   1.685  53.754  1.00  0.00     0.016 A 
BRANCH  13  16
HETATM   16  O1  UNL     1      28.646  -1.527  53.833  1.00  0.00    -0.361 OA
HETATM   17  H18 UNL     1      29.232  -2.052  53.197  1.00  0.00     0.217 HD
ENDBRANCH  13  16
ENDBRANCH   8  10
ENDBRANCH   6   8
ENDBRANCH   1   6
BRANCH   5  18
HETATM   18  N4  UNL     1      23.283   2.410  49.363  1.00  0.00    -0.351 N 
HETATM   19  H6  UNL     1      23.881   2.011  48.577  1.00  0.00     0.166 HD
BRANCH  18  20
HETATM   20  C6  UNL     1      22.204   1.782  50.092  1.00  0.00     0.090 C 
HETATM   21  C7  UNL     1      22.234   1.018  51.170  1.00  0.00     0.029 C 
BRANCH  21  22
HETATM   22  C8  UNL     1      21.257   0.328  51.999  1.00  0.00    -0.029 A 
HETATM   23  C9  UNL     1      19.939   0.438  51.610  1.00  0.00     0.012 A 
HETATM   24  C10 UNL     1      18.961  -0.178  52.333  1.00  0.00     0.001 A 
HETATM   25  C11 UNL     1      19.367  -0.892  53.438  1.00  0.00     0.001 A 
HETATM   26  C12 UNL     1      20.647  -1.043  53.878  1.00  0.00     0.007 A 
HETATM   27  C13 UNL     1      21.622  -0.397  53.112  1.00  0.00    -0.052 A 
HETATM   28  C14 UNL     1      23.038  -0.517  53.529  1.00  0.00     0.049 C 
ENDBRANCH  21  22
ENDBRANCH  18  20
ENDBRANCH   5  18
TORSDOF 7
ENDMDL
MODEL 5
REMARK VINA RESULT:      -7.9      2.942      5.302
REMARK  7 active torsions:
REMARK  status: ('A' for Active; 'I' for Inactive)
REMARK    1  A    between atoms: C2_2  and  N1_3 
REMARK    2  A    between atoms: C2_2  and  C15_19 
REMARK    3  A    between atoms: N1_3  and  C3_4 
REMARK    4  A    between atoms: C5_8  and  N4_9 
REMARK    5  A    between atoms: N4_9  and  C6_10 
REMARK    6  A    between atoms: C7_11  and  C8_12 
REMARK    7  A    between atoms: C18_22  and  O1_23 
ROOT
HETATM    1  C3  UNL     1      21.741   3.219  52.200  1.00  0.00     0.277 A 
HETATM    2  N2  UNL     1      20.356   3.579  52.269  1.00  0.00    -0.249 NA
HETATM    3  C4  UNL     1      19.654   2.516  52.099  1.00  0.00     0.232 A 
HETATM    4  N3  UNL     1      20.474   1.383  51.908  1.00  0.00    -0.225 NA
HETATM    5  C5  UNL     1      21.728   1.747  51.959  1.00  0.00     0.149 A 
ENDROOT
BRANCH   1   6
HETATM    6  N1  UNL     1      22.448   3.834  51.088  1.00  0.00    -0.361 N 
HETATM    7  H3  UNL     1      22.231   3.855  50.068  1.00  0.00     0.162 HD
BRANCH   6   8
HETATM    8  C2  UNL     1      23.640   4.530  51.451  1.00  0.00     0.030 C 
HETATM    9  C1  UNL     1      23.510   4.985  52.682  1.00  0.00     0.043 C 
BRANCH   8  10
HETATM   10  C15 UNL     1      24.809   4.706  50.596  1.00  0.00    -0.010 A 
HETATM   11  C16 UNL     1      25.216   5.873  49.994  1.00  0.00     0.016 A 
HETATM   12  C17 UNL     1      26.331   5.908  49.214  1.00  0.00     0.037 A 
HETATM   13  C18 UNL     1      27.093   4.760  49.006  1.00  0.00     0.065 A 
HETATM   14  C19 UNL     1      26.696   3.577  49.606  1.00  0.00     0.037 A 
HETATM   15  C20 UNL     1      25.560   3.567  50.393  1.00  0.00     0.016 A 
BRANCH  13  16
HETATM   16  O1  UNL     1      28.243   4.730  48.223  1.00  0.00    -0.361 OA
HETATM   17  H18 UNL     1      28.229   4.842  47.217  1.00  0.00     0.217 HD
ENDBRANCH  13  16
ENDBRANCH   8  10
ENDBRANCH   6   8
ENDBRANCH   1   6
BRANCH   5  18
HETATM   18  N4  UNL     1      22.839   0.838  51.802  1.00  0.00    -0.351 N 
HETATM   19  H6  UNL     1      22.552   0.037  51.161  1.00  0.00     0.166 HD
BRANCH  18  20
HETATM   20  C6  UNL     1      24.105   1.066  52.461  1.00  0.00     0.090 C 
HETATM   21  C7  UNL     1      25.294   0.540  52.229  1.00  0.00     0.029 C 
BRANCH  21  22
HETATM   22  C8  UNL     1      26.630   0.667  52.793  1.00  0.00    -0.029 A 
HETATM   23  C9  UNL     1      27.043   1.944  53.106  1.00  0.00     0.012 A 
HETATM   24  C10 UNL     1      28.281   2.150  53.639  1.00  0.00     0.001 A 
HETATM   25  C11 UNL     1      29.061   1.033  53.836  1.00  0.00     0.001 A 
HETATM   26  C12 UNL     1      28.718  -0.254  53.552  1.00  0.00     0.007 A 
HETATM   27  C13 UNL     1      27.441  -0.426  53.007  1.00  0.00    -0.052 A 
HETATM   28  C14 UNL     1      26.998  -1.798  52.673  1.00  0.00     0.049 C 
ENDBRANCH  21  22
ENDBRANCH  18  20
ENDBRANCH   5  18
TORSDOF 7
ENDMDL
MODEL 6
REMARK VINA RESULT:      -7.8      3.047      5.631
REMARK  7 active torsions:
REMARK  status: ('A' for Active; 'I' for Inactive)
REMARK    1  A    between atoms: C2_2  and  N1_3 
REMARK    2  A    between atoms: C2_2  and  C15_19 
REMARK    3  A    between atoms: N1_3  and  C3_4 
REMARK    4  A    between atoms: C5_8  and  N4_9 
REMARK    5  A    between atoms: N4_9  and  C6_10 
REMARK    6  A    between atoms: C7_11  and  C8_12 
REMARK    7  A    between atoms: C18_22  and  O1_23 
ROOT
HETATM    1  C3  UNL     1      23.284   1.242  51.433  1.00  0.00     0.277 A 
HETATM    2  N2  UNL     1      21.949   1.594  51.051  1.00  0.00    -0.249 NA
HETATM    3  C4  UNL     1      22.000   2.675  50.358  1.00  0.00     0.232 A 
HETATM    4  N3  UNL     1      23.328   3.133  50.215  1.00  0.00    -0.225 NA
HETATM    5  C5  UNL     1      24.134   2.314  50.838  1.00  0.00     0.149 A 
ENDROOT
BRANCH   1   6
HETATM    6  N1  UNL     1      23.504   1.264  52.871  1.00  0.00    -0.361 N 
HETATM    7  H3  UNL     1      23.287   1.994  53.585  1.00  0.00     0.162 HD
BRANCH   6   8
HETATM    8  C2  UNL     1      24.119   0.090  53.399  1.00  0.00     0.030 C 
HETATM    9  C1  UNL     1      23.177  -0.735  53.816  1.00  0.00     0.043 C 
BRANCH   8  10
HETATM   10  C15 UNL     1      25.556  -0.155  53.464  1.00  0.00    -0.010 A 
HETATM   11  C16 UNL     1      26.268  -1.063  52.717  1.00  0.00     0.016 A 
HETATM   12  C17 UNL     1      27.613  -1.199  52.873  1.00  0.00     0.037 A 
HETATM   13  C18 UNL     1      28.307  -0.419  53.795  1.00  0.00     0.065 A 
HETATM   14  C19 UNL     1      27.604   0.501  54.556  1.00  0.00     0.037 A 
HETATM   15  C20 UNL     1      26.239   0.619  54.379  1.00  0.00     0.016 A 
BRANCH  13  16
HETATM   16  O1  UNL     1      29.680  -0.508  54.002  1.00  0.00    -0.361 OA
HETATM   17  H18 UNL     1      30.192   0.134  54.594  1.00  0.00     0.217 HD
ENDBRANCH  13  16
ENDBRANCH   8  10
ENDBRANCH   6   8
ENDBRANCH   1   6
BRANCH   5  18
HETATM   18  N4  UNL     1      25.567   2.481  50.895  1.00  0.00    -0.351 N 
HETATM   19  H6  UNL     1      26.010   1.598  51.294  1.00  0.00     0.166 HD
BRANCH  18  20
HETATM   20  C6  UNL     1      26.208   3.700  50.456  1.00  0.00     0.090 C 
HETATM   21  C7  UNL     1      26.613   4.066  49.253  1.00  0.00     0.029 C 
BRANCH  21  22
HETATM   22  C8  UNL     1      27.259   5.232  48.668  1.00  0.00    -0.029 A 
HETATM   23  C9  UNL     1      28.612   5.123  48.424  1.00  0.00     0.012 A 
HETATM   24  C10 UNL     1      29.293   6.170  47.878  1.00  0.00     0.001 A 
HETATM   25  C11 UNL     1      28.562   7.303  47.598  1.00  0.00     0.001 A 
HETATM   26  C12 UNL     1      27.229   7.478  47.811  1.00  0.00     0.007 A 
HETATM   27  C13 UNL     1      26.564   6.383  48.372  1.00  0.00    -0.052 A 
HETATM   28  C14 UNL     1      25.111   6.500  48.633  1.00  0.00     0.049 C 
ENDBRANCH  21  22
ENDBRANCH  18  20
ENDBRANCH   5  18
TORSDOF 7
ENDMDL
MODEL 7
REMARK VINA RESULT:      -7.8      2.339      3.294
REMARK  7 active torsions:
REMARK  status: ('A' for Active; 'I' for Inactive)
REMARK    1  A    between atoms: C2_2  and  N1_3 
REMARK    2  A    between atoms: C2_2  and  C15_19 
REMARK    3  A    between atoms: N1_3  and  C3_4 
REMARK    4  A    between atoms: C5_8  and  N4_9 
REMARK    5  A    between atoms: N4_9  and  C6_10 
REMARK    6  A    between atoms: C7_11  and  C8_12 
REMARK    7  A    between atoms: C18_22  and  O1_23 
ROOT
HETATM    1  C3  UNL     1      22.737   1.192  51.735  1.00  0.00     0.277 A 
HETATM    2  N2  UNL     1      22.275   1.350  50.388  1.00  0.00    -0.249 NA
HETATM    3  C4  UNL     1      22.812   2.410  49.899  1.00  0.00     0.232 A 
HETATM    4  N3  UNL     1      23.656   3.040  50.840  1.00  0.00    -0.225 NA
HETATM    5  C5  UNL     1      23.648   2.354  51.952  1.00  0.00     0.149 A 
ENDROOT
BRANCH   1   6
HETATM    6  N1  UNL     1      21.678   1.280  52.728  1.00  0.00    -0.361 N 
HETATM    7  H3  UNL     1      21.224   2.108  53.172  1.00  0.00     0.162 HD
BRANCH   6   8
HETATM    8  C2  UNL     1      21.172   0.023  53.174  1.00  0.00     0.030 C 
HETATM    9  C1  UNL     1      22.146  -0.645  53.761  1.00  0.00     0.043 C 
BRANCH   8  10
HETATM   10  C15 UNL     1      19.800  -0.444  53.005  1.00  0.00    -0.010 A 
HETATM   11  C16 UNL     1      18.846   0.095  52.175  1.00  0.00     0.016 A 
HETATM   12  C17 UNL     1      17.594  -0.434  52.108  1.00  0.00     0.037 A 
HETATM   13  C18 UNL     1      17.245  -1.540  52.878  1.00  0.00     0.065 A 
HETATM   14  C19 UNL     1      18.195  -2.097  53.719  1.00  0.00     0.037 A 
HETATM   15  C20 UNL     1      19.459  -1.540  53.770  1.00  0.00     0.016 A 
BRANCH  13  16
HETATM   16  O1  UNL     1      15.984  -2.130  52.854  1.00  0.00    -0.361 OA
HETATM   17  H18 UNL     1      15.843  -3.132  52.820  1.00  0.00     0.217 HD
ENDBRANCH  13  16
ENDBRANCH   8  10
ENDBRANCH   6   8
ENDBRANCH   1   6
BRANCH   5  18
HETATM   18  N4  UNL     1      24.403   2.715  53.128  1.00  0.00    -0.351 N 
HETATM   19  H6  UNL     1      23.833   3.393  53.721  1.00  0.00     0.166 HD
BRANCH  18  20
HETATM   20  C6  UNL     1      25.726   2.186  53.373  1.00  0.00     0.090 C 
HETATM   21  C7  UNL     1      26.239   1.004  53.082  1.00  0.00     0.029 C 
BRANCH  21  22
HETATM   22  C8  UNL     1      27.523   0.340  53.260  1.00  0.00    -0.029 A 
HETATM   23  C9  UNL     1      28.557   1.125  53.722  1.00  0.00     0.012 A 
HETATM   24  C10 UNL     1      29.792   0.580  53.917  1.00  0.00     0.001 A 
HETATM   25  C11 UNL     1      29.928  -0.759  53.629  1.00  0.00     0.001 A 
HETATM   26  C12 UNL     1      28.952  -1.591  53.172  1.00  0.00     0.007 A 
HETATM   27  C13 UNL     1      27.699  -0.998  52.985  1.00  0.00    -0.052 A 
HETATM   28  C14 UNL     1      26.588  -1.841  52.490  1.00  0.00     0.049 C 
ENDBRANCH  21  22
ENDBRANCH  18  20
ENDBRANCH   5  18
TORSDOF 7
ENDMDL
MODEL 8
REMARK VINA RESULT:      -7.5      2.557      5.381
REMARK  7 active torsions:
REMARK  status: ('A' for Active; 'I' for Inactive)
REMARK    1  A    between atoms: C2_2  and  N1_3 
REMARK    2  A    between atoms: C2_2  and  C15_19 
REMARK    3  A    between atoms: N1_3  and  C3_4 
REMARK    4  A    between atoms: C5_8  and  N4_9 
REMARK    5  A    between atoms: N4_9  and  C6_10 
REMARK    6  A    between atoms: C7_11  and  C8_12 
REMARK    7  A    between atoms: C18_22  and  O1_23 
ROOT
HETATM    1  C3  UNL     1      21.300   1.169  52.007  1.00  0.00     0.277 A 
HETATM    2  N2  UNL     1      20.099   0.387  51.992  1.00  0.00    -0.249 NA
HETATM    3  C4  UNL     1      19.096   1.188  51.934  1.00  0.00     0.232 A 
HETATM    4  N3  UNL     1      19.516   2.536  51.905  1.00  0.00    -0.225 NA
HETATM    5  C5  UNL     1      20.821   2.581  51.946  1.00  0.00     0.149 A 
ENDROOT
BRANCH   1   6
HETATM    6  N1  UNL     1      22.073   1.026  53.230  1.00  0.00    -0.361 N 
HETATM    7  H3  UNL     1      21.904   1.391  54.193  1.00  0.00     0.162 HD
BRANCH   6   8
HETATM    8  C2  UNL     1      23.266   0.255  53.095  1.00  0.00     0.030 C 
HETATM    9  C1  UNL     1      22.955  -1.026  53.155  1.00  0.00     0.043 C 
BRANCH   8  10
HETATM   10  C15 UNL     1      24.609   0.798  52.919  1.00  0.00    -0.010 A 
HETATM   11  C16 UNL     1      25.616   0.264  52.151  1.00  0.00     0.016 A 
HETATM   12  C17 UNL     1      26.832   0.869  52.069  1.00  0.00     0.037 A 
HETATM   13  C18 UNL     1      27.090   2.049  52.762  1.00  0.00     0.065 A 
HETATM   14  C19 UNL     1      26.086   2.600  53.541  1.00  0.00     0.037 A 
HETATM   15  C20 UNL     1      24.860   1.967  53.607  1.00  0.00     0.016 A 
BRANCH  13  16
HETATM   16  O1  UNL     1      28.310   2.717  52.720  1.00  0.00    -0.361 OA
HETATM   17  H18 UNL     1      28.710   3.189  53.521  1.00  0.00     0.217 HD
ENDBRANCH  13  16
ENDBRANCH   8  10
ENDBRANCH   6   8
ENDBRANCH   1   6
BRANCH   5  18
HETATM   18  N4  UNL     1      21.587   3.805  51.932  1.00  0.00    -0.351 N 
HETATM   19  H6  UNL     1      21.237   4.450  52.705  1.00  0.00     0.166 HD
BRANCH  18  20
HETATM   20  C6  UNL     1      22.645   4.027  50.973  1.00  0.00     0.090 C 
HETATM   21  C7  UNL     1      23.871   4.486  51.146  1.00  0.00     0.029 C 
BRANCH  21  22
HETATM   22  C8  UNL     1      25.023   4.760  50.299  1.00  0.00    -0.029 A 
HETATM   23  C9  UNL     1      25.807   3.676  49.964  1.00  0.00     0.012 A 
HETATM   24  C10 UNL     1      26.904   3.847  49.174  1.00  0.00     0.001 A 
HETATM   25  C11 UNL     1      27.166   5.130  48.749  1.00  0.00     0.001 A 
HETATM   26  C12 UNL     1      26.437   6.242  49.040  1.00  0.00     0.007 A 
HETATM   27  C13 UNL     1      25.318   6.029  49.852  1.00  0.00    -0.052 A 
HETATM   28  C14 UNL     1      24.476   7.193  50.210  1.00  0.00     0.049 C 
ENDBRANCH  21  22
ENDBRANCH  18  20
ENDBRANCH   5  18
TORSDOF 7
ENDMDL
MODEL 9
REMARK VINA RESULT:      -7.4      3.443      5.890
REMARK  7 active torsions:
REMARK  status: ('A' for Active; 'I' for Inactive)
REMARK    1  A    between atoms: C2_2  and  N1_3 
REMARK    2  A    between atoms: C2_2  and  C15_19 
REMARK    3  A    between atoms: N1_3  and  C3_4 
REMARK    4  A    between atoms: C5_8  and  N4_9 
REMARK    5  A    between atoms: N4_9  and  C6_10 
REMARK    6  A    between atoms: C7_11  and  C8_12 
REMARK    7  A    between atoms: C18_22  and  O1_23 
ROOT
HETATM    1  C3  UNL     1      22.823   3.027  49.802  1.00  0.00     0.277 A 
HETATM    2  N2  UNL     1      21.894   2.527  48.833  1.00  0.00    -0.249 NA
HETATM    3  C4  UNL     1      21.546   1.341  49.183  1.00  0.00     0.232 A 
HETATM    4  N3  UNL     1      22.186   0.949  50.380  1.00  0.00    -0.225 NA
HETATM    5  C5  UNL     1      22.959   1.918  50.791  1.00  0.00     0.149 A 
ENDROOT
BRANCH   1   6
HETATM    6  N1  UNL     1      24.147   3.288  49.259  1.00  0.00    -0.361 N 
HETATM    7  H3  UNL     1      24.824   2.659  48.773  1.00  0.00     0.162 HD
BRANCH   6   8
HETATM    8  C2  UNL     1      24.602   4.632  49.414  1.00  0.00     0.030 C 
HETATM    9  C1  UNL     1      23.655   5.337  50.003  1.00  0.00     0.043 C 
BRANCH   8  10
HETATM   10  C15 UNL     1      25.902   5.139  48.990  1.00  0.00    -0.010 A 
HETATM   11  C16 UNL     1      27.089   4.445  48.976  1.00  0.00     0.016 A 
HETATM   12  C17 UNL     1      28.241   5.034  48.556  1.00  0.00     0.037 A 
HETATM   13  C18 UNL     1      28.250   6.358  48.125  1.00  0.00     0.065 A 
HETATM   14  C19 UNL     1      27.062   7.071  48.132  1.00  0.00     0.037 A 
HETATM   15  C20 UNL     1      25.906   6.451  48.564  1.00  0.00     0.016 A 
BRANCH  13  16
HETATM   16  O1  UNL     1      29.393   7.018  47.682  1.00  0.00    -0.361 OA
HETATM   17  H18 UNL     1      29.727   7.880  48.094  1.00  0.00     0.217 HD
ENDBRANCH  13  16
ENDBRANCH   8  10
ENDBRANCH   6   8
ENDBRANCH   1   6
BRANCH   5  18
HETATM   18  N4  UNL     1      23.764   1.855  51.987  1.00  0.00    -0.351 N 
HETATM   19  H6  UNL     1      23.227   2.289  52.799  1.00  0.00     0.166 HD
BRANCH  18  20
HETATM   20  C6  UNL     1      25.089   1.276  51.982  1.00  0.00     0.090 C 
HETATM   21  C7  UNL     1      25.731   0.607  52.922  1.00  0.00     0.029 C 
BRANCH  21  22
HETATM   22  C8  UNL     1      27.036  -0.024  53.062  1.00  0.00    -0.029 A 
HETATM   23  C9  UNL     1      27.080  -1.387  52.865  1.00  0.00     0.012 A 
HETATM   24  C10 UNL     1      28.263  -2.055  52.977  1.00  0.00     0.001 A 
HETATM   25  C11 UNL     1      29.371  -1.299  53.290  1.00  0.00     0.001 A 
HETATM   26  C12 UNL     1      29.399   0.046  53.497  1.00  0.00     0.007 A 
HETATM   27  C13 UNL     1      28.168   0.697  53.373  1.00  0.00    -0.052 A 
HETATM   28  C14 UNL     1      28.121   2.161  53.584  1.00  0.00     0.049 C 
ENDBRANCH  21  22
ENDBRANCH  18  20
ENDBRANCH   5  18
TORSDOF 7
ENDMDL
