MODEL 1
REMARK VINA RESULT:      -7.7      0.000      0.000
REMARK  3 active torsions:
REMARK  status: ('A' for Active; 'I' for Inactive)
REMARK    1  A    between atoms: N2_5  and  C4_6 
REMARK    2  A    between atoms: C7_9  and  N3_10 
REMARK       I    between atoms: N3_10  and  C8_11 
REMARK    3  A    between atoms: C8_11  and  C9_13 
ROOT
HETATM    1  C4  UNL     1      21.051  -0.080  52.899  1.00  0.00     0.030 A 
HETATM    2  C5  UNL     1      21.821  -0.754  53.812  1.00  0.00     0.031 A 
HETATM    3  C6  UNL     1      23.170  -0.482  53.884  1.00  0.00     0.032 A 
HETATM    4  C7  UNL     1      23.817   0.428  53.098  1.00  0.00     0.034 A 
HETATM    5  C13 UNL     1      23.015   1.085  52.194  1.00  0.00     0.032 A 
HETATM    6  C14 UNL     1      21.676   0.841  52.096  1.00  0.00     0.031 A 
ENDROOT
BRANCH   4   7
HETATM    7  N3  UNL     1      25.191   0.761  53.112  1.00  0.00    -0.326 N 
HETATM    8  C8  UNL     1      26.314  -0.045  52.811  1.00  0.00     0.239 C 
HETATM    9  O1  UNL     1      26.134  -1.242  52.475  1.00  0.00    -0.272 OA
HETATM   10  H10 UNL     1      25.503   1.723  53.372  1.00  0.00     0.169 HD
BRANCH   8  11
HETATM   11  C9  UNL     1      27.720   0.385  52.851  1.00  0.00     0.194 A 
HETATM   12  C10 UNL     1      28.539  -0.743  53.353  1.00  0.00     0.014 A 
HETATM   13  C11 UNL     1      29.165  -0.426  54.464  1.00  0.00     0.088 A 
HETATM   14  N4  UNL     1      28.864   0.919  54.855  1.00  0.00    -0.336 N 
HETATM   15  C12 UNL     1      27.970   1.436  53.866  1.00  0.00     0.238 A 
HETATM   16  H14 UNL     1      29.281   1.330  55.720  1.00  0.00     0.168 HD
HETATM   17  O2  UNL     1      27.582   2.623  54.032  1.00  0.00    -0.272 OA
ENDBRANCH   8  11
ENDBRANCH   4   7
BRANCH   1  18
HETATM   18  N2  UNL     1      19.655  -0.290  52.749  1.00  0.00    -0.378 N 
HETATM   19  C3  UNL     1      18.748   0.605  52.058  1.00  0.00     0.153 C 
HETATM   20  C2  UNL     1      17.848  -0.282  51.198  1.00  0.00     0.291 C 
HETATM   21  N1  UNL     1      16.953  -0.976  52.072  1.00  0.00     0.087 N 
HETATM   22  C1  UNL     1      15.682  -0.324  52.136  1.00  0.00     0.310 C 
HETATM   23  C16 UNL     1      17.506  -1.217  53.382  1.00  0.00     0.291 C 
HETATM   24  C15 UNL     1      19.016  -1.466  53.302  1.00  0.00     0.153 C 
ENDBRANCH   1  18
TORSDOF 3
ENDMDL
MODEL 2
REMARK VINA RESULT:      -7.5      1.837      2.616
REMARK  3 active torsions:
REMARK  status: ('A' for Active; 'I' for Inactive)
REMARK    1  A    between atoms: N2_5  and  C4_6 
REMARK    2  A    between atoms: C7_9  and  N3_10 
REMARK       I    between atoms: N3_10  and  C8_11 
REMARK    3  A    between atoms: C8_11  and  C9_13 
ROOT
HETATM    1  C4  UNL     1      22.019   0.805  52.455  1.00  0.00     0.030 A 
HETATM    2  C5  UNL     1      22.159  -0.191  53.387  1.00  0.00     0.031 A 
HETATM    3  C6  UNL     1      23.426  -0.595  53.754  1.00  0.00     0.032 A 
HETATM    4  C7  UNL     1      24.579  -0.069  53.249  1.00  0.00     0.034 A 
HETATM    5  C13 UNL     1      24.402   0.928  52.317  1.00  0.00     0.032 A 
HETATM    6  C14 UNL     1      23.164   1.352  51.931  1.00  0.00     0.031 A 
ENDROOT
BRANCH   4   7
HETATM    7  N3  UNL     1      25.908  -0.429  53.572  1.00  0.00    -0.326 N 
HETATM    8  C8  UNL     1      26.835   0.226  54.416  1.00  0.00     0.239 C 
HETATM    9  O1  UNL     1      26.493   1.287  54.993  1.00  0.00    -0.272 OA
HETATM   10  H10 UNL     1      26.340  -1.290  53.169  1.00  0.00     0.169 HD
BRANCH   8  11
HETATM   11  C9  UNL     1      28.208  -0.220  54.700  1.00  0.00     0.194 A 
HETATM   12  C10 UNL     1      29.122   0.929  54.503  1.00  0.00     0.014 A 
HETATM   13  C11 UNL     1      30.009   0.684  53.565  1.00  0.00     0.088 A 
HETATM   14  N4  UNL     1      29.822  -0.625  53.014  1.00  0.00    -0.336 N 
HETATM   15  C12 UNL     1      28.710  -1.199  53.705  1.00  0.00     0.238 A 
HETATM   16  H14 UNL     1      30.445  -0.978  52.253  1.00  0.00     0.168 HD
HETATM   17  O2  UNL     1      28.381  -2.365  53.361  1.00  0.00    -0.272 OA
ENDBRANCH   8  11
ENDBRANCH   4   7
BRANCH   1  18
HETATM   18  N2  UNL     1      20.760   1.290  52.014  1.00  0.00    -0.378 N 
HETATM   19  C3  UNL     1      19.888   0.611  51.076  1.00  0.00     0.153 C 
HETATM   20  C2  UNL     1      18.477   0.715  51.654  1.00  0.00     0.291 C 
HETATM   21  N1  UNL     1      18.045   2.071  51.514  1.00  0.00     0.087 N 
HETATM   22  C1  UNL     1      17.221   2.235  50.358  1.00  0.00     0.310 C 
HETATM   23  C16 UNL     1      19.129   3.022  51.549  1.00  0.00     0.291 C 
HETATM   24  C15 UNL     1      20.239   2.553  52.494  1.00  0.00     0.153 C 
ENDBRANCH   1  18
TORSDOF 3
ENDMDL
MODEL 3
REMARK VINA RESULT:      -7.2      5.305      6.698
REMARK  3 active torsions:
REMARK  status: ('A' for Active; 'I' for Inactive)
REMARK    1  A    between atoms: N2_5  and  C4_6 
REMARK    2  A    between atoms: C7_9  and  N3_10 
REMARK       I    between atoms: N3_10  and  C8_11 
REMARK    3  A    between atoms: C8_11  and  C9_13 
ROOT
HETATM    1  C4  UNL     1      24.926   4.454  49.661  1.00  0.00     0.030 A 
HETATM    2  C5  UNL     1      26.154   3.919  49.369  1.00  0.00     0.031 A 
HETATM    3  C6  UNL     1      26.706   2.992  50.229  1.00  0.00     0.032 A 
HETATM    4  C7  UNL     1      26.111   2.556  51.377  1.00  0.00     0.034 A 
HETATM    5  C13 UNL     1      24.880   3.113  51.640  1.00  0.00     0.032 A 
HETATM    6  C14 UNL     1      24.305   4.031  50.811  1.00  0.00     0.031 A 
ENDROOT
BRANCH   4   7
HETATM    7  N3  UNL     1      26.610   1.614  52.306  1.00  0.00    -0.326 N 
HETATM    8  C8  UNL     1      27.799   1.650  53.071  1.00  0.00     0.239 C 
HETATM    9  O1  UNL     1      28.569   2.635  52.957  1.00  0.00    -0.272 OA
HETATM   10  H10 UNL     1      26.081   0.737  52.511  1.00  0.00     0.169 HD
BRANCH   8  11
HETATM   11  C9  UNL     1      28.245   0.620  54.021  1.00  0.00     0.194 A 
HETATM   12  C10 UNL     1      29.647   0.264  53.700  1.00  0.00     0.014 A 
HETATM   13  C11 UNL     1      29.761  -1.006  53.384  1.00  0.00     0.088 A 
HETATM   14  N4  UNL     1      28.491  -1.665  53.447  1.00  0.00    -0.336 N 
HETATM   15  C12 UNL     1      27.540  -0.672  53.839  1.00  0.00     0.238 A 
HETATM   16  H14 UNL     1      28.405  -2.682  53.223  1.00  0.00     0.168 HD
HETATM   17  O2  UNL     1      26.346  -1.057  53.953  1.00  0.00    -0.272 OA
ENDBRANCH   8  11
ENDBRANCH   4   7
BRANCH   1  18
HETATM   18  N2  UNL     1      24.277   5.412  48.840  1.00  0.00    -0.378 N 
HETATM   19  C3  UNL     1      22.993   5.223  48.194  1.00  0.00     0.153 C 
HETATM   20  C2  UNL     1      22.212   6.519  48.411  1.00  0.00     0.291 C 
HETATM   21  N1  UNL     1      22.800   7.527  47.586  1.00  0.00     0.087 N 
HETATM   22  C1  UNL     1      22.073   7.688  46.366  1.00  0.00     0.310 C 
HETATM   23  C16 UNL     1      24.210   7.327  47.355  1.00  0.00     0.291 C 
HETATM   24  C15 UNL     1      24.882   6.702  48.582  1.00  0.00     0.153 C 
ENDBRANCH   1  18
TORSDOF 3
ENDMDL
MODEL 4
REMARK VINA RESULT:      -7.2      5.864      8.113
REMARK  3 active torsions:
REMARK  status: ('A' for Active; 'I' for Inactive)
REMARK    1  A    between atoms: N2_5  and  C4_6 
REMARK    2  A    between atoms: C7_9  and  N3_10 
REMARK       I    between atoms: N3_10  and  C8_11 
REMARK    3  A    between atoms: C8_11  and  C9_13 
ROOT
HETATM    1  C4  UNL     1      25.600   5.581  49.227  1.00  0.00     0.030 A 
HETATM    2  C5  UNL     1      24.699   5.231  50.199  1.00  0.00     0.031 A 
HETATM    3  C6  UNL     1      24.872   4.045  50.880  1.00  0.00     0.032 A 
HETATM    4  C7  UNL     1      25.894   3.169  50.656  1.00  0.00     0.034 A 
HETATM    5  C13 UNL     1      26.779   3.551  49.674  1.00  0.00     0.032 A 
HETATM    6  C14 UNL     1      26.639   4.718  48.981  1.00  0.00     0.031 A 
ENDROOT
BRANCH   4   7
HETATM    7  N3  UNL     1      26.138   1.939  51.308  1.00  0.00    -0.326 N 
HETATM    8  C8  UNL     1      27.170   1.589  52.210  1.00  0.00     0.239 C 
HETATM    9  O1  UNL     1      28.030   2.452  52.519  1.00  0.00    -0.272 OA
HETATM   10  H10 UNL     1      25.509   1.120  51.154  1.00  0.00     0.169 HD
BRANCH   8  11
HETATM   11  C9  UNL     1      27.351   0.276  52.848  1.00  0.00     0.194 A 
HETATM   12  C10 UNL     1      26.065  -0.456  52.783  1.00  0.00     0.014 A 
HETATM   13  C11 UNL     1      25.614  -0.743  53.983  1.00  0.00     0.088 A 
HETATM   14  N4  UNL     1      26.504  -0.259  54.995  1.00  0.00    -0.336 N 
HETATM   15  C12 UNL     1      27.586   0.376  54.309  1.00  0.00     0.238 A 
HETATM   16  H14 UNL     1      26.292  -0.403  56.007  1.00  0.00     0.168 HD
HETATM   17  O2  UNL     1      28.489   0.874  55.032  1.00  0.00    -0.272 OA
ENDBRANCH   8  11
ENDBRANCH   4   7
BRANCH   1  18
HETATM   18  N2  UNL     1      25.508   6.780  48.473  1.00  0.00    -0.378 N 
HETATM   19  C3  UNL     1      24.296   7.549  48.274  1.00  0.00     0.153 C 
HETATM   20  C2  UNL     1      24.684   9.014  48.472  1.00  0.00     0.291 C 
HETATM   21  N1  UNL     1      25.464   9.417  47.343  1.00  0.00     0.087 N 
HETATM   22  C1  UNL     1      24.665  10.108  46.380  1.00  0.00     0.310 C 
HETATM   23  C16 UNL     1      26.214   8.336  46.752  1.00  0.00     0.291 C 
HETATM   24  C15 UNL     1      26.674   7.340  47.821  1.00  0.00     0.153 C 
ENDBRANCH   1  18
TORSDOF 3
ENDMDL
MODEL 5
REMARK VINA RESULT:      -7.2      1.654      2.283
REMARK  3 active torsions:
REMARK  status: ('A' for Active; 'I' for Inactive)
REMARK    1  A    between atoms: N2_5  and  C4_6 
REMARK    2  A    between atoms: C7_9  and  N3_10 
REMARK       I    between atoms: N3_10  and  C8_11 
REMARK    3  A    between atoms: C8_11  and  C9_13 
ROOT
HETATM    1  C4  UNL     1      19.725  -0.052  52.326  1.00  0.00     0.030 A 
HETATM    2  C5  UNL     1      20.659   0.256  51.370  1.00  0.00     0.031 A 
HETATM    3  C6  UNL     1      21.989   0.323  51.727  1.00  0.00     0.032 A 
HETATM    4  C7  UNL     1      22.461   0.103  52.988  1.00  0.00     0.034 A 
HETATM    5  C13 UNL     1      21.498  -0.203  53.922  1.00  0.00     0.032 A 
HETATM    6  C14 UNL     1      20.174  -0.279  53.604  1.00  0.00     0.031 A 
ENDROOT
BRANCH   4   7
HETATM    7  N3  UNL     1      23.803   0.154  53.431  1.00  0.00    -0.326 N 
HETATM    8  C8  UNL     1      24.711   1.238  53.423  1.00  0.00     0.239 C 
HETATM    9  O1  UNL     1      24.335   2.347  52.969  1.00  0.00    -0.272 OA
HETATM   10  H10 UNL     1      24.263  -0.692  53.835  1.00  0.00     0.169 HD
BRANCH   8  11
HETATM   11  C9  UNL     1      26.100   1.204  53.906  1.00  0.00     0.194 A 
HETATM   12  C10 UNL     1      26.999   1.065  52.736  1.00  0.00     0.014 A 
HETATM   13  C11 UNL     1      27.711  -0.036  52.805  1.00  0.00     0.088 A 
HETATM   14  N4  UNL     1      27.403  -0.773  53.994  1.00  0.00    -0.336 N 
HETATM   15  C12 UNL     1      26.406  -0.018  54.688  1.00  0.00     0.238 A 
HETATM   16  H14 UNL     1      27.882  -1.677  54.202  1.00  0.00     0.168 HD
HETATM   17  O2  UNL     1      25.995  -0.504  55.775  1.00  0.00    -0.272 OA
ENDBRANCH   8  11
ENDBRANCH   4   7
BRANCH   1  18
HETATM   18  N2  UNL     1      18.335  -0.145  52.057  1.00  0.00    -0.378 N 
HETATM   19  C3  UNL     1      17.612   0.678  51.109  1.00  0.00     0.153 C 
HETATM   20  C2  UNL     1      16.695  -0.269  50.335  1.00  0.00     0.291 C 
HETATM   21  N1  UNL     1      15.645  -0.678  51.215  1.00  0.00     0.087 N 
HETATM   22  C1  UNL     1      14.462   0.098  51.006  1.00  0.00     0.310 C 
HETATM   23  C16 UNL     1      16.039  -0.704  52.602  1.00  0.00     0.291 C 
HETATM   24  C15 UNL     1      17.508  -1.115  52.746  1.00  0.00     0.153 C 
ENDBRANCH   1  18
TORSDOF 3
ENDMDL
MODEL 6
REMARK VINA RESULT:      -7.1      2.895      8.642
REMARK  3 active torsions:
REMARK  status: ('A' for Active; 'I' for Inactive)
REMARK    1  A    between atoms: N2_5  and  C4_6 
REMARK    2  A    between atoms: C7_9  and  N3_10 
REMARK       I    between atoms: N3_10  and  C8_11 
REMARK    3  A    between atoms: C8_11  and  C9_13 
ROOT
HETATM    1  C4  UNL     1      24.511   0.407  53.003  1.00  0.00     0.030 A 
HETATM    2  C5  UNL     1      23.576  -0.350  53.661  1.00  0.00     0.031 A 
HETATM    3  C6  UNL     1      22.258  -0.288  53.261  1.00  0.00     0.032 A 
HETATM    4  C7  UNL     1      21.799   0.490  52.238  1.00  0.00     0.034 A 
HETATM    5  C13 UNL     1      22.762   1.237  51.600  1.00  0.00     0.032 A 
HETATM    6  C14 UNL     1      24.075   1.199  51.969  1.00  0.00     0.031 A 
ENDROOT
BRANCH   4   7
HETATM    7  N3  UNL     1      20.469   0.608  51.771  1.00  0.00    -0.326 N 
HETATM    8  C8  UNL     1      19.533   1.647  51.981  1.00  0.00     0.239 C 
HETATM    9  O1  UNL     1      19.866   2.639  52.675  1.00  0.00    -0.272 OA
HETATM   10  H10 UNL     1      20.044  -0.139  51.178  1.00  0.00     0.169 HD
BRANCH   8  11
HETATM   11  C9  UNL     1      18.160   1.691  51.454  1.00  0.00     0.194 A 
HETATM   12  C10 UNL     1      17.645   0.304  51.375  1.00  0.00     0.014 A 
HETATM   13  C11 UNL     1      17.335  -0.025  50.141  1.00  0.00     0.088 A 
HETATM   14  N4  UNL     1      17.591   1.061  49.243  1.00  0.00    -0.336 N 
HETATM   15  C12 UNL     1      18.102   2.132  50.040  1.00  0.00     0.238 A 
HETATM   16  H14 UNL     1      17.399   0.965  48.220  1.00  0.00     0.168 HD
HETATM   17  O2  UNL     1      18.393   3.194  49.427  1.00  0.00    -0.272 OA
ENDBRANCH   8  11
ENDBRANCH   4   7
BRANCH   1  18
HETATM   18  N2  UNL     1      25.890   0.411  53.340  1.00  0.00    -0.378 N 
HETATM   19  C3  UNL     1      26.980   0.436  52.386  1.00  0.00     0.153 C 
HETATM   20  C2  UNL     1      27.987   1.456  52.917  1.00  0.00     0.291 C 
HETATM   21  N1  UNL     1      28.625   0.886  54.062  1.00  0.00     0.087 N 
HETATM   22  C1  UNL     1      29.890   0.315  53.721  1.00  0.00     0.310 C 
HETATM   23  C16 UNL     1      27.787  -0.043  54.780  1.00  0.00     0.291 C 
HETATM   24  C15 UNL     1      26.318   0.389  54.723  1.00  0.00     0.153 C 
ENDBRANCH   1  18
TORSDOF 3
ENDMDL
MODEL 7
REMARK VINA RESULT:      -7.1      4.716      5.840
REMARK  3 active torsions:
REMARK  status: ('A' for Active; 'I' for Inactive)
REMARK    1  A    between atoms: N2_5  and  C4_6 
REMARK    2  A    between atoms: C7_9  and  N3_10 
REMARK       I    between atoms: N3_10  and  C8_11 
REMARK    3  A    between atoms: C8_11  and  C9_13 
ROOT
HETATM    1  C4  UNL     1      23.889   4.285  50.876  1.00  0.00     0.030 A 
HETATM    2  C5  UNL     1      24.992   3.808  50.216  1.00  0.00     0.031 A 
HETATM    3  C6  UNL     1      25.753   2.820  50.805  1.00  0.00     0.032 A 
HETATM    4  C7  UNL     1      25.489   2.268  52.024  1.00  0.00     0.034 A 
HETATM    5  C13 UNL     1      24.376   2.769  52.659  1.00  0.00     0.032 A 
HETATM    6  C14 UNL     1      23.600   3.746  52.105  1.00  0.00     0.031 A 
ENDROOT
BRANCH   4   7
HETATM    7  N3  UNL     1      26.218   1.257  52.692  1.00  0.00    -0.326 N 
HETATM    8  C8  UNL     1      27.228   1.378  53.674  1.00  0.00     0.239 C 
HETATM    9  O1  UNL     1      27.577   2.523  54.053  1.00  0.00    -0.272 OA
HETATM   10  H10 UNL     1      26.042   0.249  52.485  1.00  0.00     0.169 HD
BRANCH   8  11
HETATM   11  C9  UNL     1      27.940   0.266  54.322  1.00  0.00     0.194 A 
HETATM   12  C10 UNL     1      29.395   0.538  54.251  1.00  0.00     0.014 A 
HETATM   13  C11 UNL     1      30.028  -0.400  53.582  1.00  0.00     0.088 A 
HETATM   14  N4  UNL     1      29.116  -1.404  53.122  1.00  0.00    -0.336 N 
HETATM   15  C12 UNL     1      27.818  -1.007  53.572  1.00  0.00     0.238 A 
HETATM   16  H14 UNL     1      29.458  -2.223  52.571  1.00  0.00     0.168 HD
HETATM   17  O2  UNL     1      26.864  -1.771  53.265  1.00  0.00    -0.272 OA
ENDBRANCH   8  11
ENDBRANCH   4   7
BRANCH   1  18
HETATM   18  N2  UNL     1      23.044   5.299  50.353  1.00  0.00    -0.378 N 
HETATM   19  C3  UNL     1      21.812   5.755  50.966  1.00  0.00     0.153 C 
HETATM   20  C2  UNL     1      21.834   7.281  50.883  1.00  0.00     0.291 C 
HETATM   21  N1  UNL     1      21.626   7.648  49.516  1.00  0.00     0.087 N 
HETATM   22  C1  UNL     1      20.259   7.990  49.275  1.00  0.00     0.310 C 
HETATM   23  C16 UNL     1      22.114   6.666  48.580  1.00  0.00     0.291 C 
HETATM   24  C15 UNL     1      23.373   5.976  49.116  1.00  0.00     0.153 C 
ENDBRANCH   1  18
TORSDOF 3
ENDMDL
MODEL 8
REMARK VINA RESULT:      -7.0      8.113      9.870
REMARK  3 active torsions:
REMARK  status: ('A' for Active; 'I' for Inactive)
REMARK    1  A    between atoms: N2_5  and  C4_6 
REMARK    2  A    between atoms: C7_9  and  N3_10 
REMARK       I    between atoms: N3_10  and  C8_11 
REMARK    3  A    between atoms: C8_11  and  C9_13 
ROOT
HETATM    1  C4  UNL     1      27.039   6.929  48.903  1.00  0.00     0.030 A 
HETATM    2  C5  UNL     1      27.935   7.942  48.677  1.00  0.00     0.031 A 
HETATM    3  C6  UNL     1      29.187   7.635  48.186  1.00  0.00     0.032 A 
HETATM    4  C7  UNL     1      29.616   6.372  47.902  1.00  0.00     0.034 A 
HETATM    5  C13 UNL     1      28.693   5.379  48.141  1.00  0.00     0.032 A 
HETATM    6  C14 UNL     1      27.446   5.646  48.625  1.00  0.00     0.031 A 
ENDROOT
BRANCH   4   7
HETATM    7  N3  UNL     1      30.877   5.979  47.400  1.00  0.00    -0.326 N 
HETATM    8  C8  UNL     1      31.979   5.412  48.082  1.00  0.00     0.239 C 
HETATM    9  O1  UNL     1      31.890   5.201  49.317  1.00  0.00    -0.272 OA
HETATM   10  H10 UNL     1      31.106   6.091  46.387  1.00  0.00     0.169 HD
BRANCH   8  11
HETATM   11  C9  UNL     1      33.265   5.030  47.478  1.00  0.00     0.194 A 
HETATM   12  C10 UNL     1      33.289   3.557  47.324  1.00  0.00     0.014 A 
HETATM   13  C11 UNL     1      34.274   3.018  48.006  1.00  0.00     0.088 A 
HETATM   14  N4  UNL     1      35.029   4.021  48.696  1.00  0.00    -0.336 N 
HETATM   15  C12 UNL     1      34.417   5.274  48.380  1.00  0.00     0.238 A 
HETATM   16  H14 UNL     1      35.849   3.760  49.287  1.00  0.00     0.168 HD
HETATM   17  O2  UNL     1      34.941   6.296  48.897  1.00  0.00    -0.272 OA
ENDBRANCH   8  11
ENDBRANCH   4   7
BRANCH   1  18
HETATM   18  N2  UNL     1      25.729   7.142  49.405  1.00  0.00    -0.378 N 
HETATM   19  C3  UNL     1      24.826   6.099  49.848  1.00  0.00     0.153 C 
HETATM   20  C2  UNL     1      24.209   6.596  51.155  1.00  0.00     0.291 C 
HETATM   21  N1  UNL     1      23.294   7.647  50.835  1.00  0.00     0.087 N 
HETATM   22  C1  UNL     1      21.950   7.164  50.775  1.00  0.00     0.310 C 
HETATM   23  C16 UNL     1      23.660   8.382  49.649  1.00  0.00     0.291 C 
HETATM   24  C15 UNL     1      25.183   8.479  49.514  1.00  0.00     0.153 C 
ENDBRANCH   1  18
TORSDOF 3
ENDMDL
MODEL 9
REMARK VINA RESULT:      -6.9      6.147      7.227
REMARK  3 active torsions:
REMARK  status: ('A' for Active; 'I' for Inactive)
REMARK    1  A    between atoms: N2_5  and  C4_6 
REMARK    2  A    between atoms: C7_9  and  N3_10 
REMARK       I    between atoms: N3_10  and  C8_11 
REMARK    3  A    between atoms: C8_11  and  C9_13 
ROOT
HETATM    1  C4  UNL     1      24.470   3.711  49.408  1.00  0.00     0.030 A 
HETATM    2  C5  UNL     1      25.726   3.226  49.667  1.00  0.00     0.031 A 
HETATM    3  C6  UNL     1      26.818   4.045  49.467  1.00  0.00     0.032 A 
HETATM    4  C7  UNL     1      26.744   5.332  49.019  1.00  0.00     0.034 A 
HETATM    5  C13 UNL     1      25.470   5.787  48.769  1.00  0.00     0.032 A 
HETATM    6  C14 UNL     1      24.368   5.004  48.956  1.00  0.00     0.031 A 
ENDROOT
BRANCH   4   7
HETATM    7  N3  UNL     1      27.811   6.231  48.790  1.00  0.00    -0.326 N 
HETATM    8  C8  UNL     1      29.107   5.976  48.284  1.00  0.00     0.239 C 
HETATM    9  O1  UNL     1      29.421   4.800  47.974  1.00  0.00    -0.272 OA
HETATM   10  H10 UNL     1      27.706   7.248  49.000  1.00  0.00     0.169 HD
BRANCH   8  11
HETATM   11  C9  UNL     1      30.165   6.976  48.076  1.00  0.00     0.194 A 
HETATM   12  C10 UNL     1      31.407   6.483  48.715  1.00  0.00     0.014 A 
HETATM   13  C11 UNL     1      31.822   7.301  49.656  1.00  0.00     0.088 A 
HETATM   14  N4  UNL     1      30.944   8.426  49.781  1.00  0.00    -0.336 N 
HETATM   15  C12 UNL     1      29.911   8.240  48.809  1.00  0.00     0.238 A 
HETATM   16  H14 UNL     1      31.129   9.173  50.486  1.00  0.00     0.168 HD
HETATM   17  O2  UNL     1      29.026   9.136  48.758  1.00  0.00    -0.272 OA
ENDBRANCH   8  11
ENDBRANCH   4   7
BRANCH   1  18
HETATM   18  N2  UNL     1      23.287   2.947  49.582  1.00  0.00    -0.378 N 
HETATM   19  C3  UNL     1      22.679   2.632  50.859  1.00  0.00     0.153 C 
HETATM   20  C2  UNL     1      21.178   2.861  50.684  1.00  0.00     0.291 C 
HETATM   21  N1  UNL     1      20.668   1.809  49.859  1.00  0.00     0.087 N 
HETATM   22  C1  UNL     1      20.078   0.773  50.647  1.00  0.00     0.310 C 
HETATM   23  C16 UNL     1      21.639   1.295  48.925  1.00  0.00     0.291 C 
HETATM   24  C15 UNL     1      22.576   2.406  48.442  1.00  0.00     0.153 C 
ENDBRANCH   1  18
TORSDOF 3
ENDMDL
