MODEL 1
REMARK VINA RESULT:      -9.7      0.000      0.000
REMARK  5 active torsions:
REMARK  status: ('A' for Active; 'I' for Inactive)
REMARK    1  A    between atoms: C5_5  and  N1_6 
REMARK    2  A    between atoms: C5_5  and  C6_7 
REMARK    3  A    between atoms: C11_14  and  N4_15 
REMARK    4  A    between atoms: N4_15  and  C12_16 
REMARK    5  A    between atoms: N5_29  and  O1_30 
ROOT
HETATM    1  C6  UNL     1      21.393   0.841  51.991  1.00  0.00    -0.019 A 
HETATM    2  C7  UNL     1      20.372   0.359  52.783  1.00  0.00     0.012 A 
HETATM    3  C8  UNL     1      20.692  -0.365  53.912  1.00  0.00     0.033 A 
HETATM    4  C9  UNL     1      22.005  -0.593  54.226  1.00  0.00     0.072 A 
HETATM    5  N2  UNL     1      22.213  -1.307  55.342  1.00  0.00    -0.241 NA
HETATM    6  C10 UNL     1      23.477  -1.571  55.716  1.00  0.00     0.236 A 
HETATM    7  N3  UNL     1      24.487  -1.117  54.969  1.00  0.00    -0.224 NA
HETATM    8  C11 UNL     1      24.376  -0.403  53.847  1.00  0.00     0.142 A 
HETATM    9  C18 UNL     1      23.073  -0.141  53.479  1.00  0.00     0.039 A 
HETATM   10  C19 UNL     1      22.696   0.576  52.364  1.00  0.00     0.027 A 
ENDROOT
BRANCH   1  11
HETATM   11  C5  UNL     1      21.118   1.632  50.764  1.00  0.00     0.186 C 
HETATM   12  C4  UNL     1      20.593   2.978  51.123  1.00  0.00     0.079 C 
HETATM   13  C2  UNL     1      20.448   3.926  49.984  1.00  0.00     0.050 C 
HETATM   14  C1  UNL     1      19.004   3.874  49.516  1.00  0.00     0.040 C 
HETATM   15  C3  UNL     1      20.677   5.354  50.448  1.00  0.00     0.040 C 
HETATM   16  N5  UNL     1      21.265   3.699  48.858  1.00  0.00    -0.278 N 
HETATM   17  C21 UNL     1      22.322   2.789  48.890  1.00  0.00     0.050 C 
HETATM   18  C20 UNL     1      22.349   1.722  49.902  1.00  0.00     0.079 C 
HETATM   19  C22 UNL     1      22.442   2.182  47.488  1.00  0.00     0.040 C 
HETATM   20  C23 UNL     1      23.617   3.601  49.052  1.00  0.00     0.040 C 
BRANCH  16  21
HETATM   21  O1  UNL     1      20.736   3.969  47.661  1.00  0.00    -0.291 OA
HETATM   22  H28 UNL     1      21.522   4.113  47.048  1.00  0.00     0.244 HD
ENDBRANCH  16  21
BRANCH  11  23
HETATM   23  N1  UNL     1      20.064   0.979  49.969  1.00  0.00     0.092 N 
HETATM   24  H9  UNL     1      19.191   1.527  49.924  1.00  0.00     0.314 HD
HETATM   25  H10 UNL     1      19.941   0.008  50.322  1.00  0.00     0.314 HD
ENDBRANCH  11  23
ENDBRANCH   1  11
BRANCH   8  26
HETATM   26  N4  UNL     1      25.427   0.089  53.040  1.00  0.00    -0.340 N 
HETATM   27  H14 UNL     1      25.252   0.608  52.180  1.00  0.00     0.167 HD
BRANCH  26  28
HETATM   28  C12 UNL     1      26.818  -0.046  53.271  1.00  0.00     0.035 A 
HETATM   29  C13 UNL     1      27.514  -1.199  52.997  1.00  0.00     0.029 A 
HETATM   30  C14 UNL     1      28.865  -1.333  53.214  1.00  0.00     0.004 A 
HETATM   31  C15 UNL     1      29.609  -0.297  53.730  1.00  0.00     0.024 A 
HETATM   32  C16 UNL     1      28.960   0.876  54.020  1.00  0.00     0.036 A 
HETATM   33 CL1  UNL     1      29.820   2.246  54.677  1.00  0.00    -0.084 Cl
HETATM   34  C17 UNL     1      27.609   0.956  53.784  1.00  0.00     0.053 A 
ENDBRANCH  26  28
ENDBRANCH   8  26
TORSDOF 5
ENDMDL
MODEL 2
REMARK VINA RESULT:      -9.4      1.069      1.502
REMARK  5 active torsions:
REMARK  status: ('A' for Active; 'I' for Inactive)
REMARK    1  A    between atoms: C5_5  and  N1_6 
REMARK    2  A    between atoms: C5_5  and  C6_7 
REMARK    3  A    between atoms: C11_14  and  N4_15 
REMARK    4  A    between atoms: N4_15  and  C12_16 
REMARK    5  A    between atoms: N5_29  and  O1_30 
ROOT
HETATM    1  C6  UNL     1      21.516   1.806  52.133  1.00  0.00    -0.019 A 
HETATM    2  C7  UNL     1      20.447   1.480  52.941  1.00  0.00     0.012 A 
HETATM    3  C8  UNL     1      20.638   0.575  53.963  1.00  0.00     0.033 A 
HETATM    4  C9  UNL     1      21.874   0.019  54.159  1.00  0.00     0.072 A 
HETATM    5  N2  UNL     1      21.957  -0.849  55.178  1.00  0.00    -0.241 NA
HETATM    6  C10 UNL     1      23.140  -1.435  55.433  1.00  0.00     0.236 A 
HETATM    7  N3  UNL     1      24.195  -1.139  54.668  1.00  0.00    -0.224 NA
HETATM    8  C11 UNL     1      24.204  -0.292  53.637  1.00  0.00     0.142 A 
HETATM    9  C18 UNL     1      22.983   0.300  53.390  1.00  0.00     0.039 A 
HETATM   10  C19 UNL     1      22.736   1.210  52.385  1.00  0.00     0.027 A 
ENDROOT
BRANCH   1  11
HETATM   11  C5  UNL     1      21.379   2.777  51.018  1.00  0.00     0.186 C 
HETATM   12  C4  UNL     1      22.550   3.696  50.984  1.00  0.00     0.079 C 
HETATM   13  C2  UNL     1      22.615   4.598  49.801  1.00  0.00     0.050 C 
HETATM   14  C1  UNL     1      22.020   5.936  50.204  1.00  0.00     0.040 C 
HETATM   15  C3  UNL     1      24.058   4.887  49.430  1.00  0.00     0.040 C 
HETATM   16  N5  UNL     1      21.944   4.172  48.637  1.00  0.00    -0.278 N 
HETATM   17  C21 UNL     1      21.449   2.874  48.510  1.00  0.00     0.050 C 
HETATM   18  C20 UNL     1      21.193   2.058  49.707  1.00  0.00     0.079 C 
HETATM   19  C22 UNL     1      20.181   2.952  47.652  1.00  0.00     0.040 C 
HETATM   20  C23 UNL     1      22.440   2.093  47.632  1.00  0.00     0.040 C 
BRANCH  16  21
HETATM   21  O1  UNL     1      21.362   5.116  47.892  1.00  0.00    -0.291 OA
HETATM   22  H28 UNL     1      21.344   4.744  46.956  1.00  0.00     0.244 HD
ENDBRANCH  16  21
BRANCH  11  23
HETATM   23  N1  UNL     1      20.196   3.627  51.231  1.00  0.00     0.092 N 
HETATM   24  H9  UNL     1      19.538   3.241  51.925  1.00  0.00     0.314 HD
HETATM   25  H10 UNL     1      19.769   3.833  50.305  1.00  0.00     0.314 HD
ENDBRANCH  11  23
ENDBRANCH   1  11
BRANCH   8  26
HETATM   26  N4  UNL     1      25.304   0.039  52.813  1.00  0.00    -0.340 N 
HETATM   27  H14 UNL     1      25.183   0.433  51.881  1.00  0.00     0.167 HD
BRANCH  26  28
HETATM   28  C12 UNL     1      26.678  -0.110  53.122  1.00  0.00     0.035 A 
HETATM   29  C13 UNL     1      27.373  -1.277  52.906  1.00  0.00     0.029 A 
HETATM   30  C14 UNL     1      28.708  -1.424  53.198  1.00  0.00     0.004 A 
HETATM   31  C15 UNL     1      29.438  -0.389  53.736  1.00  0.00     0.024 A 
HETATM   32  C16 UNL     1      28.790   0.798  53.970  1.00  0.00     0.036 A 
HETATM   33 CL1  UNL     1      29.633   2.168  54.648  1.00  0.00    -0.084 Cl
HETATM   34  C17 UNL     1      27.455   0.891  53.659  1.00  0.00     0.053 A 
ENDBRANCH  26  28
ENDBRANCH   8  26
TORSDOF 5
ENDMDL
MODEL 3
REMARK VINA RESULT:      -9.0      5.310      7.582
REMARK  5 active torsions:
REMARK  status: ('A' for Active; 'I' for Inactive)
REMARK    1  A    between atoms: C5_5  and  N1_6 
REMARK    2  A    between atoms: C5_5  and  C6_7 
REMARK    3  A    between atoms: C11_14  and  N4_15 
REMARK    4  A    between atoms: N4_15  and  C12_16 
REMARK    5  A    between atoms: N5_29  and  O1_30 
ROOT
HETATM    1  C6  UNL     1      26.156   6.269  48.752  1.00  0.00    -0.019 A 
HETATM    2  C7  UNL     1      24.912   6.447  48.184  1.00  0.00     0.012 A 
HETATM    3  C8  UNL     1      23.910   5.550  48.485  1.00  0.00     0.033 A 
HETATM    4  C9  UNL     1      24.162   4.506  49.335  1.00  0.00     0.072 A 
HETATM    5  N2  UNL     1      23.124   3.690  49.565  1.00  0.00    -0.241 NA
HETATM    6  C10 UNL     1      23.294   2.643  50.390  1.00  0.00     0.236 A 
HETATM    7  N3  UNL     1      24.487   2.444  50.956  1.00  0.00    -0.224 NA
HETATM    8  C11 UNL     1      25.574   3.201  50.785  1.00  0.00     0.142 A 
HETATM    9  C18 UNL     1      25.380   4.270  49.936  1.00  0.00     0.039 A 
HETATM   10  C19 UNL     1      26.344   5.197  49.600  1.00  0.00     0.027 A 
ENDROOT
BRANCH   1  11
HETATM   11  C5  UNL     1      27.278   7.201  48.472  1.00  0.00     0.186 C 
HETATM   12  C4  UNL     1      28.546   6.444  48.281  1.00  0.00     0.079 C 
HETATM   13  C2  UNL     1      29.706   7.254  47.818  1.00  0.00     0.050 C 
HETATM   14  C1  UNL     1      30.526   7.631  49.039  1.00  0.00     0.040 C 
HETATM   15  C3  UNL     1      30.627   6.417  46.949  1.00  0.00     0.040 C 
HETATM   16  N5  UNL     1      29.414   8.445  47.122  1.00  0.00    -0.278 N 
HETATM   17  C21 UNL     1      28.125   8.736  46.675  1.00  0.00     0.050 C 
HETATM   18  C20 UNL     1      26.962   8.074  47.286  1.00  0.00     0.079 C 
HETATM   19  C22 UNL     1      27.953  10.257  46.741  1.00  0.00     0.040 C 
HETATM   20  C23 UNL     1      28.084   8.425  45.170  1.00  0.00     0.040 C 
BRANCH  16  21
HETATM   21  O1  UNL     1      30.232   9.481  47.325  1.00  0.00    -0.291 OA
HETATM   22  H28 UNL     1      30.032  10.129  46.580  1.00  0.00     0.244 HD
ENDBRANCH  16  21
BRANCH  11  23
HETATM   23  N1  UNL     1      27.500   8.085  49.629  1.00  0.00     0.092 N 
HETATM   24  H9  UNL     1      26.664   8.195  50.223  1.00  0.00     0.314 HD
HETATM   25  H10 UNL     1      27.900   8.982  49.285  1.00  0.00     0.314 HD
ENDBRANCH  11  23
ENDBRANCH   1  11
BRANCH   8  26
HETATM   26  N4  UNL     1      26.846   3.014  51.371  1.00  0.00    -0.340 N 
HETATM   27  H14 UNL     1      27.615   3.665  51.217  1.00  0.00     0.167 HD
BRANCH  26  28
HETATM   28  C12 UNL     1      27.249   1.954  52.220  1.00  0.00     0.035 A 
HETATM   29  C13 UNL     1      28.006   2.147  53.351  1.00  0.00     0.029 A 
HETATM   30  C14 UNL     1      28.395   1.123  54.182  1.00  0.00     0.004 A 
HETATM   31  C15 UNL     1      28.039  -0.181  53.920  1.00  0.00     0.024 A 
HETATM   32  C16 UNL     1      27.282  -0.426  52.802  1.00  0.00     0.036 A 
HETATM   33 CL1  UNL     1      26.782  -2.046  52.388  1.00  0.00    -0.084 Cl
HETATM   34  C17 UNL     1      26.922   0.635  52.006  1.00  0.00     0.053 A 
ENDBRANCH  26  28
ENDBRANCH   8  26
TORSDOF 5
ENDMDL
MODEL 4
REMARK VINA RESULT:      -8.9      3.426      7.978
REMARK  5 active torsions:
REMARK  status: ('A' for Active; 'I' for Inactive)
REMARK    1  A    between atoms: C5_5  and  N1_6 
REMARK    2  A    between atoms: C5_5  and  C6_7 
REMARK    3  A    between atoms: C11_14  and  N4_15 
REMARK    4  A    between atoms: N4_15  and  C12_16 
REMARK    5  A    between atoms: N5_29  and  O1_30 
ROOT
HETATM    1  C6  UNL     1      25.872   2.868  51.484  1.00  0.00    -0.019 A 
HETATM    2  C7  UNL     1      26.758   3.272  50.506  1.00  0.00     0.012 A 
HETATM    3  C8  UNL     1      26.302   4.085  49.491  1.00  0.00     0.033 A 
HETATM    4  C9  UNL     1      24.989   4.475  49.468  1.00  0.00     0.072 A 
HETATM    5  N2  UNL     1      24.643   5.264  48.441  1.00  0.00    -0.241 NA
HETATM    6  C10 UNL     1      23.371   5.688  48.351  1.00  0.00     0.236 A 
HETATM    7  N3  UNL     1      22.489   5.314  49.283  1.00  0.00    -0.224 NA
HETATM    8  C11 UNL     1      22.743   4.533  50.335  1.00  0.00     0.142 A 
HETATM    9  C18 UNL     1      24.052   4.107  50.412  1.00  0.00     0.039 A 
HETATM   10  C19 UNL     1      24.563   3.296  51.402  1.00  0.00     0.027 A 
ENDROOT
BRANCH   1  11
HETATM   11  C5  UNL     1      26.300   1.995  52.607  1.00  0.00     0.186 C 
HETATM   12  C4  UNL     1      25.849   0.596  52.377  1.00  0.00     0.079 C 
HETATM   13  C2  UNL     1      26.371  -0.407  53.346  1.00  0.00     0.050 C 
HETATM   14  C1  UNL     1      25.314  -0.614  54.417  1.00  0.00     0.040 C 
HETATM   15  C3  UNL     1      26.544  -1.757  52.674  1.00  0.00     0.040 C 
HETATM   16  N5  UNL     1      27.579  -0.091  54.001  1.00  0.00    -0.278 N 
HETATM   17  C21 UNL     1      28.373   0.982  53.597  1.00  0.00     0.050 C 
HETATM   18  C20 UNL     1      27.791   2.078  52.807  1.00  0.00     0.079 C 
HETATM   19  C22 UNL     1      29.048   1.547  54.852  1.00  0.00     0.040 C 
HETATM   20  C23 UNL     1      29.539   0.404  52.780  1.00  0.00     0.040 C 
BRANCH  16  21
HETATM   21  O1  UNL     1      27.703  -0.491  55.270  1.00  0.00    -0.291 OA
HETATM   22  H28 UNL     1      28.395  -1.223  55.252  1.00  0.00     0.244 HD
ENDBRANCH  16  21
BRANCH  11  23
HETATM   23  N1  UNL     1      25.658   2.433  53.858  1.00  0.00     0.092 N 
HETATM   24  H9  UNL     1      25.556   1.674  54.549  1.00  0.00     0.314 HD
HETATM   25  H10 UNL     1      24.768   2.915  53.619  1.00  0.00     0.314 HD
ENDBRANCH  11  23
ENDBRANCH   1  11
BRANCH   8  26
HETATM   26  N4  UNL     1      21.831   4.123  51.334  1.00  0.00    -0.340 N 
HETATM   27  H14 UNL     1      21.508   4.754  52.065  1.00  0.00     0.167 HD
BRANCH  26  28
HETATM   28  C12 UNL     1      21.244   2.842  51.481  1.00  0.00     0.035 A 
HETATM   29  C13 UNL     1      20.627   2.177  50.448  1.00  0.00     0.029 A 
HETATM   30  C14 UNL     1      20.062   0.932  50.584  1.00  0.00     0.004 A 
HETATM   31  C15 UNL     1      20.082   0.268  51.790  1.00  0.00     0.024 A 
HETATM   32  C16 UNL     1      20.687   0.890  52.853  1.00  0.00     0.036 A 
HETATM   33 CL1  UNL     1      20.763   0.127  54.421  1.00  0.00    -0.084 Cl
HETATM   34  C17 UNL     1      21.236   2.135  52.662  1.00  0.00     0.053 A 
ENDBRANCH  26  28
ENDBRANCH   8  26
TORSDOF 5
ENDMDL
MODEL 5
REMARK VINA RESULT:      -8.8      3.145      4.866
REMARK  5 active torsions:
REMARK  status: ('A' for Active; 'I' for Inactive)
REMARK    1  A    between atoms: C5_5  and  N1_6 
REMARK    2  A    between atoms: C5_5  and  C6_7 
REMARK    3  A    between atoms: C11_14  and  N4_15 
REMARK    4  A    between atoms: N4_15  and  C12_16 
REMARK    5  A    between atoms: N5_29  and  O1_30 
ROOT
HETATM    1  C6  UNL     1      22.808   1.657  51.269  1.00  0.00    -0.019 A 
HETATM    2  C7  UNL     1      22.747   1.145  52.549  1.00  0.00     0.012 A 
HETATM    3  C8  UNL     1      23.898   1.111  53.306  1.00  0.00     0.033 A 
HETATM    4  C9  UNL     1      25.073   1.580  52.782  1.00  0.00     0.072 A 
HETATM    5  N2  UNL     1      26.135   1.503  53.596  1.00  0.00    -0.241 NA
HETATM    6  C10 UNL     1      27.324   1.945  53.152  1.00  0.00     0.236 A 
HETATM    7  N3  UNL     1      27.415   2.446  51.917  1.00  0.00    -0.224 NA
HETATM    8  C11 UNL     1      26.416   2.560  51.040  1.00  0.00     0.142 A 
HETATM    9  C18 UNL     1      25.204   2.102  51.513  1.00  0.00     0.039 A 
HETATM   10  C19 UNL     1      24.023   2.113  50.801  1.00  0.00     0.027 A 
ENDROOT
BRANCH   1  11
HETATM   11  C5  UNL     1      21.604   1.726  50.402  1.00  0.00     0.186 C 
HETATM   12  C4  UNL     1      20.372   1.815  51.233  1.00  0.00     0.079 C 
HETATM   13  C2  UNL     1      19.114   2.070  50.478  1.00  0.00     0.050 C 
HETATM   14  C1  UNL     1      18.435   0.733  50.240  1.00  0.00     0.040 C 
HETATM   15  C3  UNL     1      18.143   2.879  51.319  1.00  0.00     0.040 C 
HETATM   16  N5  UNL     1      19.240   2.708  49.227  1.00  0.00    -0.278 N 
HETATM   17  C21 UNL     1      20.441   3.288  48.817  1.00  0.00     0.050 C 
HETATM   18  C20 UNL     1      21.711   2.875  49.434  1.00  0.00     0.079 C 
HETATM   19  C22 UNL     1      20.526   3.132  47.295  1.00  0.00     0.040 C 
HETATM   20  C23 UNL     1      20.308   4.805  49.025  1.00  0.00     0.040 C 
BRANCH  16  21
HETATM   21  O1  UNL     1      18.393   2.330  48.266  1.00  0.00    -0.291 OA
HETATM   22  H28 UNL     1      17.562   2.881  48.411  1.00  0.00     0.244 HD
ENDBRANCH  16  21
BRANCH  11  23
HETATM   23  N1  UNL     1      21.478   0.489  49.613  1.00  0.00     0.092 N 
HETATM   24  H9  UNL     1      22.387   0.074  49.360  1.00  0.00     0.314 HD
HETATM   25  H10 UNL     1      20.855   0.680  48.802  1.00  0.00     0.314 HD
ENDBRANCH  11  23
ENDBRANCH   1  11
BRANCH   8  26
HETATM   26  N4  UNL     1      26.485   3.085  49.729  1.00  0.00    -0.340 N 
HETATM   27  H14 UNL     1      26.406   2.493  48.904  1.00  0.00     0.167 HD
BRANCH  26  28
HETATM   28  C12 UNL     1      26.664   4.441  49.360  1.00  0.00     0.035 A 
HETATM   29  C13 UNL     1      27.723   4.877  48.599  1.00  0.00     0.029 A 
HETATM   30  C14 UNL     1      27.898   6.190  48.234  1.00  0.00     0.004 A 
HETATM   31  C15 UNL     1      27.003   7.162  48.619  1.00  0.00     0.024 A 
HETATM   32  C16 UNL     1      25.928   6.778  49.380  1.00  0.00     0.036 A 
HETATM   33 CL1  UNL     1      24.740   7.939  49.916  1.00  0.00    -0.084 Cl
HETATM   34  C17 UNL     1      25.801   5.452  49.718  1.00  0.00     0.053 A 
ENDBRANCH  26  28
ENDBRANCH   8  26
TORSDOF 5
ENDMDL
MODEL 6
REMARK VINA RESULT:      -8.8      5.956      8.356
REMARK  5 active torsions:
REMARK  status: ('A' for Active; 'I' for Inactive)
REMARK    1  A    between atoms: C5_5  and  N1_6 
REMARK    2  A    between atoms: C5_5  and  C6_7 
REMARK    3  A    between atoms: C11_14  and  N4_15 
REMARK    4  A    between atoms: N4_15  and  C12_16 
REMARK    5  A    between atoms: N5_29  and  O1_30 
ROOT
HETATM    1  C6  UNL     1      27.137   6.740  48.216  1.00  0.00    -0.019 A 
HETATM    2  C7  UNL     1      25.998   7.358  47.745  1.00  0.00     0.012 A 
HETATM    3  C8  UNL     1      24.768   6.869  48.132  1.00  0.00     0.033 A 
HETATM    4  C9  UNL     1      24.697   5.788  48.969  1.00  0.00     0.072 A 
HETATM    5  N2  UNL     1      23.458   5.388  49.286  1.00  0.00    -0.241 NA
HETATM    6  C10 UNL     1      23.307   4.333  50.105  1.00  0.00     0.236 A 
HETATM    7  N3  UNL     1      24.392   3.713  50.578  1.00  0.00    -0.224 NA
HETATM    8  C11 UNL     1      25.659   4.039  50.316  1.00  0.00     0.142 A 
HETATM    9  C18 UNL     1      25.795   5.124  49.475  1.00  0.00     0.039 A 
HETATM   10  C19 UNL     1      26.996   5.654  49.057  1.00  0.00     0.027 A 
ENDROOT
BRANCH   1  11
HETATM   11  C5  UNL     1      28.493   7.219  47.842  1.00  0.00     0.186 C 
HETATM   12  C4  UNL     1      28.834   8.452  48.602  1.00  0.00     0.079 C 
HETATM   13  C2  UNL     1      30.237   8.926  48.446  1.00  0.00     0.050 C 
HETATM   14  C1  UNL     1      30.248  10.004  47.376  1.00  0.00     0.040 C 
HETATM   15  C3  UNL     1      30.714   9.606  49.716  1.00  0.00     0.040 C 
HETATM   16  N5  UNL     1      31.199   7.961  48.082  1.00  0.00    -0.278 N 
HETATM   17  C21 UNL     1      30.911   6.597  48.101  1.00  0.00     0.050 C 
HETATM   18  C20 UNL     1      29.516   6.132  48.048  1.00  0.00     0.079 C 
HETATM   19  C22 UNL     1      31.720   5.945  46.974  1.00  0.00     0.040 C 
HETATM   20  C23 UNL     1      31.533   6.018  49.382  1.00  0.00     0.040 C 
BRANCH  16  21
HETATM   21  O1  UNL     1      32.182   8.361  47.271  1.00  0.00    -0.291 OA
HETATM   22  H28 UNL     1      32.431   9.284  47.588  1.00  0.00     0.244 HD
ENDBRANCH  16  21
BRANCH  11  23
HETATM   23  N1  UNL     1      28.520   7.593  46.418  1.00  0.00     0.092 N 
HETATM   24  H9  UNL     1      29.135   8.397  46.221  1.00  0.00     0.314 HD
HETATM   25  H10 UNL     1      27.540   7.716  46.092  1.00  0.00     0.314 HD
ENDBRANCH  11  23
ENDBRANCH   1  11
BRANCH   8  26
HETATM   26  N4  UNL     1      26.823   3.401  50.803  1.00  0.00    -0.340 N 
HETATM   27  H14 UNL     1      27.759   3.731  50.570  1.00  0.00     0.167 HD
BRANCH  26  28
HETATM   28  C12 UNL     1      26.886   2.265  51.646  1.00  0.00     0.035 A 
HETATM   29  C13 UNL     1      26.075   1.167  51.485  1.00  0.00     0.029 A 
HETATM   30  C14 UNL     1      26.136   0.059  52.297  1.00  0.00     0.004 A 
HETATM   31  C15 UNL     1      27.033  -0.012  53.339  1.00  0.00     0.024 A 
HETATM   32  C16 UNL     1      27.866   1.059  53.540  1.00  0.00     0.036 A 
HETATM   33 CL1  UNL     1      29.036   1.061  54.835  1.00  0.00    -0.084 Cl
HETATM   34  C17 UNL     1      27.762   2.141  52.700  1.00  0.00     0.053 A 
ENDBRANCH  26  28
ENDBRANCH   8  26
TORSDOF 5
ENDMDL
MODEL 7
REMARK VINA RESULT:      -8.8      3.527      6.158
REMARK  5 active torsions:
REMARK  status: ('A' for Active; 'I' for Inactive)
REMARK    1  A    between atoms: C5_5  and  N1_6 
REMARK    2  A    between atoms: C5_5  and  C6_7 
REMARK    3  A    between atoms: C11_14  and  N4_15 
REMARK    4  A    between atoms: N4_15  and  C12_16 
REMARK    5  A    between atoms: N5_29  and  O1_30 
ROOT
HETATM    1  C6  UNL     1      25.014   3.514  51.088  1.00  0.00    -0.019 A 
HETATM    2  C7  UNL     1      26.287   3.069  50.798  1.00  0.00     0.012 A 
HETATM    3  C8  UNL     1      26.678   1.829  51.256  1.00  0.00     0.033 A 
HETATM    4  C9  UNL     1      25.806   1.065  51.984  1.00  0.00     0.072 A 
HETATM    5  N2  UNL     1      26.280  -0.124  52.383  1.00  0.00    -0.241 NA
HETATM    6  C10 UNL     1      25.481  -0.931  53.103  1.00  0.00     0.236 A 
HETATM    7  N3  UNL     1      24.242  -0.528  53.399  1.00  0.00    -0.224 NA
HETATM    8  C11 UNL     1      23.688   0.634  53.047  1.00  0.00     0.142 A 
HETATM    9  C18 UNL     1      24.522   1.448  52.309  1.00  0.00     0.039 A 
HETATM   10  C19 UNL     1      24.184   2.695  51.827  1.00  0.00     0.027 A 
ENDROOT
BRANCH   1  11
HETATM   11  C5  UNL     1      24.529   4.838  50.622  1.00  0.00     0.186 C 
HETATM   12  C4  UNL     1      25.606   5.554  49.885  1.00  0.00     0.079 C 
HETATM   13  C2  UNL     1      25.185   6.815  49.214  1.00  0.00     0.050 C 
HETATM   14  C1  UNL     1      25.532   7.971  50.138  1.00  0.00     0.040 C 
HETATM   15  C3  UNL     1      25.996   7.043  47.951  1.00  0.00     0.040 C 
HETATM   16  N5  UNL     1      23.820   6.936  48.882  1.00  0.00    -0.278 N 
HETATM   17  C21 UNL     1      22.950   5.848  48.952  1.00  0.00     0.050 C 
HETATM   18  C20 UNL     1      23.284   4.684  49.787  1.00  0.00     0.079 C 
HETATM   19  C22 UNL     1      21.572   6.392  49.344  1.00  0.00     0.040 C 
HETATM   20  C23 UNL     1      22.748   5.334  47.518  1.00  0.00     0.040 C 
BRANCH  16  21
HETATM   21  O1  UNL     1      23.277   8.152  48.983  1.00  0.00    -0.291 OA
HETATM   22  H28 UNL     1      22.497   8.150  48.345  1.00  0.00     0.244 HD
ENDBRANCH  16  21
BRANCH  11  23
HETATM   23  N1  UNL     1      24.189   5.686  51.777  1.00  0.00     0.092 N 
HETATM   24  H9  UNL     1      24.742   5.467  52.619  1.00  0.00     0.314 HD
HETATM   25  H10 UNL     1      23.159   5.647  51.921  1.00  0.00     0.314 HD
ENDBRANCH  11  23
ENDBRANCH   1  11
BRANCH   8  26
HETATM   26  N4  UNL     1      22.382   1.084  53.347  1.00  0.00    -0.340 N 
HETATM   27  H14 UNL     1      22.196   1.739  54.105  1.00  0.00     0.167 HD
BRANCH  26  28
HETATM   28  C12 UNL     1      21.182   0.725  52.686  1.00  0.00     0.035 A 
HETATM   29  C13 UNL     1      20.888   1.116  51.401  1.00  0.00     0.029 A 
HETATM   30  C14 UNL     1      19.727   0.765  50.754  1.00  0.00     0.004 A 
HETATM   31  C15 UNL     1      18.774  -0.013  51.372  1.00  0.00     0.024 A 
HETATM   32  C16 UNL     1      19.021  -0.430  52.655  1.00  0.00     0.036 A 
HETATM   33 CL1  UNL     1      17.873  -1.421  53.519  1.00  0.00    -0.084 Cl
HETATM   34  C17 UNL     1      20.197  -0.050  53.255  1.00  0.00     0.053 A 
ENDBRANCH  26  28
ENDBRANCH   8  26
TORSDOF 5
ENDMDL
MODEL 8
REMARK VINA RESULT:      -8.7      1.341      1.648
REMARK  5 active torsions:
REMARK  status: ('A' for Active; 'I' for Inactive)
REMARK    1  A    between atoms: C5_5  and  N1_6 
REMARK    2  A    between atoms: C5_5  and  C6_7 
REMARK    3  A    between atoms: C11_14  and  N4_15 
REMARK    4  A    between atoms: N4_15  and  C12_16 
REMARK    5  A    between atoms: N5_29  and  O1_30 
ROOT
HETATM    1  C6  UNL     1      20.772   1.095  51.191  1.00  0.00    -0.019 A 
HETATM    2  C7  UNL     1      19.700   0.383  51.687  1.00  0.00     0.012 A 
HETATM    3  C8  UNL     1      19.894  -0.437  52.779  1.00  0.00     0.033 A 
HETATM    4  C9  UNL     1      21.136  -0.531  53.348  1.00  0.00     0.072 A 
HETATM    5  N2  UNL     1      21.223  -1.353  54.403  1.00  0.00    -0.241 NA
HETATM    6  C10 UNL     1      22.411  -1.497  55.015  1.00  0.00     0.236 A 
HETATM    7  N3  UNL     1      23.468  -0.820  54.558  1.00  0.00    -0.224 NA
HETATM    8  C11 UNL     1      23.476   0.016  53.518  1.00  0.00     0.142 A 
HETATM    9  C18 UNL     1      22.249   0.152  52.902  1.00  0.00     0.039 A 
HETATM   10  C19 UNL     1      21.997   0.955  51.811  1.00  0.00     0.027 A 
ENDROOT
BRANCH   1  11
HETATM   11  C5  UNL     1      20.629   1.998  50.021  1.00  0.00     0.186 C 
HETATM   12  C4  UNL     1      20.131   3.332  50.454  1.00  0.00     0.079 C 
HETATM   13  C2  UNL     1      20.118   4.380  49.396  1.00  0.00     0.050 C 
HETATM   14  C1  UNL     1      18.717   4.435  48.814  1.00  0.00     0.040 C 
HETATM   15  C3  UNL     1      20.366   5.750  50.000  1.00  0.00     0.040 C 
HETATM   16  N5  UNL     1      21.015   4.210  48.321  1.00  0.00    -0.278 N 
HETATM   17  C21 UNL     1      22.028   3.252  48.355  1.00  0.00     0.050 C 
HETATM   18  C20 UNL     1      21.930   2.103  49.268  1.00  0.00     0.079 C 
HETATM   19  C22 UNL     1      22.239   2.761  46.919  1.00  0.00     0.040 C 
HETATM   20  C23 UNL     1      23.337   3.985  48.689  1.00  0.00     0.040 C 
BRANCH  16  21
HETATM   21  O1  UNL     1      20.597   4.605  47.115  1.00  0.00    -0.291 OA
HETATM   22  H28 UNL     1      21.420   4.946  46.646  1.00  0.00     0.244 HD
ENDBRANCH  16  21
BRANCH  11  23
HETATM   23  N1  UNL     1      19.619   1.465  49.092  1.00  0.00     0.092 N 
HETATM   24  H9  UNL     1      18.717   1.963  49.143  1.00  0.00     0.314 HD
HETATM   25  H10 UNL     1      19.548   0.437  49.238  1.00  0.00     0.314 HD
ENDBRANCH  11  23
ENDBRANCH   1  11
BRANCH   8  26
HETATM   26  N4  UNL     1      24.578   0.743  53.014  1.00  0.00    -0.340 N 
HETATM   27  H14 UNL     1      24.460   1.583  52.448  1.00  0.00     0.167 HD
BRANCH  26  28
HETATM   28  C12 UNL     1      25.951   0.450  53.197  1.00  0.00     0.035 A 
HETATM   29  C13 UNL     1      26.867   1.383  53.623  1.00  0.00     0.029 A 
HETATM   30  C14 UNL     1      28.199   1.102  53.807  1.00  0.00     0.004 A 
HETATM   31  C15 UNL     1      28.701  -0.158  53.570  1.00  0.00     0.024 A 
HETATM   32  C16 UNL     1      27.827  -1.125  53.144  1.00  0.00     0.036 A 
HETATM   33 CL1  UNL     1      28.370  -2.752  52.818  1.00  0.00    -0.084 Cl
HETATM   34  C17 UNL     1      26.505  -0.790  52.975  1.00  0.00     0.053 A 
ENDBRANCH  26  28
ENDBRANCH   8  26
TORSDOF 5
ENDMDL
MODEL 9
REMARK VINA RESULT:      -8.7      7.255     10.339
REMARK  5 active torsions:
REMARK  status: ('A' for Active; 'I' for Inactive)
REMARK    1  A    between atoms: C5_5  and  N1_6 
REMARK    2  A    between atoms: C5_5  and  C6_7 
REMARK    3  A    between atoms: C11_14  and  N4_15 
REMARK    4  A    between atoms: N4_15  and  C12_16 
REMARK    5  A    between atoms: N5_29  and  O1_30 
ROOT
HETATM    1  C6  UNL     1      29.668   6.414  47.883  1.00  0.00    -0.019 A 
HETATM    2  C7  UNL     1      29.224   7.533  47.212  1.00  0.00     0.012 A 
HETATM    3  C8  UNL     1      27.873   7.809  47.200  1.00  0.00     0.033 A 
HETATM    4  C9  UNL     1      27.002   6.975  47.848  1.00  0.00     0.072 A 
HETATM    5  N2  UNL     1      25.711   7.329  47.778  1.00  0.00    -0.241 NA
HETATM    6  C10 UNL     1      24.795   6.559  48.392  1.00  0.00     0.236 A 
HETATM    7  N3  UNL     1      25.194   5.468  49.051  1.00  0.00    -0.224 NA
HETATM    8  C11 UNL     1      26.452   5.040  49.172  1.00  0.00     0.142 A 
HETATM    9  C18 UNL     1      27.378   5.841  48.537  1.00  0.00     0.039 A 
HETATM   10  C19 UNL     1      28.737   5.615  48.517  1.00  0.00     0.027 A 
ENDROOT
BRANCH   1  11
HETATM   11  C5  UNL     1      31.110   6.062  47.938  1.00  0.00     0.186 C 
HETATM   12  C4  UNL     1      31.400   4.922  47.026  1.00  0.00     0.079 C 
HETATM   13  C2  UNL     1      32.843   4.594  46.859  1.00  0.00     0.050 C 
HETATM   14  C1  UNL     1      33.175   3.459  47.812  1.00  0.00     0.040 C 
HETATM   15  C3  UNL     1      33.107   4.050  45.467  1.00  0.00     0.040 C 
HETATM   16  N5  UNL     1      33.765   5.632  47.102  1.00  0.00    -0.278 N 
HETATM   17  C21 UNL     1      33.354   6.956  47.255  1.00  0.00     0.050 C 
HETATM   18  C20 UNL     1      31.963   7.263  47.624  1.00  0.00     0.079 C 
HETATM   19  C22 UNL     1      34.314   7.620  48.248  1.00  0.00     0.040 C 
HETATM   20  C23 UNL     1      33.640   7.678  45.928  1.00  0.00     0.040 C 
BRANCH  16  21
HETATM   21  O1  UNL     1      34.927   5.291  47.665  1.00  0.00    -0.291 OA
HETATM   22  H28 UNL     1      34.798   4.347  47.993  1.00  0.00     0.244 HD
ENDBRANCH  16  21
BRANCH  11  23
HETATM   23  N1  UNL     1      31.466   5.604  49.292  1.00  0.00     0.092 N 
HETATM   24  H9  UNL     1      30.653   5.523  49.921  1.00  0.00     0.314 HD
HETATM   25  H10 UNL     1      32.228   6.214  49.655  1.00  0.00     0.314 HD
ENDBRANCH  11  23
ENDBRANCH   1  11
BRANCH   8  26
HETATM   26  N4  UNL     1      26.901   3.891  49.863  1.00  0.00    -0.340 N 
HETATM   27  H14 UNL     1      27.875   3.593  49.841  1.00  0.00     0.167 HD
BRANCH  26  28
HETATM   28  C12 UNL     1      26.124   3.012  50.655  1.00  0.00     0.035 A 
HETATM   29  C13 UNL     1      24.799   3.240  50.948  1.00  0.00     0.029 A 
HETATM   30  C14 UNL     1      24.039   2.387  51.711  1.00  0.00     0.004 A 
HETATM   31  C15 UNL     1      24.575   1.233  52.237  1.00  0.00     0.024 A 
HETATM   32  C16 UNL     1      25.892   0.960  51.973  1.00  0.00     0.036 A 
HETATM   33 CL1  UNL     1      26.659  -0.480  52.596  1.00  0.00    -0.084 Cl
HETATM   34  C17 UNL     1      26.607   1.847  51.204  1.00  0.00     0.053 A 
ENDBRANCH  26  28
ENDBRANCH   8  26
TORSDOF 5
ENDMDL
