MODEL 1
REMARK VINA RESULT:      -8.2      0.000      0.000
REMARK  8 active torsions:
REMARK  status: ('A' for Active; 'I' for Inactive)
REMARK    1  A    between atoms: N1_1  and  C1_2 
REMARK    2  A    between atoms: C1_2  and  C2_3 
REMARK    3  A    between atoms: C2_3  and  C3_4 
REMARK    4  A    between atoms: C5_6  and  O1_7 
REMARK    5  A    between atoms: O1_7  and  C6_8 
REMARK    6  A    between atoms: C6_8  and  C7_9 
REMARK       I    between atoms: C7_9  and  N2_11 
REMARK    7  A    between atoms: N2_11  and  S1_12 
REMARK    8  A    between atoms: S1_12  and  C8_15 
ROOT
HETATM    1  C6  UNL     1      25.551   3.129  50.063  1.00  0.00     0.279 C 
ENDROOT
BRANCH   1   2
HETATM    2  O1  UNL     1      26.722   3.457  49.357  1.00  0.00    -0.342 OA
BRANCH   2   3
HETATM    3  C5  UNL     1      26.991   4.725  48.881  1.00  0.00     0.065 A 
HETATM    4  C4  UNL     1      28.321   5.170  48.502  1.00  0.00     0.039 A 
HETATM    5  C3  UNL     1      28.467   6.408  48.057  1.00  0.00    -0.075 A 
HETATM    6  C16 UNL     1      27.515   7.522  47.847  1.00  0.00     0.038 A 
HETATM    7  C15 UNL     1      26.137   7.053  48.240  1.00  0.00     0.034 A 
HETATM    8  C14 UNL     1      26.079   5.665  48.720  1.00  0.00     0.010 A 
BRANCH   5   9
HETATM    9  C2  UNL     1      29.791   6.921  47.656  1.00  0.00     0.064 C 
BRANCH   9  10
HETATM   10  C1  UNL     1      30.891   6.696  48.634  1.00  0.00     0.271 C 
BRANCH  10  11
HETATM   11  N1  UNL     1      30.866   7.837  49.567  1.00  0.00     0.078 N 
HETATM   12  H1  UNL     1      30.885   7.553  50.551  1.00  0.00     0.312 HD
HETATM   13  H2  UNL     1      30.163   8.542  49.293  1.00  0.00     0.312 HD
ENDBRANCH  10  11
ENDBRANCH   9  10
ENDBRANCH   5   9
ENDBRANCH   2   3
ENDBRANCH   1   2
BRANCH   1  14
HETATM   14  C7  UNL     1      25.926   2.507  51.381  1.00  0.00     0.255 C 
HETATM   15  O2  UNL     1      25.070   1.801  52.003  1.00  0.00    -0.270 OA
HETATM   16  N2  UNL     1      27.194   2.677  51.959  1.00  0.00    -0.248 N 
HETATM   17  H10 UNL     1      27.893   3.256  51.449  1.00  0.00     0.182 HD
BRANCH  16  18
HETATM   18  S1  UNL     1      27.539   1.928  53.474  1.00  0.00     0.265 S 
HETATM   19  O3  UNL     1      26.352   2.032  54.394  1.00  0.00    -0.200 OA
HETATM   20  O4  UNL     1      28.674   2.653  54.183  1.00  0.00    -0.200 OA
BRANCH  18  21
HETATM   21  C8  UNL     1      27.970   0.242  53.297  1.00  0.00     0.079 A 
HETATM   22  C9  UNL     1      27.096  -0.744  52.872  1.00  0.00     0.025 A 
HETATM   23  C10 UNL     1      27.564  -2.035  52.776  1.00  0.00     0.002 A 
HETATM   24  C11 UNL     1      28.845  -2.424  53.074  1.00  0.00     0.000 A 
HETATM   25  C12 UNL     1      29.713  -1.434  53.499  1.00  0.00     0.002 A 
HETATM   26  C13 UNL     1      29.267  -0.129  53.603  1.00  0.00     0.025 A 
ENDBRANCH  18  21
ENDBRANCH  16  18
ENDBRANCH   1  14
TORSDOF 8
ENDMDL
MODEL 2
REMARK VINA RESULT:      -8.0      1.087      1.996
REMARK  8 active torsions:
REMARK  status: ('A' for Active; 'I' for Inactive)
REMARK    1  A    between atoms: N1_1  and  C1_2 
REMARK    2  A    between atoms: C1_2  and  C2_3 
REMARK    3  A    between atoms: C2_3  and  C3_4 
REMARK    4  A    between atoms: C5_6  and  O1_7 
REMARK    5  A    between atoms: O1_7  and  C6_8 
REMARK    6  A    between atoms: C6_8  and  C7_9 
REMARK       I    between atoms: C7_9  and  N2_11 
REMARK    7  A    between atoms: N2_11  and  S1_12 
REMARK    8  A    between atoms: S1_12  and  C8_15 
ROOT
HETATM    1  C6  UNL     1      25.425   3.250  50.119  1.00  0.00     0.279 C 
ENDROOT
BRANCH   1   2
HETATM    2  O1  UNL     1      26.567   3.424  49.319  1.00  0.00    -0.342 OA
BRANCH   2   3
HETATM    3  C5  UNL     1      27.029   4.661  48.915  1.00  0.00     0.065 A 
HETATM    4  C4  UNL     1      26.219   5.866  48.955  1.00  0.00     0.039 A 
HETATM    5  C3  UNL     1      26.761   7.002  48.542  1.00  0.00    -0.075 A 
HETATM    6  C16 UNL     1      28.098   7.344  48.010  1.00  0.00     0.038 A 
HETATM    7  C15 UNL     1      28.934   6.091  47.974  1.00  0.00     0.034 A 
HETATM    8  C14 UNL     1      28.244   4.884  48.452  1.00  0.00     0.010 A 
BRANCH   5   9
HETATM    9  C2  UNL     1      25.991   8.261  48.558  1.00  0.00     0.064 C 
BRANCH   9  10
HETATM   10  C1  UNL     1      25.674   8.803  49.908  1.00  0.00     0.271 C 
BRANCH  10  11
HETATM   11  N1  UNL     1      26.883   8.623  50.730  1.00  0.00     0.078 N 
HETATM   12  H1  UNL     1      26.718   8.067  51.575  1.00  0.00     0.312 HD
HETATM   13  H2  UNL     1      27.408   9.506  50.842  1.00  0.00     0.312 HD
ENDBRANCH  10  11
ENDBRANCH   9  10
ENDBRANCH   5   9
ENDBRANCH   2   3
ENDBRANCH   1   2
BRANCH   1  14
HETATM   14  C7  UNL     1      25.823   2.608  51.421  1.00  0.00     0.255 C 
HETATM   15  O2  UNL     1      24.964   1.933  52.072  1.00  0.00    -0.270 OA
HETATM   16  N2  UNL     1      27.118   2.726  51.951  1.00  0.00    -0.248 N 
HETATM   17  H10 UNL     1      27.819   3.280  51.416  1.00  0.00     0.182 HD
BRANCH  16  18
HETATM   18  S1  UNL     1      27.490   1.958  53.450  1.00  0.00     0.265 S 
HETATM   19  O3  UNL     1      26.335   2.087  54.406  1.00  0.00    -0.200 OA
HETATM   20  O4  UNL     1      28.665   2.648  54.128  1.00  0.00    -0.200 OA
BRANCH  18  21
HETATM   21  C8  UNL     1      27.871   0.262  53.250  1.00  0.00     0.079 A 
HETATM   22  C9  UNL     1      26.981  -0.683  52.770  1.00  0.00     0.025 A 
HETATM   23  C10 UNL     1      27.409  -1.987  52.660  1.00  0.00     0.002 A 
HETATM   24  C11 UNL     1      28.665  -2.426  52.996  1.00  0.00     0.000 A 
HETATM   25  C12 UNL     1      29.549  -1.476  53.475  1.00  0.00     0.002 A 
HETATM   26  C13 UNL     1      29.143  -0.159  53.593  1.00  0.00     0.025 A 
ENDBRANCH  18  21
ENDBRANCH  16  18
ENDBRANCH   1  14
TORSDOF 8
ENDMDL
MODEL 3
REMARK VINA RESULT:      -7.8      4.338      7.018
REMARK  8 active torsions:
REMARK  status: ('A' for Active; 'I' for Inactive)
REMARK    1  A    between atoms: N1_1  and  C1_2 
REMARK    2  A    between atoms: C1_2  and  C2_3 
REMARK    3  A    between atoms: C2_3  and  C3_4 
REMARK    4  A    between atoms: C5_6  and  O1_7 
REMARK    5  A    between atoms: O1_7  and  C6_8 
REMARK    6  A    between atoms: C6_8  and  C7_9 
REMARK       I    between atoms: C7_9  and  N2_11 
REMARK    7  A    between atoms: N2_11  and  S1_12 
REMARK    8  A    between atoms: S1_12  and  C8_15 
ROOT
HETATM    1  C6  UNL     1      24.645   3.556  50.485  1.00  0.00     0.279 C 
ENDROOT
BRANCH   1   2
HETATM    2  O1  UNL     1      25.733   2.670  50.557  1.00  0.00    -0.342 OA
BRANCH   2   3
HETATM    3  C5  UNL     1      26.016   1.906  51.672  1.00  0.00     0.065 A 
HETATM    4  C4  UNL     1      26.398   0.506  51.604  1.00  0.00     0.039 A 
HETATM    5  C3  UNL     1      26.648  -0.134  52.736  1.00  0.00    -0.075 A 
HETATM    6  C16 UNL     1      26.622   0.284  54.156  1.00  0.00     0.038 A 
HETATM    7  C15 UNL     1      26.228   1.737  54.219  1.00  0.00     0.034 A 
HETATM    8  C14 UNL     1      25.972   2.358  52.911  1.00  0.00     0.010 A 
BRANCH   5   9
HETATM    9  C2  UNL     1      27.041  -1.557  52.735  1.00  0.00     0.064 C 
BRANCH   9  10
HETATM   10  C1  UNL     1      28.450  -1.834  53.126  1.00  0.00     0.271 C 
BRANCH  10  11
HETATM   11  N1  UNL     1      28.595  -3.299  53.173  1.00  0.00     0.078 N 
HETATM   12  H1  UNL     1      29.514  -3.603  53.509  1.00  0.00     0.312 HD
HETATM   13  H2  UNL     1      28.233  -3.750  52.318  1.00  0.00     0.312 HD
ENDBRANCH  10  11
ENDBRANCH   9  10
ENDBRANCH   5   9
ENDBRANCH   2   3
ENDBRANCH   1   2
BRANCH   1  14
HETATM   14  C7  UNL     1      23.374   2.806  50.787  1.00  0.00     0.255 C 
HETATM   15  O2  UNL     1      23.034   1.832  50.043  1.00  0.00    -0.270 OA
HETATM   16  N2  UNL     1      22.542   3.143  51.866  1.00  0.00    -0.248 N 
HETATM   17  H10 UNL     1      22.822   3.941  52.473  1.00  0.00     0.182 HD
BRANCH  16  18
HETATM   18  S1  UNL     1      21.103   2.230  52.139  1.00  0.00     0.265 S 
HETATM   19  O3  UNL     1      20.456   1.866  50.830  1.00  0.00    -0.200 OA
HETATM   20  O4  UNL     1      20.075   3.065  52.889  1.00  0.00    -0.200 OA
BRANCH  18  21
HETATM   21  C8  UNL     1      21.409   0.765  53.044  1.00  0.00     0.079 A 
HETATM   22  C9  UNL     1      20.421  -0.100  53.482  1.00  0.00     0.025 A 
HETATM   23  C10 UNL     1      20.798  -1.221  54.186  1.00  0.00     0.002 A 
HETATM   24  C11 UNL     1      22.095  -1.550  54.491  1.00  0.00     0.000 A 
HETATM   25  C12 UNL     1      23.077  -0.682  54.050  1.00  0.00     0.002 A 
HETATM   26  C13 UNL     1      22.724   0.451  53.341  1.00  0.00     0.025 A 
ENDBRANCH  18  21
ENDBRANCH  16  18
ENDBRANCH   1  14
TORSDOF 8
ENDMDL
MODEL 4
REMARK VINA RESULT:      -7.4      2.876      3.903
REMARK  8 active torsions:
REMARK  status: ('A' for Active; 'I' for Inactive)
REMARK    1  A    between atoms: N1_1  and  C1_2 
REMARK    2  A    between atoms: C1_2  and  C2_3 
REMARK    3  A    between atoms: C2_3  and  C3_4 
REMARK    4  A    between atoms: C5_6  and  O1_7 
REMARK    5  A    between atoms: O1_7  and  C6_8 
REMARK    6  A    between atoms: C6_8  and  C7_9 
REMARK       I    between atoms: C7_9  and  N2_11 
REMARK    7  A    between atoms: N2_11  and  S1_12 
REMARK    8  A    between atoms: S1_12  and  C8_15 
ROOT
HETATM    1  C6  UNL     1      25.784   3.782  49.701  1.00  0.00     0.279 C 
ENDROOT
BRANCH   1   2
HETATM    2  O1  UNL     1      26.990   3.880  48.986  1.00  0.00    -0.342 OA
BRANCH   2   3
HETATM    3  C5  UNL     1      27.599   5.083  48.686  1.00  0.00     0.065 A 
HETATM    4  C4  UNL     1      26.934   6.368  48.819  1.00  0.00     0.039 A 
HETATM    5  C3  UNL     1      27.610   7.462  48.504  1.00  0.00    -0.075 A 
HETATM    6  C16 UNL     1      28.987   7.686  48.010  1.00  0.00     0.038 A 
HETATM    7  C15 UNL     1      29.672   6.351  47.877  1.00  0.00     0.034 A 
HETATM    8  C14 UNL     1      28.839   5.198  48.251  1.00  0.00     0.010 A 
BRANCH   5   9
HETATM    9  C2  UNL     1      26.992   8.797  48.616  1.00  0.00     0.064 C 
BRANCH   9  10
HETATM   10  C1  UNL     1      26.466   9.149  49.964  1.00  0.00     0.271 C 
BRANCH  10  11
HETATM   11  N1  UNL     1      27.637   9.331  50.840  1.00  0.00     0.078 N 
HETATM   12  H1  UNL     1      27.408   9.780  51.732  1.00  0.00     0.312 HD
HETATM   13  H2  UNL     1      28.451   9.699  50.323  1.00  0.00     0.312 HD
ENDBRANCH  10  11
ENDBRANCH   9  10
ENDBRANCH   5   9
ENDBRANCH   2   3
ENDBRANCH   1   2
BRANCH   1  14
HETATM   14  C7  UNL     1      25.966   2.829  50.852  1.00  0.00     0.255 C 
HETATM   15  O2  UNL     1      27.132   2.637  51.325  1.00  0.00    -0.270 OA
HETATM   16  N2  UNL     1      24.891   2.135  51.430  1.00  0.00    -0.248 N 
HETATM   17  H10 UNL     1      23.938   2.293  51.041  1.00  0.00     0.182 HD
BRANCH  16  18
HETATM   18  S1  UNL     1      25.189   1.061  52.747  1.00  0.00     0.265 S 
HETATM   19  O3  UNL     1      25.960   1.763  53.833  1.00  0.00    -0.200 OA
HETATM   20  O4  UNL     1      26.069  -0.098  52.302  1.00  0.00    -0.200 OA
BRANCH  18  21
HETATM   21  C8  UNL     1      23.711   0.420  53.427  1.00  0.00     0.079 A 
HETATM   22  C9  UNL     1      22.450   0.925  53.163  1.00  0.00     0.025 A 
HETATM   23  C10 UNL     1      21.366   0.326  53.765  1.00  0.00     0.002 A 
HETATM   24  C11 UNL     1      21.443  -0.746  54.618  1.00  0.00     0.000 A 
HETATM   25  C12 UNL     1      22.707  -1.246  54.878  1.00  0.00     0.002 A 
HETATM   26  C13 UNL     1      23.811  -0.662  54.285  1.00  0.00     0.025 A 
ENDBRANCH  18  21
ENDBRANCH  16  18
ENDBRANCH   1  14
TORSDOF 8
ENDMDL
MODEL 5
REMARK VINA RESULT:      -7.4      5.022      8.227
REMARK  8 active torsions:
REMARK  status: ('A' for Active; 'I' for Inactive)
REMARK    1  A    between atoms: N1_1  and  C1_2 
REMARK    2  A    between atoms: C1_2  and  C2_3 
REMARK    3  A    between atoms: C2_3  and  C3_4 
REMARK    4  A    between atoms: C5_6  and  O1_7 
REMARK    5  A    between atoms: O1_7  and  C6_8 
REMARK    6  A    between atoms: C6_8  and  C7_9 
REMARK       I    between atoms: C7_9  and  N2_11 
REMARK    7  A    between atoms: N2_11  and  S1_12 
REMARK    8  A    between atoms: S1_12  and  C8_15 
ROOT
HETATM    1  C6  UNL     1      23.135   1.949  51.196  1.00  0.00     0.279 C 
ENDROOT
BRANCH   1   2
HETATM    2  O1  UNL     1      22.080   2.128  52.107  1.00  0.00    -0.342 OA
BRANCH   2   3
HETATM    3  C5  UNL     1      21.336   1.083  52.618  1.00  0.00     0.065 A 
HETATM    4  C4  UNL     1      20.026   0.712  52.109  1.00  0.00     0.039 A 
HETATM    5  C3  UNL     1      19.398  -0.308  52.674  1.00  0.00    -0.075 A 
HETATM    6  C16 UNL     1      19.752  -1.218  53.785  1.00  0.00     0.038 A 
HETATM    7  C15 UNL     1      21.112  -0.831  54.306  1.00  0.00     0.034 A 
HETATM    8  C14 UNL     1      21.727   0.312  53.615  1.00  0.00     0.010 A 
BRANCH   5   9
HETATM    9  C2  UNL     1      18.065  -0.734  52.203  1.00  0.00     0.064 C 
BRANCH   9  10
HETATM   10  C1  UNL     1      17.167  -1.300  53.246  1.00  0.00     0.271 C 
BRANCH  10  11
HETATM   11  N1  UNL     1      15.845  -0.679  53.048  1.00  0.00     0.078 N 
HETATM   12  H1  UNL     1      15.649   0.073  53.715  1.00  0.00     0.312 HD
HETATM   13  H2  UNL     1      15.106  -1.385  52.902  1.00  0.00     0.312 HD
ENDBRANCH  10  11
ENDBRANCH   9  10
ENDBRANCH   5   9
ENDBRANCH   2   3
ENDBRANCH   1   2
BRANCH   1  14
HETATM   14  C7  UNL     1      24.446   2.141  51.912  1.00  0.00     0.255 C 
HETATM   15  O2  UNL     1      24.713   3.272  52.430  1.00  0.00    -0.270 OA
HETATM   16  N2  UNL     1      25.393   1.112  52.033  1.00  0.00    -0.248 N 
HETATM   17  H10 UNL     1      25.172   0.188  51.607  1.00  0.00     0.182 HD
BRANCH  16  18
HETATM   18  S1  UNL     1      26.870   1.419  52.871  1.00  0.00     0.265 S 
HETATM   19  O3  UNL     1      26.590   2.006  54.229  1.00  0.00    -0.200 OA
HETATM   20  O4  UNL     1      27.697   2.462  52.133  1.00  0.00    -0.200 OA
BRANCH  18  21
HETATM   21  C8  UNL     1      27.833  -0.028  53.068  1.00  0.00     0.079 A 
HETATM   22  C9  UNL     1      29.130  -0.039  53.551  1.00  0.00     0.025 A 
HETATM   23  C10 UNL     1      29.778  -1.249  53.658  1.00  0.00     0.002 A 
HETATM   24  C11 UNL     1      29.228  -2.460  53.317  1.00  0.00     0.000 A 
HETATM   25  C12 UNL     1      27.932  -2.441  52.836  1.00  0.00     0.002 A 
HETATM   26  C13 UNL     1      27.260  -1.238  52.720  1.00  0.00     0.025 A 
ENDBRANCH  18  21
ENDBRANCH  16  18
ENDBRANCH   1  14
TORSDOF 8
ENDMDL
MODEL 6
REMARK VINA RESULT:      -7.4      3.157      4.325
REMARK  8 active torsions:
REMARK  status: ('A' for Active; 'I' for Inactive)
REMARK    1  A    between atoms: N1_1  and  C1_2 
REMARK    2  A    between atoms: C1_2  and  C2_3 
REMARK    3  A    between atoms: C2_3  and  C3_4 
REMARK    4  A    between atoms: C5_6  and  O1_7 
REMARK    5  A    between atoms: O1_7  and  C6_8 
REMARK    6  A    between atoms: C6_8  and  C7_9 
REMARK       I    between atoms: C7_9  and  N2_11 
REMARK    7  A    between atoms: N2_11  and  S1_12 
REMARK    8  A    between atoms: S1_12  and  C8_15 
ROOT
HETATM    1  C6  UNL     1      27.138   2.483  51.873  1.00  0.00     0.279 C 
ENDROOT
BRANCH   1   2
HETATM    2  O1  UNL     1      26.872   2.536  50.494  1.00  0.00    -0.342 OA
BRANCH   2   3
HETATM    3  C5  UNL     1      26.018   3.458  49.922  1.00  0.00     0.065 A 
HETATM    4  C4  UNL     1      26.416   4.815  49.587  1.00  0.00     0.039 A 
HETATM    5  C3  UNL     1      25.516   5.618  49.041  1.00  0.00    -0.075 A 
HETATM    6  C16 UNL     1      24.095   5.434  48.671  1.00  0.00     0.038 A 
HETATM    7  C15 UNL     1      23.689   4.025  49.019  1.00  0.00     0.034 A 
HETATM    8  C14 UNL     1      24.758   3.212  49.619  1.00  0.00     0.010 A 
BRANCH   5   9
HETATM    9  C2  UNL     1      25.858   7.007  48.677  1.00  0.00     0.064 C 
BRANCH   9  10
HETATM   10  C1  UNL     1      25.550   8.035  49.708  1.00  0.00     0.271 C 
BRANCH  10  11
HETATM   11  N1  UNL     1      26.796   8.267  50.460  1.00  0.00     0.078 N 
HETATM   12  H1  UNL     1      27.397   7.438  50.510  1.00  0.00     0.312 HD
HETATM   13  H2  UNL     1      26.625   8.779  51.340  1.00  0.00     0.312 HD
ENDBRANCH  10  11
ENDBRANCH   9  10
ENDBRANCH   5   9
ENDBRANCH   2   3
ENDBRANCH   1   2
BRANCH   1  14
HETATM   14  C7  UNL     1      26.585   1.200  52.435  1.00  0.00     0.255 C 
HETATM   15  O2  UNL     1      26.451   0.192  51.672  1.00  0.00    -0.270 OA
HETATM   16  N2  UNL     1      26.207   1.072  53.781  1.00  0.00    -0.248 N 
HETATM   17  H10 UNL     1      26.317   1.899  54.404  1.00  0.00     0.182 HD
BRANCH  16  18
HETATM   18  S1  UNL     1      25.582  -0.436  54.342  1.00  0.00     0.265 S 
HETATM   19  O3  UNL     1      25.837  -0.593  55.817  1.00  0.00    -0.200 OA
HETATM   20  O4  UNL     1      26.305  -1.596  53.673  1.00  0.00    -0.200 OA
BRANCH  18  21
HETATM   21  C8  UNL     1      23.866  -0.593  54.046  1.00  0.00     0.079 A 
HETATM   22  C9  UNL     1      23.227  -0.131  52.908  1.00  0.00     0.025 A 
HETATM   23  C10 UNL     1      21.868  -0.320  52.799  1.00  0.00     0.002 A 
HETATM   24  C11 UNL     1      21.089  -0.938  53.744  1.00  0.00     0.000 A 
HETATM   25  C12 UNL     1      21.733  -1.397  54.878  1.00  0.00     0.002 A 
HETATM   26  C13 UNL     1      23.098  -1.220  55.011  1.00  0.00     0.025 A 
ENDBRANCH  18  21
ENDBRANCH  16  18
ENDBRANCH   1  14
TORSDOF 8
ENDMDL
MODEL 7
REMARK VINA RESULT:      -7.3      2.837      3.448
REMARK  8 active torsions:
REMARK  status: ('A' for Active; 'I' for Inactive)
REMARK    1  A    between atoms: N1_1  and  C1_2 
REMARK    2  A    between atoms: C1_2  and  C2_3 
REMARK    3  A    between atoms: C2_3  and  C3_4 
REMARK    4  A    between atoms: C5_6  and  O1_7 
REMARK    5  A    between atoms: O1_7  and  C6_8 
REMARK    6  A    between atoms: C6_8  and  C7_9 
REMARK       I    between atoms: C7_9  and  N2_11 
REMARK    7  A    between atoms: N2_11  and  S1_12 
REMARK    8  A    between atoms: S1_12  and  C8_15 
ROOT
HETATM    1  C6  UNL     1      24.101   3.967  50.799  1.00  0.00     0.279 C 
ENDROOT
BRANCH   1   2
HETATM    2  O1  UNL     1      24.959   3.752  49.707  1.00  0.00    -0.342 OA
BRANCH   2   3
HETATM    3  C5  UNL     1      25.777   4.732  49.181  1.00  0.00     0.065 A 
HETATM    4  C4  UNL     1      27.199   4.543  48.946  1.00  0.00     0.039 A 
HETATM    5  C3  UNL     1      27.891   5.550  48.437  1.00  0.00    -0.075 A 
HETATM    6  C16 UNL     1      27.519   6.923  48.027  1.00  0.00     0.038 A 
HETATM    7  C15 UNL     1      26.044   7.111  48.270  1.00  0.00     0.034 A 
HETATM    8  C14 UNL     1      25.364   5.936  48.836  1.00  0.00     0.010 A 
BRANCH   5   9
HETATM    9  C2  UNL     1      29.338   5.422  48.175  1.00  0.00     0.064 C 
BRANCH   9  10
HETATM   10  C1  UNL     1      30.104   6.699  48.161  1.00  0.00     0.271 C 
BRANCH  10  11
HETATM   11  N1  UNL     1      30.930   6.710  49.381  1.00  0.00     0.078 N 
HETATM   12  H1  UNL     1      30.562   6.108  50.123  1.00  0.00     0.312 HD
HETATM   13  H2  UNL     1      31.212   7.667  49.646  1.00  0.00     0.312 HD
ENDBRANCH  10  11
ENDBRANCH   9  10
ENDBRANCH   5   9
ENDBRANCH   2   3
ENDBRANCH   1   2
BRANCH   1  14
HETATM   14  C7  UNL     1      24.391   2.946  51.866  1.00  0.00     0.255 C 
HETATM   15  O2  UNL     1      24.100   3.209  53.076  1.00  0.00    -0.270 OA
HETATM   16  N2  UNL     1      24.976   1.703  51.577  1.00  0.00    -0.248 N 
HETATM   17  H10 UNL     1      25.214   1.490  50.586  1.00  0.00     0.182 HD
BRANCH  16  18
HETATM   18  S1  UNL     1      25.274   0.591  52.862  1.00  0.00     0.265 S 
HETATM   19  O3  UNL     1      25.972   1.283  54.003  1.00  0.00    -0.200 OA
HETATM   20  O4  UNL     1      26.221  -0.510  52.407  1.00  0.00    -0.200 OA
BRANCH  18  21
HETATM   21  C8  UNL     1      23.803  -0.141  53.461  1.00  0.00     0.079 A 
HETATM   22  C9  UNL     1      22.584  -0.082  52.808  1.00  0.00     0.025 A 
HETATM   23  C10 UNL     1      21.500  -0.703  53.389  1.00  0.00     0.002 A 
HETATM   24  C11 UNL     1      21.539  -1.382  54.580  1.00  0.00     0.000 A 
HETATM   25  C12 UNL     1      22.760  -1.437  55.227  1.00  0.00     0.002 A 
HETATM   26  C13 UNL     1      23.863  -0.822  54.663  1.00  0.00     0.025 A 
ENDBRANCH  18  21
ENDBRANCH  16  18
ENDBRANCH   1  14
TORSDOF 8
ENDMDL
MODEL 8
REMARK VINA RESULT:      -7.2      5.736      8.419
REMARK  8 active torsions:
REMARK  status: ('A' for Active; 'I' for Inactive)
REMARK    1  A    between atoms: N1_1  and  C1_2 
REMARK    2  A    between atoms: C1_2  and  C2_3 
REMARK    3  A    between atoms: C2_3  and  C3_4 
REMARK    4  A    between atoms: C5_6  and  O1_7 
REMARK    5  A    between atoms: O1_7  and  C6_8 
REMARK    6  A    between atoms: C6_8  and  C7_9 
REMARK       I    between atoms: C7_9  and  N2_11 
REMARK    7  A    between atoms: N2_11  and  S1_12 
REMARK    8  A    between atoms: S1_12  and  C8_15 
ROOT
HETATM    1  C6  UNL     1      22.784  -1.245  54.534  1.00  0.00     0.279 C 
ENDROOT
BRANCH   1   2
HETATM    2  O1  UNL     1      21.845  -0.212  54.693  1.00  0.00    -0.342 OA
BRANCH   2   3
HETATM    3  C5  UNL     1      20.975   0.182  53.696  1.00  0.00     0.065 A 
HETATM    4  C4  UNL     1      19.770  -0.553  53.351  1.00  0.00     0.039 A 
HETATM    5  C3  UNL     1      19.005  -0.086  52.377  1.00  0.00    -0.075 A 
HETATM    6  C16 UNL     1      19.109   1.099  51.496  1.00  0.00     0.038 A 
HETATM    7  C15 UNL     1      20.358   1.858  51.860  1.00  0.00     0.034 A 
HETATM    8  C14 UNL     1      21.139   1.260  52.953  1.00  0.00     0.010 A 
BRANCH   5   9
HETATM    9  C2  UNL     1      17.769  -0.786  51.979  1.00  0.00     0.064 C 
BRANCH   9  10
HETATM   10  C1  UNL     1      16.804  -1.061  53.079  1.00  0.00     0.271 C 
BRANCH  10  11
HETATM   11  N1  UNL     1      16.605  -2.521  53.111  1.00  0.00     0.078 N 
HETATM   12  H1  UNL     1      17.014  -2.965  53.939  1.00  0.00     0.312 HD
HETATM   13  H2  UNL     1      16.802  -2.956  52.196  1.00  0.00     0.312 HD
ENDBRANCH  10  11
ENDBRANCH   9  10
ENDBRANCH   5   9
ENDBRANCH   2   3
ENDBRANCH   1   2
BRANCH   1  14
HETATM   14  C7  UNL     1      24.162  -0.650  54.422  1.00  0.00     0.255 C 
HETATM   15  O2  UNL     1      25.028  -0.909  55.317  1.00  0.00    -0.270 OA
HETATM   16  N2  UNL     1      24.534   0.189  53.359  1.00  0.00    -0.248 N 
HETATM   17  H10 UNL     1      23.823   0.401  52.628  1.00  0.00     0.182 HD
BRANCH  16  18
HETATM   18  S1  UNL     1      26.135   0.829  53.308  1.00  0.00     0.265 S 
HETATM   19  O3  UNL     1      26.390   1.701  54.509  1.00  0.00    -0.200 OA
HETATM   20  O4  UNL     1      26.311   1.734  52.097  1.00  0.00    -0.200 OA
BRANCH  18  21
HETATM   21  C8  UNL     1      27.350  -0.428  53.255  1.00  0.00     0.079 A 
HETATM   22  C9  UNL     1      27.128  -1.705  52.771  1.00  0.00     0.025 A 
HETATM   23  C10 UNL     1      28.173  -2.601  52.785  1.00  0.00     0.002 A 
HETATM   24  C11 UNL     1      29.433  -2.321  53.250  1.00  0.00     0.000 A 
HETATM   25  C12 UNL     1      29.648  -1.043  53.733  1.00  0.00     0.002 A 
HETATM   26  C13 UNL     1      28.614  -0.124  53.728  1.00  0.00     0.025 A 
ENDBRANCH  18  21
ENDBRANCH  16  18
ENDBRANCH   1  14
TORSDOF 8
ENDMDL
MODEL 9
REMARK VINA RESULT:      -7.2      4.141      6.562
REMARK  8 active torsions:
REMARK  status: ('A' for Active; 'I' for Inactive)
REMARK    1  A    between atoms: N1_1  and  C1_2 
REMARK    2  A    between atoms: C1_2  and  C2_3 
REMARK    3  A    between atoms: C2_3  and  C3_4 
REMARK    4  A    between atoms: C5_6  and  O1_7 
REMARK    5  A    between atoms: O1_7  and  C6_8 
REMARK    6  A    between atoms: C6_8  and  C7_9 
REMARK       I    between atoms: C7_9  and  N2_11 
REMARK    7  A    between atoms: N2_11  and  S1_12 
REMARK    8  A    between atoms: S1_12  and  C8_15 
ROOT
HETATM    1  C6  UNL     1      26.575   2.817  51.215  1.00  0.00     0.279 C 
ENDROOT
BRANCH   1   2
HETATM    2  O1  UNL     1      25.437   2.715  50.397  1.00  0.00    -0.342 OA
BRANCH   2   3
HETATM    3  C5  UNL     1      24.148   2.860  50.871  1.00  0.00     0.065 A 
HETATM    4  C4  UNL     1      23.072   1.937  50.552  1.00  0.00     0.039 A 
HETATM    5  C3  UNL     1      21.872   2.170  51.060  1.00  0.00    -0.075 A 
HETATM    6  C16 UNL     1      21.341   3.235  51.941  1.00  0.00     0.038 A 
HETATM    7  C15 UNL     1      22.461   4.186  52.271  1.00  0.00     0.034 A 
HETATM    8  C14 UNL     1      23.754   3.842  51.659  1.00  0.00     0.010 A 
BRANCH   5   9
HETATM    9  C2  UNL     1      20.737   1.271  50.774  1.00  0.00     0.064 C 
BRANCH   9  10
HETATM   10  C1  UNL     1      19.587   1.370  51.714  1.00  0.00     0.271 C 
BRANCH  10  11
HETATM   11  N1  UNL     1      19.245  -0.008  52.110  1.00  0.00     0.078 N 
HETATM   12  H1  UNL     1      20.038  -0.653  52.051  1.00  0.00     0.312 HD
HETATM   13  H2  UNL     1      18.353  -0.318  51.692  1.00  0.00     0.312 HD
ENDBRANCH  10  11
ENDBRANCH   9  10
ENDBRANCH   5   9
ENDBRANCH   2   3
ENDBRANCH   1   2
BRANCH   1  14
HETATM   14  C7  UNL     1      26.485   1.800  52.321  1.00  0.00     0.255 C 
HETATM   15  O2  UNL     1      26.276   2.191  53.513  1.00  0.00    -0.270 OA
HETATM   16  N2  UNL     1      26.622   0.422  52.087  1.00  0.00    -0.248 N 
HETATM   17  H10 UNL     1      26.793   0.104  51.110  1.00  0.00     0.182 HD
BRANCH  16  18
HETATM   18  S1  UNL     1      26.504  -0.675  53.413  1.00  0.00     0.265 S 
HETATM   19  O3  UNL     1      27.413  -0.244  54.533  1.00  0.00    -0.200 OA
HETATM   20  O4  UNL     1      26.983  -2.061  53.004  1.00  0.00    -0.200 OA
BRANCH  18  21
HETATM   21  C8  UNL     1      24.871  -0.800  54.027  1.00  0.00     0.079 A 
HETATM   22  C9  UNL     1      24.549  -1.263  55.290  1.00  0.00     0.025 A 
HETATM   23  C10 UNL     1      23.221  -1.311  55.650  1.00  0.00     0.002 A 
HETATM   24  C11 UNL     1      22.180  -0.931  54.841  1.00  0.00     0.000 A 
HETATM   25  C12 UNL     1      22.510  -0.470  53.579  1.00  0.00     0.002 A 
HETATM   26  C13 UNL     1      23.837  -0.412  53.195  1.00  0.00     0.025 A 
ENDBRANCH  18  21
ENDBRANCH  16  18
ENDBRANCH   1  14
TORSDOF 8
ENDMDL
