MODEL 1
REMARK VINA RESULT:      -8.6      0.000      0.000
REMARK  5 active torsions:
REMARK  status: ('A' for Active; 'I' for Inactive)
REMARK    1  A    between atoms: C2_4  and  C3_5 
REMARK       I    between atoms: C3_5  and  N3_6 
REMARK    2  A    between atoms: C7_12  and  N5_13 
REMARK    3  A    between atoms: N5_13  and  C8_14 
REMARK    4  A    between atoms: C11_17  and  C12_18 
REMARK    5  A    between atoms: C12_18  and  C13_19 
ROOT
HETATM    1  C1  UNL     1      22.166   2.632  51.443  1.00  0.00     0.180 C 
HETATM    2  N1  UNL     1      22.317   1.492  52.330  1.00  0.00    -0.271 N 
HETATM    3  N2  UNL     1      21.428   0.692  52.900  1.00  0.00    -0.166 NA
HETATM    4  C2  UNL     1      22.046  -0.233  53.640  1.00  0.00     0.153 A 
HETATM    5  C4  UNL     1      23.412  -0.022  53.545  1.00  0.00     0.009 A 
HETATM    6  C5  UNL     1      23.533   1.073  52.711  1.00  0.00     0.091 A 
HETATM    7  C6  UNL     1      24.898   1.472  52.422  1.00  0.00     0.112 A 
HETATM    8  N4  UNL     1      25.199   2.503  51.655  1.00  0.00    -0.060 NA
HETATM    9  C7  UNL     1      26.460   2.887  51.391  1.00  0.00     0.723 A 
HETATM   10  N6  UNL     1      27.459   2.174  51.945  1.00  0.00    -0.075 NA
HETATM   11  C15 UNL     1      27.199   1.108  52.739  1.00  0.00     0.146 A 
HETATM   12  C16 UNL     1      25.882   0.712  53.009  1.00  0.00    -0.008 A 
HETATM   13  C17 UNL     1      25.819  -0.486  53.887  1.00  0.00     0.047 C 
HETATM   14  C18 UNL     1      24.414  -0.836  54.262  1.00  0.00     0.048 C 
ENDROOT
BRANCH   9  15
HETATM   15  N5  UNL     1      26.694   4.021  50.566  1.00  0.00    -0.218 N 
HETATM   16  H6  UNL     1      27.097   4.873  51.071  1.00  0.00     0.178 HD
BRANCH  15  17
HETATM   17  C8  UNL     1      26.463   4.194  49.147  1.00  0.00     0.100 C 
HETATM   18  C9  UNL     1      27.631   4.968  48.536  1.00  0.00     0.026 C 
HETATM   19  C10 UNL     1      27.239   6.426  48.865  1.00  0.00     0.007 C 
HETATM   20  C11 UNL     1      25.816   6.426  48.431  1.00  0.00    -0.006 C 
HETATM   21  C14 UNL     1      25.266   5.118  48.987  1.00  0.00     0.030 C 
BRANCH  20  22
HETATM   22  C12 UNL     1      25.015   7.594  48.968  1.00  0.00     0.074 C 
BRANCH  22  23
HETATM   23  C13 UNL     1      25.057   7.613  50.456  1.00  0.00     0.231 C 
HETATM   24  O2  UNL     1      23.977   7.672  51.045  1.00  0.00    -0.307 OA
ENDBRANCH  22  23
ENDBRANCH  20  22
ENDBRANCH  15  17
ENDBRANCH   9  15
BRANCH   4  25
HETATM   25  C3  UNL     1      21.285  -1.244  54.373  1.00  0.00     0.270 C 
HETATM   26  N3  UNL     1      19.936  -1.573  54.147  1.00  0.00    -0.365 N 
HETATM   27  H4  UNL     1      19.209  -1.202  54.803  1.00  0.00     0.159 HD
HETATM   28  H5  UNL     1      19.300  -2.100  53.514  1.00  0.00     0.159 HD
HETATM   29  O1  UNL     1      21.914  -1.869  55.289  1.00  0.00    -0.266 OA
ENDBRANCH   4  25
TORSDOF 5
ENDMDL
MODEL 2
REMARK VINA RESULT:      -8.5      4.302      6.121
REMARK  5 active torsions:
REMARK  status: ('A' for Active; 'I' for Inactive)
REMARK    1  A    between atoms: C2_4  and  C3_5 
REMARK       I    between atoms: C3_5  and  N3_6 
REMARK    2  A    between atoms: C7_12  and  N5_13 
REMARK    3  A    between atoms: N5_13  and  C8_14 
REMARK    4  A    between atoms: C11_17  and  C12_18 
REMARK    5  A    between atoms: C12_18  and  C13_19 
ROOT
HETATM    1  C1  UNL     1      22.131   1.647  49.925  1.00  0.00     0.180 C 
HETATM    2  N1  UNL     1      20.815   1.165  50.302  1.00  0.00    -0.271 N 
HETATM    3  N2  UNL     1      19.635   1.263  49.707  1.00  0.00    -0.166 NA
HETATM    4  C2  UNL     1      18.697   0.651  50.436  1.00  0.00     0.153 A 
HETATM    5  C4  UNL     1      19.302   0.127  51.567  1.00  0.00     0.009 A 
HETATM    6  C5  UNL     1      20.632   0.475  51.437  1.00  0.00     0.091 A 
HETATM    7  C6  UNL     1      21.495  -0.004  52.502  1.00  0.00     0.112 A 
HETATM    8  N4  UNL     1      22.790   0.245  52.545  1.00  0.00    -0.060 NA
HETATM    9  C7  UNL     1      23.595  -0.184  53.532  1.00  0.00     0.723 A 
HETATM   10  N6  UNL     1      23.037  -0.906  54.523  1.00  0.00    -0.075 NA
HETATM   11  C15 UNL     1      21.713  -1.188  54.521  1.00  0.00     0.146 A 
HETATM   12  C16 UNL     1      20.879  -0.738  53.488  1.00  0.00    -0.008 A 
HETATM   13  C17 UNL     1      19.469  -1.168  53.670  1.00  0.00     0.047 C 
HETATM   14  C18 UNL     1      18.565  -0.592  52.626  1.00  0.00     0.048 C 
ENDROOT
BRANCH   9  15
HETATM   15  N5  UNL     1      24.978   0.145  53.509  1.00  0.00    -0.218 N 
HETATM   16  H6  UNL     1      25.381   0.476  54.443  1.00  0.00     0.178 HD
BRANCH  15  17
HETATM   17  C8  UNL     1      25.918   0.103  52.408  1.00  0.00     0.100 C 
HETATM   18  C9  UNL     1      26.457  -1.320  52.258  1.00  0.00     0.026 C 
HETATM   19  C10 UNL     1      27.573  -1.340  53.327  1.00  0.00     0.007 C 
HETATM   20  C11 UNL     1      28.268  -0.062  53.014  1.00  0.00    -0.006 C 
HETATM   21  C14 UNL     1      27.129   0.930  52.810  1.00  0.00     0.030 C 
BRANCH  20  22
HETATM   22  C12 UNL     1      29.184   0.420  54.120  1.00  0.00     0.074 C 
BRANCH  22  23
HETATM   23  C13 UNL     1      29.187   1.907  54.181  1.00  0.00     0.231 C 
HETATM   24  O2  UNL     1      29.789   2.426  55.121  1.00  0.00    -0.307 OA
ENDBRANCH  22  23
ENDBRANCH  20  22
ENDBRANCH  15  17
ENDBRANCH   9  15
BRANCH   4  25
HETATM   25  C3  UNL     1      17.304   0.614  49.995  1.00  0.00     0.270 C 
HETATM   26  N3  UNL     1      16.759  -0.316  49.091  1.00  0.00    -0.365 N 
HETATM   27  H4  UNL     1      16.592  -0.019  48.101  1.00  0.00     0.159 HD
HETATM   28  H5  UNL     1      16.416  -1.295  49.005  1.00  0.00     0.159 HD
HETATM   29  O1  UNL     1      16.533   1.505  50.482  1.00  0.00    -0.266 OA
ENDBRANCH   4  25
TORSDOF 5
ENDMDL
MODEL 3
REMARK VINA RESULT:      -8.5      2.711      5.500
REMARK  5 active torsions:
REMARK  status: ('A' for Active; 'I' for Inactive)
REMARK    1  A    between atoms: C2_4  and  C3_5 
REMARK       I    between atoms: C3_5  and  N3_6 
REMARK    2  A    between atoms: C7_12  and  N5_13 
REMARK    3  A    between atoms: N5_13  and  C8_14 
REMARK    4  A    between atoms: C11_17  and  C12_18 
REMARK    5  A    between atoms: C12_18  and  C13_19 
ROOT
HETATM    1  C1  UNL     1      25.628   3.085  50.521  1.00  0.00     0.180 C 
HETATM    2  N1  UNL     1      26.307   2.372  51.588  1.00  0.00    -0.271 N 
HETATM    3  N2  UNL     1      27.543   2.454  52.057  1.00  0.00    -0.166 NA
HETATM    4  C2  UNL     1      27.715   1.591  53.063  1.00  0.00     0.153 A 
HETATM    5  C4  UNL     1      26.523   0.911  53.257  1.00  0.00     0.009 A 
HETATM    6  C5  UNL     1      25.669   1.437  52.306  1.00  0.00     0.091 A 
HETATM    7  C6  UNL     1      24.321   0.901  52.334  1.00  0.00     0.112 A 
HETATM    8  N4  UNL     1      23.378   1.280  51.491  1.00  0.00    -0.060 NA
HETATM    9  C7  UNL     1      22.130   0.782  51.502  1.00  0.00     0.723 A 
HETATM   10  N6  UNL     1      21.839  -0.154  52.426  1.00  0.00    -0.075 NA
HETATM   11  C15 UNL     1      22.773  -0.573  53.313  1.00  0.00     0.146 A 
HETATM   12  C16 UNL     1      24.073  -0.049  53.297  1.00  0.00    -0.008 A 
HETATM   13  C17 UNL     1      24.933  -0.633  54.359  1.00  0.00     0.047 C 
HETATM   14  C18 UNL     1      26.347  -0.152  54.266  1.00  0.00     0.048 C 
ENDROOT
BRANCH   9  15
HETATM   15  N5  UNL     1      21.181   1.234  50.545  1.00  0.00    -0.218 N 
HETATM   16  H6  UNL     1      21.322   0.860  49.554  1.00  0.00     0.178 HD
BRANCH  15  17
HETATM   17  C8  UNL     1      20.056   2.131  50.715  1.00  0.00     0.100 C 
HETATM   18  C9  UNL     1      19.805   2.880  49.406  1.00  0.00     0.026 C 
HETATM   19  C10 UNL     1      20.842   4.023  49.503  1.00  0.00     0.007 C 
HETATM   20  C11 UNL     1      20.590   4.497  50.890  1.00  0.00    -0.006 C 
HETATM   21  C14 UNL     1      20.477   3.210  51.699  1.00  0.00     0.030 C 
BRANCH  20  22
HETATM   22  C12 UNL     1      21.700   5.364  51.449  1.00  0.00     0.074 C 
BRANCH  22  23
HETATM   23  C13 UNL     1      22.579   4.568  52.348  1.00  0.00     0.231 C 
HETATM   24  O2  UNL     1      23.607   5.114  52.749  1.00  0.00    -0.307 OA
ENDBRANCH  22  23
ENDBRANCH  20  22
ENDBRANCH  15  17
ENDBRANCH   9  15
BRANCH   4  25
HETATM   25  C3  UNL     1      28.997   1.488  53.758  1.00  0.00     0.270 C 
HETATM   26  N3  UNL     1      29.981   0.513  53.514  1.00  0.00    -0.365 N 
HETATM   27  H4  UNL     1      30.070  -0.292  54.177  1.00  0.00     0.159 HD
HETATM   28  H5  UNL     1      30.744   0.243  52.860  1.00  0.00     0.159 HD
HETATM   29  O1  UNL     1      29.224   2.363  54.656  1.00  0.00    -0.266 OA
ENDBRANCH   4  25
TORSDOF 5
ENDMDL
MODEL 4
REMARK VINA RESULT:      -8.5      3.233      5.559
REMARK  5 active torsions:
REMARK  status: ('A' for Active; 'I' for Inactive)
REMARK    1  A    between atoms: C2_4  and  C3_5 
REMARK       I    between atoms: C3_5  and  N3_6 
REMARK    2  A    between atoms: C7_12  and  N5_13 
REMARK    3  A    between atoms: N5_13  and  C8_14 
REMARK    4  A    between atoms: C11_17  and  C12_18 
REMARK    5  A    between atoms: C12_18  and  C13_19 
ROOT
HETATM    1  C1  UNL     1      26.036   3.427  50.711  1.00  0.00     0.180 C 
HETATM    2  N1  UNL     1      26.544   2.496  51.703  1.00  0.00    -0.271 N 
HETATM    3  N2  UNL     1      27.757   2.314  52.204  1.00  0.00    -0.166 NA
HETATM    4  C2  UNL     1      27.742   1.330  53.107  1.00  0.00     0.153 A 
HETATM    5  C4  UNL     1      26.446   0.846  53.198  1.00  0.00     0.009 A 
HETATM    6  C5  UNL     1      25.731   1.611  52.297  1.00  0.00     0.091 A 
HETATM    7  C6  UNL     1      24.312   1.313  52.236  1.00  0.00     0.112 A 
HETATM    8  N4  UNL     1      23.480   1.937  51.423  1.00  0.00    -0.060 NA
HETATM    9  C7  UNL     1      22.167   1.661  51.351  1.00  0.00     0.723 A 
HETATM   10  N6  UNL     1      21.687   0.693  52.157  1.00  0.00    -0.075 NA
HETATM   11  C15 UNL     1      22.502   0.027  53.008  1.00  0.00     0.146 A 
HETATM   12  C16 UNL     1      23.871   0.320  53.079  1.00  0.00    -0.008 A 
HETATM   13  C17 UNL     1      24.578  -0.515  54.084  1.00  0.00     0.047 C 
HETATM   14  C18 UNL     1      26.055  -0.275  54.076  1.00  0.00     0.048 C 
ENDROOT
BRANCH   9  15
HETATM   15  N5  UNL     1      21.345   2.371  50.434  1.00  0.00    -0.218 N 
HETATM   16  H6  UNL     1      21.136   3.385  50.702  1.00  0.00     0.178 HD
BRANCH  15  17
HETATM   17  C8  UNL     1      20.745   1.922  49.194  1.00  0.00     0.100 C 
HETATM   18  C9  UNL     1      21.754   1.067  48.426  1.00  0.00     0.026 C 
HETATM   19  C10 UNL     1      22.604   2.151  47.724  1.00  0.00     0.007 C 
HETATM   20  C11 UNL     1      21.529   3.017  47.169  1.00  0.00    -0.006 C 
HETATM   21  C14 UNL     1      20.536   3.147  48.318  1.00  0.00     0.030 C 
BRANCH  20  22
HETATM   22  C12 UNL     1      22.010   4.389  46.743  1.00  0.00     0.074 C 
BRANCH  22  23
HETATM   23  C13 UNL     1      21.897   4.544  45.267  1.00  0.00     0.231 C 
HETATM   24  O2  UNL     1      21.674   3.524  44.614  1.00  0.00    -0.307 OA
ENDBRANCH  22  23
ENDBRANCH  20  22
ENDBRANCH  15  17
ENDBRANCH   9  15
BRANCH   4  25
HETATM   25  C3  UNL     1      28.960   0.933  53.812  1.00  0.00     0.270 C 
HETATM   26  N3  UNL     1      29.714  -0.224  53.549  1.00  0.00    -0.365 N 
HETATM   27  H4  UNL     1      29.617  -1.047  54.189  1.00  0.00     0.159 HD
HETATM   28  H5  UNL     1      30.412  -0.635  52.895  1.00  0.00     0.159 HD
HETATM   29  O1  UNL     1      29.356   1.715  54.738  1.00  0.00    -0.266 OA
ENDBRANCH   4  25
TORSDOF 5
ENDMDL
MODEL 5
REMARK VINA RESULT:      -8.3      3.228      6.232
REMARK  5 active torsions:
REMARK  status: ('A' for Active; 'I' for Inactive)
REMARK    1  A    between atoms: C2_4  and  C3_5 
REMARK       I    between atoms: C3_5  and  N3_6 
REMARK    2  A    between atoms: C7_12  and  N5_13 
REMARK    3  A    between atoms: N5_13  and  C8_14 
REMARK    4  A    between atoms: C11_17  and  C12_18 
REMARK    5  A    between atoms: C12_18  and  C13_19 
ROOT
HETATM    1  C1  UNL     1      25.897   3.249  50.555  1.00  0.00     0.180 C 
HETATM    2  N1  UNL     1      26.526   2.479  51.614  1.00  0.00    -0.271 N 
HETATM    3  N2  UNL     1      27.752   2.502  52.114  1.00  0.00    -0.166 NA
HETATM    4  C2  UNL     1      27.870   1.603  53.094  1.00  0.00     0.153 A 
HETATM    5  C4  UNL     1      26.651   0.959  53.239  1.00  0.00     0.009 A 
HETATM    6  C5  UNL     1      25.839   1.545  52.287  1.00  0.00     0.091 A 
HETATM    7  C6  UNL     1      24.472   1.056  52.267  1.00  0.00     0.112 A 
HETATM    8  N4  UNL     1      23.564   1.494  51.415  1.00  0.00    -0.060 NA
HETATM    9  C7  UNL     1      22.300   1.040  51.381  1.00  0.00     0.723 A 
HETATM   10  N6  UNL     1      21.954   0.086  52.268  1.00  0.00    -0.075 NA
HETATM   11  C15 UNL     1      22.852  -0.393  53.161  1.00  0.00     0.146 A 
HETATM   12  C16 UNL     1      24.169   0.085  53.192  1.00  0.00    -0.008 A 
HETATM   13  C17 UNL     1      24.982  -0.562  54.254  1.00  0.00     0.047 C 
HETATM   14  C18 UNL     1      26.414  -0.128  54.210  1.00  0.00     0.048 C 
ENDROOT
BRANCH   9  15
HETATM   15  N5  UNL     1      21.390   1.556  50.418  1.00  0.00    -0.218 N 
HETATM   16  H6  UNL     1      20.916   0.821  49.803  1.00  0.00     0.178 HD
BRANCH  15  17
HETATM   17  C8  UNL     1      21.015   2.928  50.146  1.00  0.00     0.100 C 
HETATM   18  C9  UNL     1      21.136   3.749  51.430  1.00  0.00     0.026 C 
HETATM   19  C10 UNL     1      19.794   3.429  52.127  1.00  0.00     0.007 C 
HETATM   20  C11 UNL     1      18.849   3.634  50.997  1.00  0.00    -0.006 C 
HETATM   21  C14 UNL     1      19.529   2.940  49.823  1.00  0.00     0.030 C 
BRANCH  20  22
HETATM   22  C12 UNL     1      17.479   3.032  51.231  1.00  0.00     0.074 C 
BRANCH  22  23
HETATM   23  C13 UNL     1      16.476   4.104  51.480  1.00  0.00     0.231 C 
HETATM   24  O2  UNL     1      16.248   4.393  52.656  1.00  0.00    -0.307 OA
ENDBRANCH  22  23
ENDBRANCH  20  22
ENDBRANCH  15  17
ENDBRANCH   9  15
BRANCH   4  25
HETATM   25  C3  UNL     1      29.130   1.432  53.815  1.00  0.00     0.270 C 
HETATM   26  N3  UNL     1      30.126   0.489  53.504  1.00  0.00    -0.365 N 
HETATM   27  H4  UNL     1      30.199  -0.379  54.085  1.00  0.00     0.159 HD
HETATM   28  H5  UNL     1      30.911   0.289  52.850  1.00  0.00     0.159 HD
HETATM   29  O1  UNL     1      29.325   2.213  54.804  1.00  0.00    -0.266 OA
ENDBRANCH   4  25
TORSDOF 5
ENDMDL
MODEL 6
REMARK VINA RESULT:      -8.1      3.623      6.491
REMARK  5 active torsions:
REMARK  status: ('A' for Active; 'I' for Inactive)
REMARK    1  A    between atoms: C2_4  and  C3_5 
REMARK       I    between atoms: C3_5  and  N3_6 
REMARK    2  A    between atoms: C7_12  and  N5_13 
REMARK    3  A    between atoms: N5_13  and  C8_14 
REMARK    4  A    between atoms: C11_17  and  C12_18 
REMARK    5  A    between atoms: C12_18  and  C13_19 
ROOT
HETATM    1  C1  UNL     1      23.512  -0.791  53.918  1.00  0.00     0.180 C 
HETATM    2  N1  UNL     1      24.855  -0.257  53.784  1.00  0.00    -0.271 N 
HETATM    3  N2  UNL     1      25.985  -0.539  54.414  1.00  0.00    -0.166 NA
HETATM    4  C2  UNL     1      26.980   0.217  53.942  1.00  0.00     0.153 A 
HETATM    5  C4  UNL     1      26.467   1.036  52.949  1.00  0.00     0.009 A 
HETATM    6  C5  UNL     1      25.128   0.701  52.886  1.00  0.00     0.091 A 
HETATM    7  C6  UNL     1      24.369   1.411  51.873  1.00  0.00     0.112 A 
HETATM    8  N4  UNL     1      23.077   1.226  51.681  1.00  0.00    -0.060 NA
HETATM    9  C7  UNL     1      22.363   1.886  50.753  1.00  0.00     0.723 A 
HETATM   10  N6  UNL     1      23.013   2.782  49.986  1.00  0.00    -0.075 NA
HETATM   11  C15 UNL     1      24.339   3.005  50.145  1.00  0.00     0.146 A 
HETATM   12  C16 UNL     1      25.078   2.312  51.114  1.00  0.00    -0.008 A 
HETATM   13  C17 UNL     1      26.514   2.695  51.113  1.00  0.00     0.047 C 
HETATM   14  C18 UNL     1      27.273   2.036  52.220  1.00  0.00     0.048 C 
ENDROOT
BRANCH   9  15
HETATM   15  N5  UNL     1      20.969   1.637  50.626  1.00  0.00    -0.218 N 
HETATM   16  H6  UNL     1      20.592   1.669  49.625  1.00  0.00     0.178 HD
BRANCH  15  17
HETATM   17  C8  UNL     1      19.985   1.352  51.650  1.00  0.00     0.100 C 
HETATM   18  C9  UNL     1      18.926   0.406  51.083  1.00  0.00     0.026 C 
HETATM   19  C10 UNL     1      17.996   1.394  50.343  1.00  0.00     0.007 C 
HETATM   20  C11 UNL     1      17.824   2.437  51.390  1.00  0.00    -0.006 C 
HETATM   21  C14 UNL     1      19.233   2.642  51.933  1.00  0.00     0.030 C 
BRANCH  20  22
HETATM   22  C12 UNL     1      17.277   3.747  50.861  1.00  0.00     0.074 C 
BRANCH  22  23
HETATM   23  C13 UNL     1      16.084   4.166  51.647  1.00  0.00     0.231 C 
HETATM   24  O2  UNL     1      16.271   4.470  52.826  1.00  0.00    -0.307 OA
ENDBRANCH  22  23
ENDBRANCH  20  22
ENDBRANCH  15  17
ENDBRANCH   9  15
BRANCH   4  25
HETATM   25  C3  UNL     1      28.337   0.095  54.472  1.00  0.00     0.270 C 
HETATM   26  N3  UNL     1      29.229  -0.957  54.198  1.00  0.00    -0.365 N 
HETATM   27  H4  UNL     1      29.366  -1.704  54.920  1.00  0.00     0.159 HD
HETATM   28  H5  UNL     1      29.883  -1.332  53.481  1.00  0.00     0.159 HD
HETATM   29  O1  UNL     1      28.728   1.032  55.244  1.00  0.00    -0.266 OA
ENDBRANCH   4  25
TORSDOF 5
ENDMDL
MODEL 7
REMARK VINA RESULT:      -7.7      3.501      6.831
REMARK  5 active torsions:
REMARK  status: ('A' for Active; 'I' for Inactive)
REMARK    1  A    between atoms: C2_4  and  C3_5 
REMARK       I    between atoms: C3_5  and  N3_6 
REMARK    2  A    between atoms: C7_12  and  N5_13 
REMARK    3  A    between atoms: N5_13  and  C8_14 
REMARK    4  A    between atoms: C11_17  and  C12_18 
REMARK    5  A    between atoms: C12_18  and  C13_19 
ROOT
HETATM    1  C1  UNL     1      23.150  -0.701  53.994  1.00  0.00     0.180 C 
HETATM    2  N1  UNL     1      24.530  -0.356  53.705  1.00  0.00    -0.271 N 
HETATM    3  N2  UNL     1      25.676  -0.847  54.153  1.00  0.00    -0.166 NA
HETATM    4  C2  UNL     1      26.705  -0.207  53.592  1.00  0.00     0.153 A 
HETATM    5  C4  UNL     1      26.200   0.755  52.732  1.00  0.00     0.009 A 
HETATM    6  C5  UNL     1      24.828   0.622  52.837  1.00  0.00     0.091 A 
HETATM    7  C6  UNL     1      24.062   1.513  51.985  1.00  0.00     0.112 A 
HETATM    8  N4  UNL     1      22.743   1.531  51.965  1.00  0.00    -0.060 NA
HETATM    9  C7  UNL     1      22.024   2.359  51.188  1.00  0.00     0.723 A 
HETATM   10  N6  UNL     1      22.699   3.212  50.393  1.00  0.00    -0.075 NA
HETATM   11  C15 UNL     1      24.053   3.228  50.378  1.00  0.00     0.146 A 
HETATM   12  C16 UNL     1      24.797   2.361  51.190  1.00  0.00    -0.008 A 
HETATM   13  C17 UNL     1      26.261   2.533  51.010  1.00  0.00     0.047 C 
HETATM   14  C18 UNL     1      27.048   1.684  51.959  1.00  0.00     0.048 C 
ENDROOT
BRANCH   9  15
HETATM   15  N5  UNL     1      20.604   2.324  51.243  1.00  0.00    -0.218 N 
HETATM   16  H6  UNL     1      20.187   2.332  52.227  1.00  0.00     0.178 HD
BRANCH  15  17
HETATM   17  C8  UNL     1      19.640   2.275  50.162  1.00  0.00     0.100 C 
HETATM   18  C9  UNL     1      18.401   3.080  50.554  1.00  0.00     0.026 C 
HETATM   19  C10 UNL     1      17.625   2.052  51.409  1.00  0.00     0.007 C 
HETATM   20  C11 UNL     1      17.698   0.858  50.525  1.00  0.00    -0.006 C 
HETATM   21  C14 UNL     1      19.147   0.840  50.056  1.00  0.00     0.030 C 
BRANCH  20  22
HETATM   22  C12 UNL     1      17.366  -0.442  51.230  1.00  0.00     0.074 C 
BRANCH  22  23
HETATM   23  C13 UNL     1      18.117  -0.546  52.511  1.00  0.00     0.231 C 
HETATM   24  O2  UNL     1      17.658  -1.304  53.366  1.00  0.00    -0.307 OA
ENDBRANCH  22  23
ENDBRANCH  20  22
ENDBRANCH  15  17
ENDBRANCH   9  15
BRANCH   4  25
HETATM   25  C3  UNL     1      28.085  -0.564  53.919  1.00  0.00     0.270 C 
HETATM   26  N3  UNL     1      28.967   0.212  54.692  1.00  0.00    -0.365 N 
HETATM   27  H4  UNL     1      29.705   0.773  54.205  1.00  0.00     0.159 HD
HETATM   28  H5  UNL     1      29.206   0.480  55.669  1.00  0.00     0.159 HD
HETATM   29  O1  UNL     1      28.504  -1.675  53.456  1.00  0.00    -0.266 OA
ENDBRANCH   4  25
TORSDOF 5
ENDMDL
MODEL 8
REMARK VINA RESULT:      -7.7      2.755      3.746
REMARK  5 active torsions:
REMARK  status: ('A' for Active; 'I' for Inactive)
REMARK    1  A    between atoms: C2_4  and  C3_5 
REMARK       I    between atoms: C3_5  and  N3_6 
REMARK    2  A    between atoms: C7_12  and  N5_13 
REMARK    3  A    between atoms: N5_13  and  C8_14 
REMARK    4  A    between atoms: C11_17  and  C12_18 
REMARK    5  A    between atoms: C12_18  and  C13_19 
ROOT
HETATM    1  C1  UNL     1      28.322   1.886  53.357  1.00  0.00     0.180 C 
HETATM    2  N1  UNL     1      27.031   1.243  53.521  1.00  0.00    -0.271 N 
HETATM    3  N2  UNL     1      26.586   0.369  54.412  1.00  0.00    -0.166 NA
HETATM    4  C2  UNL     1      25.310   0.062  54.162  1.00  0.00     0.153 A 
HETATM    5  C4  UNL     1      24.903   0.777  53.047  1.00  0.00     0.009 A 
HETATM    6  C5  UNL     1      26.019   1.505  52.681  1.00  0.00     0.091 A 
HETATM    7  C6  UNL     1      25.829   2.379  51.538  1.00  0.00     0.112 A 
HETATM    8  N4  UNL     1      26.790   3.137  51.043  1.00  0.00    -0.060 NA
HETATM    9  C7  UNL     1      26.627   3.941  49.979  1.00  0.00     0.723 A 
HETATM   10  N6  UNL     1      25.413   3.965  49.395  1.00  0.00    -0.075 NA
HETATM   11  C15 UNL     1      24.397   3.206  49.867  1.00  0.00     0.146 A 
HETATM   12  C16 UNL     1      24.573   2.370  50.978  1.00  0.00    -0.008 A 
HETATM   13  C17 UNL     1      23.331   1.637  51.339  1.00  0.00     0.047 C 
HETATM   14  C18 UNL     1      23.555   0.665  52.454  1.00  0.00     0.048 C 
ENDROOT
BRANCH   9  15
HETATM   15  N5  UNL     1      27.722   4.711  49.502  1.00  0.00    -0.218 N 
HETATM   16  H6  UNL     1      28.510   4.866  50.208  1.00  0.00     0.178 HD
BRANCH  15  17
HETATM   17  C8  UNL     1      27.925   5.320  48.203  1.00  0.00     0.100 C 
HETATM   18  C9  UNL     1      29.425   5.430  47.926  1.00  0.00     0.026 C 
HETATM   19  C10 UNL     1      29.784   6.727  48.687  1.00  0.00     0.007 C 
HETATM   20  C11 UNL     1      28.698   7.626  48.212  1.00  0.00    -0.006 C 
HETATM   21  C14 UNL     1      27.446   6.760  48.295  1.00  0.00     0.030 C 
BRANCH  20  22
HETATM   22  C12 UNL     1      28.523   8.870  49.059  1.00  0.00     0.074 C 
BRANCH  22  23
HETATM   23  C13 UNL     1      29.848   9.459  49.397  1.00  0.00     0.231 C 
HETATM   24  O2  UNL     1      30.271  10.345  48.653  1.00  0.00    -0.307 OA
ENDBRANCH  22  23
ENDBRANCH  20  22
ENDBRANCH  15  17
ENDBRANCH   9  15
BRANCH   4  25
HETATM   25  C3  UNL     1      24.582  -0.883  55.007  1.00  0.00     0.270 C 
HETATM   26  N3  UNL     1      25.096  -1.518  56.152  1.00  0.00    -0.365 N 
HETATM   27  H4  UNL     1      25.405  -2.516  56.081  1.00  0.00     0.159 HD
HETATM   28  H5  UNL     1      25.317  -1.373  57.159  1.00  0.00     0.159 HD
HETATM   29  O1  UNL     1      23.382  -1.140  54.662  1.00  0.00    -0.266 OA
ENDBRANCH   4  25
TORSDOF 5
ENDMDL
MODEL 9
REMARK VINA RESULT:      -7.6      2.514      4.994
REMARK  5 active torsions:
REMARK  status: ('A' for Active; 'I' for Inactive)
REMARK    1  A    between atoms: C2_4  and  C3_5 
REMARK       I    between atoms: C3_5  and  N3_6 
REMARK    2  A    between atoms: C7_12  and  N5_13 
REMARK    3  A    between atoms: N5_13  and  C8_14 
REMARK    4  A    between atoms: C11_17  and  C12_18 
REMARK    5  A    between atoms: C12_18  and  C13_19 
ROOT
HETATM    1  C1  UNL     1      26.277   3.373  50.449  1.00  0.00     0.180 C 
HETATM    2  N1  UNL     1      26.700   2.507  51.535  1.00  0.00    -0.271 N 
HETATM    3  N2  UNL     1      27.867   2.362  52.146  1.00  0.00    -0.166 NA
HETATM    4  C2  UNL     1      27.776   1.434  53.103  1.00  0.00     0.153 A 
HETATM    5  C4  UNL     1      26.478   0.948  53.113  1.00  0.00     0.009 A 
HETATM    6  C5  UNL     1      25.841   1.654  52.111  1.00  0.00     0.091 A 
HETATM    7  C6  UNL     1      24.432   1.344  51.949  1.00  0.00     0.112 A 
HETATM    8  N4  UNL     1      23.671   1.912  51.033  1.00  0.00    -0.060 NA
HETATM    9  C7  UNL     1      22.368   1.625  50.868  1.00  0.00     0.723 A 
HETATM   10  N6  UNL     1      21.824   0.704  51.687  1.00  0.00    -0.075 NA
HETATM   11  C15 UNL     1      22.565   0.095  52.643  1.00  0.00     0.146 A 
HETATM   12  C16 UNL     1      23.923   0.401  52.811  1.00  0.00    -0.008 A 
HETATM   13  C17 UNL     1      24.544  -0.368  53.920  1.00  0.00     0.047 C 
HETATM   14  C18 UNL     1      26.016  -0.119  54.021  1.00  0.00     0.048 C 
ENDROOT
BRANCH   9  15
HETATM   15  N5  UNL     1      21.626   2.273  49.844  1.00  0.00    -0.218 N 
HETATM   16  H6  UNL     1      21.720   1.839  48.871  1.00  0.00     0.178 HD
BRANCH  15  17
HETATM   17  C8  UNL     1      20.767   3.436  49.922  1.00  0.00     0.100 C 
HETATM   18  C9  UNL     1      20.437   3.917  48.509  1.00  0.00     0.026 C 
HETATM   19  C10 UNL     1      21.689   4.758  48.171  1.00  0.00     0.007 C 
HETATM   20  C11 UNL     1      21.808   5.573  49.409  1.00  0.00    -0.006 C 
HETATM   21  C14 UNL     1      21.582   4.566  50.530  1.00  0.00     0.030 C 
BRANCH  20  22
HETATM   22  C12 UNL     1      23.160   6.237  49.574  1.00  0.00     0.074 C 
BRANCH  22  23
HETATM   23  C13 UNL     1      22.999   7.616  50.111  1.00  0.00     0.231 C 
HETATM   24  O2  UNL     1      23.766   7.956  51.013  1.00  0.00    -0.307 OA
ENDBRANCH  22  23
ENDBRANCH  20  22
ENDBRANCH  15  17
ENDBRANCH   9  15
BRANCH   4  25
HETATM   25  C3  UNL     1      28.931   1.088  53.930  1.00  0.00     0.270 C 
HETATM   26  N3  UNL     1      29.306   1.737  55.120  1.00  0.00    -0.365 N 
HETATM   27  H4  UNL     1      30.099   2.420  55.096  1.00  0.00     0.159 HD
HETATM   28  H5  UNL     1      29.082   1.816  56.134  1.00  0.00     0.159 HD
HETATM   29  O1  UNL     1      29.645   0.114  53.523  1.00  0.00    -0.266 OA
ENDBRANCH   4  25
TORSDOF 5
ENDMDL
