MODEL 1
REMARK VINA RESULT:      -8.1      0.000      0.000
REMARK  6 active torsions:
REMARK  status: ('A' for Active; 'I' for Inactive)
REMARK    1  A    between atoms: C2_2  and  C3_3 
REMARK    2  A    between atoms: C4_5  and  C5_6 
REMARK    3  A    between atoms: C5_6  and  C6_7 
REMARK    4  A    between atoms: C10_12  and  C11_13 
REMARK    5  A    between atoms: C11_13  and  C12_15 
REMARK    6  A    between atoms: C15_20  and  N2_21 
ROOT
HETATM    1  C6  UNL     1      22.055   1.205  51.783  1.00  0.00     0.033 C 
HETATM    2  N1  UNL     1      22.333   0.498  52.753  1.00  0.00    -0.293 NA
HETATM    3  C7  UNL     1      23.633   0.133  53.298  1.00  0.00     0.096 C 
HETATM    4  C8  UNL     1      24.509  -0.664  54.067  1.00  0.00     0.098 C 
HETATM    5  C9  UNL     1      25.876  -0.250  54.025  1.00  0.00    -0.009 C 
HETATM    6  C10 UNL     1      27.122   0.217  53.919  1.00  0.00    -0.025 C 
HETATM    7  C13 UNL     1      27.697   1.254  53.086  1.00  0.00     0.028 C 
HETATM    8  C14 UNL     1      26.879   1.923  52.199  1.00  0.00     0.067 C 
HETATM    9  C15 UNL     1      26.142   2.675  51.255  1.00  0.00     0.101 C 
HETATM   10  N3  UNL     1      25.094   2.909  50.700  1.00  0.00    -0.248 NA
HETATM   11  C16 UNL     1      23.798   2.660  50.513  1.00  0.00     0.120 C 
HETATM   12  C17 UNL     1      22.583   2.104  50.777  1.00  0.00     0.046 C 
ENDROOT
BRANCH   1  13
HETATM   13  C5  UNL     1      20.578   1.188  51.741  1.00  0.00     0.087 C 
BRANCH  13  14
HETATM   14  C4  UNL     1      20.094   0.041  52.602  1.00  0.00    -0.001 C 
HETATM   15  C3  UNL     1      18.929  -0.635  52.750  1.00  0.00     0.009 C 
HETATM   16 CL1  UNL     1      17.967   0.247  51.587  1.00  0.00    -0.089 Cl
BRANCH  15  17
HETATM   17  C2  UNL     1      19.037  -1.716  53.784  1.00  0.00     0.015 C 
HETATM   18  C1  UNL     1      17.783  -2.009  53.400  1.00  0.00     0.041 C 
ENDBRANCH  15  17
ENDBRANCH  13  14
ENDBRANCH   1  13
BRANCH   9  19
HETATM   19  N2  UNL     1      26.842   3.666  50.542  1.00  0.00    -0.387 N 
HETATM   20  H14 UNL     1      27.723   4.252  50.644  1.00  0.00     0.157 HD
HETATM   21  H15 UNL     1      26.811   4.256  49.664  1.00  0.00     0.157 HD
ENDBRANCH   9  19
BRANCH   6  22
HETATM   22  C11 UNL     1      28.416  -0.138  54.478  1.00  0.00     0.267 C 
HETATM   23  F1  UNL     1      29.197   0.922  54.881  1.00  0.00    -0.238 F 
BRANCH  22  24
HETATM   24  C12 UNL     1      29.283  -0.885  53.435  1.00  0.00     0.391 C 
HETATM   25  F2  UNL     1      30.435  -1.254  54.141  1.00  0.00    -0.211 F 
HETATM   26  F3  UNL     1      28.595  -2.031  53.077  1.00  0.00    -0.211 F 
ENDBRANCH  22  24
ENDBRANCH   6  22
TORSDOF 6
ENDMDL
MODEL 2
REMARK VINA RESULT:      -7.8      4.674      7.772
REMARK  6 active torsions:
REMARK  status: ('A' for Active; 'I' for Inactive)
REMARK    1  A    between atoms: C2_2  and  C3_3 
REMARK    2  A    between atoms: C4_5  and  C5_6 
REMARK    3  A    between atoms: C5_6  and  C6_7 
REMARK    4  A    between atoms: C10_12  and  C11_13 
REMARK    5  A    between atoms: C11_13  and  C12_15 
REMARK    6  A    between atoms: C15_20  and  N2_21 
ROOT
HETATM    1  C6  UNL     1      25.631   1.767  51.521  1.00  0.00     0.033 C 
HETATM    2  N1  UNL     1      24.510   2.076  51.115  1.00  0.00    -0.293 NA
HETATM    3  C7  UNL     1      23.209   1.513  51.450  1.00  0.00     0.096 C 
HETATM    4  C8  UNL     1      21.837   1.265  51.227  1.00  0.00     0.098 C 
HETATM    5  C9  UNL     1      21.211   0.459  52.227  1.00  0.00    -0.009 C 
HETATM    6  C10 UNL     1      20.723  -0.299  53.212  1.00  0.00    -0.025 C 
HETATM    7  C13 UNL     1      21.366  -0.975  54.320  1.00  0.00     0.028 C 
HETATM    8  C14 UNL     1      22.737  -0.884  54.446  1.00  0.00     0.067 C 
HETATM    9  C15 UNL     1      24.132  -0.863  54.680  1.00  0.00     0.101 C 
HETATM   10  N3  UNL     1      25.237  -0.507  54.347  1.00  0.00    -0.248 NA
HETATM   11  C16 UNL     1      26.046   0.136  53.505  1.00  0.00     0.120 C 
HETATM   12  C17 UNL     1      26.371   0.961  52.471  1.00  0.00     0.046 C 
ENDROOT
BRANCH   1  13
HETATM   13  C5  UNL     1      26.535   2.696  50.811  1.00  0.00     0.087 C 
BRANCH  13  14
HETATM   14  C4  UNL     1      25.723   3.885  50.349  1.00  0.00    -0.001 C 
HETATM   15  C3  UNL     1      25.880   4.868  49.429  1.00  0.00     0.009 C 
HETATM   16 CL1  UNL     1      27.457   4.411  48.828  1.00  0.00    -0.089 Cl
BRANCH  15  17
HETATM   17  C2  UNL     1      24.710   5.804  49.404  1.00  0.00     0.015 C 
HETATM   18  C1  UNL     1      24.042   4.728  48.957  1.00  0.00     0.041 C 
ENDBRANCH  15  17
ENDBRANCH  13  14
ENDBRANCH   1  13
BRANCH   9  19
HETATM   19  N2  UNL     1      24.599  -1.549  55.817  1.00  0.00    -0.387 N 
HETATM   20  H14 UNL     1      24.484  -2.498  56.281  1.00  0.00     0.157 HD
HETATM   21  H15 UNL     1      25.208  -1.443  56.676  1.00  0.00     0.157 HD
ENDBRANCH   9  19
BRANCH   6  22
HETATM   22  C11 UNL     1      19.420  -0.844  53.553  1.00  0.00     0.267 C 
HETATM   23  F1  UNL     1      19.413  -2.171  53.924  1.00  0.00    -0.238 F 
BRANCH  22  24
HETATM   24  C12 UNL     1      18.457  -0.775  52.342  1.00  0.00     0.391 C 
HETATM   25  F2  UNL     1      17.417  -1.652  52.675  1.00  0.00    -0.211 F 
HETATM   26  F3  UNL     1      17.954   0.513  52.294  1.00  0.00    -0.211 F 
ENDBRANCH  22  24
ENDBRANCH   6  22
TORSDOF 6
ENDMDL
MODEL 3
REMARK VINA RESULT:      -7.7      4.992      7.676
REMARK  6 active torsions:
REMARK  status: ('A' for Active; 'I' for Inactive)
REMARK    1  A    between atoms: C2_2  and  C3_3 
REMARK    2  A    between atoms: C4_5  and  C5_6 
REMARK    3  A    between atoms: C5_6  and  C6_7 
REMARK    4  A    between atoms: C10_12  and  C11_13 
REMARK    5  A    between atoms: C11_13  and  C12_15 
REMARK    6  A    between atoms: C15_20  and  N2_21 
ROOT
HETATM    1  C6  UNL     1      25.544   1.218  51.911  1.00  0.00     0.033 C 
HETATM    2  N1  UNL     1      26.418   1.629  51.147  1.00  0.00    -0.293 NA
HETATM    3  C7  UNL     1      26.461   2.846  50.348  1.00  0.00     0.096 C 
HETATM    4  C8  UNL     1      26.932   3.655  49.292  1.00  0.00     0.098 C 
HETATM    5  C9  UNL     1      26.305   4.936  49.202  1.00  0.00    -0.009 C 
HETATM    6  C10 UNL     1      25.659   6.105  49.205  1.00  0.00    -0.025 C 
HETATM    7  C13 UNL     1      24.532   6.583  49.980  1.00  0.00     0.028 C 
HETATM    8  C14 UNL     1      23.948   5.733  50.896  1.00  0.00     0.067 C 
HETATM    9  C15 UNL     1      23.269   4.955  51.863  1.00  0.00     0.101 C 
HETATM   10  N3  UNL     1      23.138   3.908  52.451  1.00  0.00    -0.248 NA
HETATM   11  C16 UNL     1      23.506   2.646  52.672  1.00  0.00     0.120 C 
HETATM   12  C17 UNL     1      24.297   1.541  52.574  1.00  0.00     0.046 C 
ENDROOT
BRANCH   1  13
HETATM   13  C5  UNL     1      26.082  -0.064  52.412  1.00  0.00     0.087 C 
BRANCH  13  14
HETATM   14  C4  UNL     1      27.509   0.165  52.859  1.00  0.00    -0.001 C 
HETATM   15  C3  UNL     1      28.142   0.299  54.050  1.00  0.00     0.009 C 
HETATM   16 CL1  UNL     1      26.752   0.152  55.100  1.00  0.00    -0.089 Cl
BRANCH  15  17
HETATM   17  C2  UNL     1      29.616   0.511  53.880  1.00  0.00     0.015 C 
HETATM   18  C1  UNL     1      29.614  -0.781  53.513  1.00  0.00     0.041 C 
ENDBRANCH  15  17
ENDBRANCH  13  14
ENDBRANCH   1  13
BRANCH   9  19
HETATM   19  N2  UNL     1      22.209   5.575  52.551  1.00  0.00    -0.387 N 
HETATM   20  H14 UNL     1      22.012   5.990  53.509  1.00  0.00     0.157 HD
HETATM   21  H15 UNL     1      21.198   5.870  52.454  1.00  0.00     0.157 HD
ENDBRANCH   9  19
BRANCH   6  22
HETATM   22  C11 UNL     1      25.716   7.324  48.417  1.00  0.00     0.267 C 
HETATM   23  F1  UNL     1      25.263   7.213  47.121  1.00  0.00    -0.238 F 
BRANCH  22  24
HETATM   24  C12 UNL     1      27.175   7.823  48.276  1.00  0.00     0.391 C 
HETATM   25  F2  UNL     1      27.658   7.860  49.591  1.00  0.00    -0.211 F 
HETATM   26  F3  UNL     1      27.872   6.855  47.575  1.00  0.00    -0.211 F 
ENDBRANCH  22  24
ENDBRANCH   6  22
TORSDOF 6
ENDMDL
MODEL 4
REMARK VINA RESULT:      -7.7      4.495      7.562
REMARK  6 active torsions:
REMARK  status: ('A' for Active; 'I' for Inactive)
REMARK    1  A    between atoms: C2_2  and  C3_3 
REMARK    2  A    between atoms: C4_5  and  C5_6 
REMARK    3  A    between atoms: C5_6  and  C6_7 
REMARK    4  A    between atoms: C10_12  and  C11_13 
REMARK    5  A    between atoms: C11_13  and  C12_15 
REMARK    6  A    between atoms: C15_20  and  N2_21 
ROOT
HETATM    1  C6  UNL     1      25.311   3.344  49.901  1.00  0.00     0.033 C 
HETATM    2  N1  UNL     1      25.552   2.811  50.985  1.00  0.00    -0.293 NA
HETATM    3  C7  UNL     1      24.654   2.135  51.911  1.00  0.00     0.096 C 
HETATM    4  C8  UNL     1      24.283   1.621  53.172  1.00  0.00     0.098 C 
HETATM    5  C9  UNL     1      22.986   1.023  53.209  1.00  0.00    -0.009 C 
HETATM    6  C10 UNL     1      21.763   0.490  53.138  1.00  0.00    -0.025 C 
HETATM    7  C13 UNL     1      20.773   0.483  52.081  1.00  0.00     0.028 C 
HETATM    8  C14 UNL     1      21.058   1.138  50.900  1.00  0.00     0.067 C 
HETATM    9  C15 UNL     1      21.236   1.773  49.649  1.00  0.00     0.101 C 
HETATM   10  N3  UNL     1      21.919   2.441  48.909  1.00  0.00    -0.248 NA
HETATM   11  C16 UNL     1      23.036   3.122  48.658  1.00  0.00     0.120 C 
HETATM   12  C17 UNL     1      24.307   3.560  48.879  1.00  0.00     0.046 C 
ENDROOT
BRANCH   1  13
HETATM   13  C5  UNL     1      26.626   3.852  49.454  1.00  0.00     0.087 C 
BRANCH  13  14
HETATM   14  C4  UNL     1      26.441   5.269  48.956  1.00  0.00    -0.001 C 
HETATM   15  C3  UNL     1      27.231   6.200  48.369  1.00  0.00     0.009 C 
HETATM   16 CL1  UNL     1      28.722   5.289  48.328  1.00  0.00    -0.089 Cl
BRANCH  15  17
HETATM   17  C2  UNL     1      26.484   7.469  48.085  1.00  0.00     0.015 C 
HETATM   18  C1  UNL     1      26.833   7.786  49.343  1.00  0.00     0.041 C 
ENDBRANCH  15  17
ENDBRANCH  13  14
ENDBRANCH   1  13
BRANCH   9  19
HETATM   19  N2  UNL     1      20.188   1.651  48.717  1.00  0.00    -0.387 N 
HETATM   20  H14 UNL     1      19.484   2.272  48.220  1.00  0.00     0.157 HD
HETATM   21  H15 UNL     1      19.646   0.946  48.144  1.00  0.00     0.157 HD
ENDBRANCH   9  19
BRANCH   6  22
HETATM   22  C11 UNL     1      20.877  -0.199  54.060  1.00  0.00     0.267 C 
HETATM   23  F1  UNL     1      20.575   0.487  55.216  1.00  0.00    -0.238 F 
BRANCH  22  24
HETATM   24  C12 UNL     1      21.511  -1.524  54.550  1.00  0.00     0.391 C 
HETATM   25  F2  UNL     1      22.160  -2.038  53.419  1.00  0.00    -0.211 F 
HETATM   26  F3  UNL     1      22.465  -1.195  55.496  1.00  0.00    -0.211 F 
ENDBRANCH  22  24
ENDBRANCH   6  22
TORSDOF 6
ENDMDL
MODEL 5
REMARK VINA RESULT:      -7.7      2.141      3.305
REMARK  6 active torsions:
REMARK  status: ('A' for Active; 'I' for Inactive)
REMARK    1  A    between atoms: C2_2  and  C3_3 
REMARK    2  A    between atoms: C4_5  and  C5_6 
REMARK    3  A    between atoms: C5_6  and  C6_7 
REMARK    4  A    between atoms: C10_12  and  C11_13 
REMARK    5  A    between atoms: C11_13  and  C12_15 
REMARK    6  A    between atoms: C15_20  and  N2_21 
ROOT
HETATM    1  C6  UNL     1      18.972  -0.324  52.374  1.00  0.00     0.033 C 
HETATM    2  N1  UNL     1      19.576  -0.748  53.361  1.00  0.00    -0.293 NA
HETATM    3  C7  UNL     1      21.002  -0.741  53.655  1.00  0.00     0.096 C 
HETATM    4  C8  UNL     1      22.161  -1.181  54.330  1.00  0.00     0.098 C 
HETATM    5  C9  UNL     1      23.368  -0.536  53.917  1.00  0.00    -0.009 C 
HETATM    6  C10 UNL     1      24.435   0.123  53.459  1.00  0.00    -0.025 C 
HETATM    7  C13 UNL     1      24.597   1.053  52.360  1.00  0.00     0.028 C 
HETATM    8  C14 UNL     1      23.501   1.356  51.579  1.00  0.00     0.067 C 
HETATM    9  C15 UNL     1      22.452   1.743  50.713  1.00  0.00     0.101 C 
HETATM   10  N3  UNL     1      21.295   1.655  50.375  1.00  0.00    -0.248 NA
HETATM   11  C16 UNL     1      20.077   1.135  50.525  1.00  0.00     0.120 C 
HETATM   12  C17 UNL     1      19.089   0.429  51.142  1.00  0.00     0.046 C 
ENDROOT
BRANCH   1  13
HETATM   13  C5  UNL     1      17.555  -0.626  52.667  1.00  0.00     0.087 C 
BRANCH  13  14
HETATM   14  C4  UNL     1      17.472  -2.044  53.188  1.00  0.00    -0.001 C 
HETATM   15  C3  UNL     1      16.587  -3.065  53.083  1.00  0.00     0.009 C 
HETATM   16 CL1  UNL     1      15.384  -2.265  52.098  1.00  0.00    -0.089 Cl
BRANCH  15  17
HETATM   17  C2  UNL     1      17.043  -4.280  53.831  1.00  0.00     0.015 C 
HETATM   18  C1  UNL     1      15.882  -4.803  53.405  1.00  0.00     0.041 C 
ENDBRANCH  15  17
ENDBRANCH  13  14
ENDBRANCH   1  13
BRANCH   9  19
HETATM   19  N2  UNL     1      22.767   2.677  49.708  1.00  0.00    -0.387 N 
HETATM   20  H14 UNL     1      23.573   2.908  49.055  1.00  0.00     0.157 HD
HETATM   21  H15 UNL     1      22.393   3.524  49.196  1.00  0.00     0.157 HD
ENDBRANCH   9  19
BRANCH   6  22
HETATM   22  C11 UNL     1      25.855   0.141  53.767  1.00  0.00     0.267 C 
HETATM   23  F1  UNL     1      26.338   1.334  54.259  1.00  0.00    -0.238 F 
BRANCH  22  24
HETATM   24  C12 UNL     1      26.699  -0.125  52.496  1.00  0.00     0.391 C 
HETATM   25  F2  UNL     1      27.969   0.374  52.812  1.00  0.00    -0.211 F 
HETATM   26  F3  UNL     1      26.786  -1.498  52.344  1.00  0.00    -0.211 F 
ENDBRANCH  22  24
ENDBRANCH   6  22
TORSDOF 6
ENDMDL
MODEL 6
REMARK VINA RESULT:      -7.5      4.762      6.793
REMARK  6 active torsions:
REMARK  status: ('A' for Active; 'I' for Inactive)
REMARK    1  A    between atoms: C2_2  and  C3_3 
REMARK    2  A    between atoms: C4_5  and  C5_6 
REMARK    3  A    between atoms: C5_6  and  C6_7 
REMARK    4  A    between atoms: C10_12  and  C11_13 
REMARK    5  A    between atoms: C11_13  and  C12_15 
REMARK    6  A    between atoms: C15_20  and  N2_21 
ROOT
HETATM    1  C6  UNL     1      23.924   2.635  51.822  1.00  0.00     0.033 C 
HETATM    2  N1  UNL     1      24.940   2.279  51.224  1.00  0.00    -0.293 NA
HETATM    3  C7  UNL     1      25.812   3.034  50.335  1.00  0.00     0.096 C 
HETATM    4  C8  UNL     1      26.792   3.165  49.327  1.00  0.00     0.098 C 
HETATM    5  C9  UNL     1      27.108   4.515  48.981  1.00  0.00    -0.009 C 
HETATM    6  C10 UNL     1      27.329   5.808  48.731  1.00  0.00    -0.025 C 
HETATM    7  C13 UNL     1      26.666   7.009  49.198  1.00  0.00     0.028 C 
HETATM    8  C14 UNL     1      25.588   6.884  50.050  1.00  0.00     0.067 C 
HETATM    9  C15 UNL     1      24.476   6.881  50.924  1.00  0.00     0.101 C 
HETATM   10  N3  UNL     1      23.663   6.266  51.572  1.00  0.00    -0.248 NA
HETATM   11  C16 UNL     1      23.144   5.111  51.989  1.00  0.00     0.120 C 
HETATM   12  C17 UNL     1      23.084   3.763  52.171  1.00  0.00     0.046 C 
ENDROOT
BRANCH   1  13
HETATM   13  C5  UNL     1      23.495   1.422  52.550  1.00  0.00     0.087 C 
BRANCH  13  14
HETATM   14  C4  UNL     1      24.734   0.683  53.007  1.00  0.00    -0.001 C 
HETATM   15  C3  UNL     1      24.985  -0.406  53.774  1.00  0.00     0.009 C 
HETATM   16 CL1  UNL     1      23.338  -0.809  54.199  1.00  0.00    -0.089 Cl
BRANCH  15  17
HETATM   17  C2  UNL     1      26.453  -0.687  53.883  1.00  0.00     0.015 C 
HETATM   18  C1  UNL     1      26.388  -0.782  52.545  1.00  0.00     0.041 C 
ENDBRANCH  15  17
ENDBRANCH  13  14
ENDBRANCH   1  13
BRANCH   9  19
HETATM   19  N2  UNL     1      23.963   8.135  51.307  1.00  0.00    -0.387 N 
HETATM   20  H14 UNL     1      23.021   8.588  51.499  1.00  0.00     0.157 HD
HETATM   21  H15 UNL     1      24.245   9.128  51.538  1.00  0.00     0.157 HD
ENDBRANCH   9  19
BRANCH   6  22
HETATM   22  C11 UNL     1      28.212   6.560  47.856  1.00  0.00     0.267 C 
HETATM   23  F1  UNL     1      29.353   5.898  47.457  1.00  0.00    -0.238 F 
BRANCH  22  24
HETATM   24  C12 UNL     1      28.732   7.837  48.561  1.00  0.00     0.391 C 
HETATM   25  F2  UNL     1      30.062   7.539  48.885  1.00  0.00    -0.211 F 
HETATM   26  F3  UNL     1      28.720   8.855  47.624  1.00  0.00    -0.211 F 
ENDBRANCH  22  24
ENDBRANCH   6  22
TORSDOF 6
ENDMDL
MODEL 7
REMARK VINA RESULT:      -7.4      4.594      7.623
REMARK  6 active torsions:
REMARK  status: ('A' for Active; 'I' for Inactive)
REMARK    1  A    between atoms: C2_2  and  C3_3 
REMARK    2  A    between atoms: C4_5  and  C5_6 
REMARK    3  A    between atoms: C5_6  and  C6_7 
REMARK    4  A    between atoms: C10_12  and  C11_13 
REMARK    5  A    between atoms: C11_13  and  C12_15 
REMARK    6  A    between atoms: C15_20  and  N2_21 
ROOT
HETATM    1  C6  UNL     1      26.360   4.127  49.722  1.00  0.00     0.033 C 
HETATM    2  N1  UNL     1      26.781   3.062  50.175  1.00  0.00    -0.293 NA
HETATM    3  C7  UNL     1      26.183   2.162  51.151  1.00  0.00     0.096 C 
HETATM    4  C8  UNL     1      26.214   1.124  52.107  1.00  0.00     0.098 C 
HETATM    5  C9  UNL     1      24.950   0.836  52.710  1.00  0.00    -0.009 C 
HETATM    6  C10 UNL     1      23.727   0.647  53.211  1.00  0.00    -0.025 C 
HETATM    7  C13 UNL     1      22.490   1.382  53.043  1.00  0.00     0.028 C 
HETATM    8  C14 UNL     1      22.491   2.508  52.246  1.00  0.00     0.067 C 
HETATM    9  C15 UNL     1      22.368   3.674  51.455  1.00  0.00     0.101 C 
HETATM   10  N3  UNL     1      22.877   4.505  50.740  1.00  0.00    -0.248 NA
HETATM   11  C16 UNL     1      23.944   5.008  50.120  1.00  0.00     0.120 C 
HETATM   12  C17 UNL     1      25.228   5.029  49.664  1.00  0.00     0.046 C 
ENDROOT
BRANCH   1  13
HETATM   13  C5  UNL     1      27.416   4.557  48.782  1.00  0.00     0.087 C 
BRANCH  13  14
HETATM   14  C4  UNL     1      27.283   6.050  48.572  1.00  0.00    -0.001 C 
HETATM   15  C3  UNL     1      28.083   7.038  48.104  1.00  0.00     0.009 C 
HETATM   16 CL1  UNL     1      29.508   6.082  47.771  1.00  0.00    -0.089 Cl
BRANCH  15  17
HETATM   17  C2  UNL     1      27.396   8.370  48.123  1.00  0.00     0.015 C 
HETATM   18  C1  UNL     1      26.605   7.815  47.191  1.00  0.00     0.041 C 
ENDBRANCH  15  17
ENDBRANCH  13  14
ENDBRANCH   1  13
BRANCH   9  19
HETATM   19  N2  UNL     1      21.090   4.258  51.372  1.00  0.00    -0.387 N 
HETATM   20  H14 UNL     1      20.475   4.920  51.931  1.00  0.00     0.157 HD
HETATM   21  H15 UNL     1      20.212   4.288  50.781  1.00  0.00     0.157 HD
ENDBRANCH   9  19
BRANCH   6  22
HETATM   22  C11 UNL     1      23.129  -0.264  54.173  1.00  0.00     0.267 C 
HETATM   23  F1  UNL     1      23.980  -1.212  54.697  1.00  0.00    -0.238 F 
BRANCH  22  24
HETATM   24  C12 UNL     1      21.989  -1.083  53.521  1.00  0.00     0.391 C 
HETATM   25  F2  UNL     1      22.632  -1.866  52.553  1.00  0.00    -0.211 F 
HETATM   26  F3  UNL     1      21.476  -1.919  54.498  1.00  0.00    -0.211 F 
ENDBRANCH  22  24
ENDBRANCH   6  22
TORSDOF 6
ENDMDL
MODEL 8
REMARK VINA RESULT:      -7.3      2.839      5.572
REMARK  6 active torsions:
REMARK  status: ('A' for Active; 'I' for Inactive)
REMARK    1  A    between atoms: C2_2  and  C3_3 
REMARK    2  A    between atoms: C4_5  and  C5_6 
REMARK    3  A    between atoms: C5_6  and  C6_7 
REMARK    4  A    between atoms: C10_12  and  C11_13 
REMARK    5  A    between atoms: C11_13  and  C12_15 
REMARK    6  A    between atoms: C15_20  and  N2_21 
ROOT
HETATM    1  C6  UNL     1      22.935   4.007  50.508  1.00  0.00     0.033 C 
HETATM    2  N1  UNL     1      24.096   3.883  50.116  1.00  0.00    -0.293 NA
HETATM    3  C7  UNL     1      25.165   3.030  50.620  1.00  0.00     0.096 C 
HETATM    4  C8  UNL     1      26.513   2.644  50.778  1.00  0.00     0.098 C 
HETATM    5  C9  UNL     1      26.705   1.488  51.596  1.00  0.00    -0.009 C 
HETATM    6  C10 UNL     1      26.777   0.405  52.373  1.00  0.00    -0.025 C 
HETATM    7  C13 UNL     1      25.771  -0.302  53.139  1.00  0.00     0.028 C 
HETATM    8  C14 UNL     1      24.476   0.174  53.133  1.00  0.00     0.067 C 
HETATM    9  C15 UNL     1      23.119   0.565  53.202  1.00  0.00     0.101 C 
HETATM   10  N3  UNL     1      22.241   1.336  52.894  1.00  0.00    -0.248 NA
HETATM   11  C16 UNL     1      21.827   2.431  52.257  1.00  0.00     0.120 C 
HETATM   12  C17 UNL     1      21.920   3.487  51.401  1.00  0.00     0.046 C 
ENDROOT
BRANCH   1  13
HETATM   13  C5  UNL     1      22.359   5.020  49.598  1.00  0.00     0.087 C 
BRANCH  13  14
HETATM   14  C4  UNL     1      23.223   6.259  49.662  1.00  0.00    -0.001 C 
HETATM   15  C3  UNL     1      23.109   7.494  50.210  1.00  0.00     0.009 C 
HETATM   16 CL1  UNL     1      21.512   7.324  50.901  1.00  0.00    -0.089 Cl
BRANCH  15  17
HETATM   17  C2  UNL     1      24.321   8.337  49.949  1.00  0.00     0.015 C 
HETATM   18  C1  UNL     1      24.962   7.370  50.627  1.00  0.00     0.041 C 
ENDBRANCH  15  17
ENDBRANCH  13  14
ENDBRANCH   1  13
BRANCH   9  19
HETATM   19  N2  UNL     1      22.259  -0.244  53.970  1.00  0.00    -0.387 N 
HETATM   20  H14 UNL     1      22.319  -0.929  54.780  1.00  0.00     0.157 HD
HETATM   21  H15 UNL     1      21.249  -0.541  54.075  1.00  0.00     0.157 HD
ENDBRANCH   9  19
BRANCH   6  22
HETATM   22  C11 UNL     1      27.842  -0.455  52.860  1.00  0.00     0.267 C 
HETATM   23  F1  UNL     1      27.433  -1.542  53.601  1.00  0.00    -0.238 F 
BRANCH  22  24
HETATM   24  C12 UNL     1      28.792   0.323  53.804  1.00  0.00     0.391 C 
HETATM   25  F2  UNL     1      28.571  -0.246  55.066  1.00  0.00    -0.211 F 
HETATM   26  F3  UNL     1      30.086   0.037  53.408  1.00  0.00    -0.211 F 
ENDBRANCH  22  24
ENDBRANCH   6  22
TORSDOF 6
ENDMDL
MODEL 9
REMARK VINA RESULT:      -7.3      4.323      7.216
REMARK  6 active torsions:
REMARK  status: ('A' for Active; 'I' for Inactive)
REMARK    1  A    between atoms: C2_2  and  C3_3 
REMARK    2  A    between atoms: C4_5  and  C5_6 
REMARK    3  A    between atoms: C5_6  and  C6_7 
REMARK    4  A    between atoms: C10_12  and  C11_13 
REMARK    5  A    between atoms: C11_13  and  C12_15 
REMARK    6  A    between atoms: C15_20  and  N2_21 
ROOT
HETATM    1  C6  UNL     1      24.567   3.909  49.726  1.00  0.00     0.033 C 
HETATM    2  N1  UNL     1      23.406   3.607  50.004  1.00  0.00    -0.293 NA
HETATM    3  C7  UNL     1      22.897   2.504  50.808  1.00  0.00     0.096 C 
HETATM    4  C8  UNL     1      21.899   1.606  51.244  1.00  0.00     0.098 C 
HETATM    5  C9  UNL     1      22.339   0.662  52.222  1.00  0.00    -0.009 C 
HETATM    6  C10 UNL     1      22.849  -0.174  53.130  1.00  0.00    -0.025 C 
HETATM    7  C13 UNL     1      24.204  -0.380  53.600  1.00  0.00     0.028 C 
HETATM    8  C14 UNL     1      25.219   0.375  53.049  1.00  0.00     0.067 C 
HETATM    9  C15 UNL     1      26.338   1.088  52.562  1.00  0.00     0.101 C 
HETATM   10  N3  UNL     1      26.800   1.915  51.811  1.00  0.00    -0.248 NA
HETATM   11  C16 UNL     1      26.648   2.816  50.841  1.00  0.00     0.120 C 
HETATM   12  C17 UNL     1      25.964   3.628  49.987  1.00  0.00     0.046 C 
ENDROOT
BRANCH   1  13
HETATM   13  C5  UNL     1      24.429   5.114  48.881  1.00  0.00     0.087 C 
BRANCH  13  14
HETATM   14  C4  UNL     1      25.743   5.863  48.907  1.00  0.00    -0.001 C 
HETATM   15  C3  UNL     1      26.234   6.980  48.317  1.00  0.00     0.009 C 
HETATM   16 CL1  UNL     1      24.829   7.412  47.370  1.00  0.00    -0.089 Cl
BRANCH  15  17
HETATM   17  C2  UNL     1      27.648   7.256  48.730  1.00  0.00     0.015 C 
HETATM   18  C1  UNL     1      27.885   6.041  48.209  1.00  0.00     0.041 C 
ENDBRANCH  15  17
ENDBRANCH  13  14
ENDBRANCH   1  13
BRANCH   9  19
HETATM   19  N2  UNL     1      27.587   0.790  53.142  1.00  0.00    -0.387 N 
HETATM   20  H14 UNL     1      28.619   0.875  52.904  1.00  0.00     0.157 HD
HETATM   21  H15 UNL     1      28.040   0.359  53.995  1.00  0.00     0.157 HD
ENDBRANCH   9  19
BRANCH   6  22
HETATM   22  C11 UNL     1      22.334  -1.262  53.944  1.00  0.00     0.267 C 
HETATM   23  F1  UNL     1      22.063  -2.431  53.266  1.00  0.00    -0.238 F 
BRANCH  22  24
HETATM   24  C12 UNL     1      20.986  -0.872  54.598  1.00  0.00     0.391 C 
HETATM   25  F2  UNL     1      21.177   0.448  55.028  1.00  0.00    -0.211 F 
HETATM   26  F3  UNL     1      20.029  -0.879  53.599  1.00  0.00    -0.211 F 
ENDBRANCH  22  24
ENDBRANCH   6  22
TORSDOF 6
ENDMDL
