MODEL 1
REMARK VINA RESULT:      -7.6      0.000      0.000
REMARK  6 active torsions:
REMARK  status: ('A' for Active; 'I' for Inactive)
REMARK    1  A    between atoms: C2_2  and  C3_3 
REMARK    2  A    between atoms: C3_3  and  N1_4 
REMARK    3  A    between atoms: N1_4  and  C4_5 
REMARK       I    between atoms: N1_4  and  C11_14 
REMARK    4  A    between atoms: C4_5  and  C5_6 
REMARK    5  A    between atoms: C10_12  and  O1_13 
REMARK       I    between atoms: C11_14  and  N2_16 
REMARK    6  A    between atoms: N2_16  and  C12_17 
ROOT
HETATM    1  N1  UNL     1      23.480   0.529  53.320  1.00  0.00    -0.330 N 
HETATM    2  C11 UNL     1      24.875   0.249  53.356  1.00  0.00     0.323 C 
HETATM    3  O2  UNL     1      24.865  -0.973  53.664  1.00  0.00    -0.247 OA
HETATM    4  N2  UNL     1      26.006   1.045  53.129  1.00  0.00    -0.309 N 
HETATM    5  H14 UNL     1      25.732   2.011  52.892  1.00  0.00     0.170 HD
ENDROOT
BRANCH   1   6
HETATM    6  C3  UNL     1      22.631  -0.605  53.625  1.00  0.00     0.127 C 
BRANCH   6   7
HETATM    7  C2  UNL     1      21.416  -0.225  54.438  1.00  0.00     0.015 C 
HETATM    8  C1  UNL     1      20.194  -0.439  53.571  1.00  0.00     0.006 C 
ENDBRANCH   6   7
ENDBRANCH   1   6
BRANCH   1   9
HETATM    9  C4  UNL     1      23.055   1.872  52.991  1.00  0.00     0.169 C 
BRANCH   9  10
HETATM   10  C5  UNL     1      23.025   2.124  51.526  1.00  0.00    -0.006 A 
HETATM   11  C6  UNL     1      22.258   1.527  50.549  1.00  0.00     0.012 A 
HETATM   12  C7  UNL     1      22.377   1.901  49.244  1.00  0.00     0.002 A 
HETATM   13  C8  UNL     1      23.266   2.882  48.877  1.00  0.00     0.022 A 
HETATM   14  C9  UNL     1      24.047   3.499  49.822  1.00  0.00     0.044 A 
HETATM   15 BR1  UNL     1      25.273   4.860  49.273  1.00  0.00    -0.048 Br
HETATM   16  C10 UNL     1      23.929   3.121  51.156  1.00  0.00     0.090 A 
BRANCH  16  17
HETATM   17  O1  UNL     1      24.772   3.812  52.047  1.00  0.00    -0.359 OA
HETATM   18  H13 UNL     1      24.510   3.928  53.016  1.00  0.00     0.217 HD
ENDBRANCH  16  17
ENDBRANCH   9  10
ENDBRANCH   1   9
BRANCH   4  19
HETATM   19  C12 UNL     1      27.251   0.332  53.278  1.00  0.00     0.036 A 
HETATM   20  C13 UNL     1      27.548  -0.953  52.923  1.00  0.00     0.029 A 
HETATM   21  C14 UNL     1      28.817  -1.433  53.162  1.00  0.00     0.002 A 
HETATM   22  C15 UNL     1      29.773  -0.643  53.746  1.00  0.00     0.000 A 
HETATM   23  C16 UNL     1      29.479   0.669  54.111  1.00  0.00     0.002 A 
HETATM   24  C17 UNL     1      28.197   1.153  53.870  1.00  0.00     0.029 A 
ENDBRANCH   4  19
TORSDOF 6
ENDMDL
MODEL 2
REMARK VINA RESULT:      -7.6      2.160      2.458
REMARK  6 active torsions:
REMARK  status: ('A' for Active; 'I' for Inactive)
REMARK    1  A    between atoms: C2_2  and  C3_3 
REMARK    2  A    between atoms: C3_3  and  N1_4 
REMARK    3  A    between atoms: N1_4  and  C4_5 
REMARK       I    between atoms: N1_4  and  C11_14 
REMARK    4  A    between atoms: C4_5  and  C5_6 
REMARK    5  A    between atoms: C10_12  and  O1_13 
REMARK       I    between atoms: C11_14  and  N2_16 
REMARK    6  A    between atoms: N2_16  and  C12_17 
ROOT
HETATM    1  N1  UNL     1      23.769  -0.397  53.363  1.00  0.00    -0.330 N 
HETATM    2  C11 UNL     1      25.180  -0.579  53.369  1.00  0.00     0.323 C 
HETATM    3  O2  UNL     1      25.349  -1.092  54.508  1.00  0.00    -0.247 OA
HETATM    4  N2  UNL     1      26.175  -0.296  52.423  1.00  0.00    -0.309 N 
HETATM    5  H14 UNL     1      25.765   0.122  51.575  1.00  0.00     0.170 HD
ENDROOT
BRANCH   1   6
HETATM    6  C3  UNL     1      23.101  -0.835  54.572  1.00  0.00     0.127 C 
BRANCH   6   7
HETATM    7  C2  UNL     1      21.631  -1.111  54.361  1.00  0.00     0.015 C 
HETATM    8  C1  UNL     1      20.860   0.111  54.815  1.00  0.00     0.006 C 
ENDBRANCH   6   7
ENDBRANCH   1   6
BRANCH   1   9
HETATM    9  C4  UNL     1      23.155   0.186  52.190  1.00  0.00     0.169 C 
BRANCH   9  10
HETATM   10  C5  UNL     1      23.025   1.665  52.283  1.00  0.00    -0.006 A 
HETATM   11  C6  UNL     1      23.925   2.596  52.753  1.00  0.00     0.012 A 
HETATM   12  C7  UNL     1      23.617   3.924  52.756  1.00  0.00     0.002 A 
HETATM   13  C8  UNL     1      22.400   4.360  52.290  1.00  0.00     0.022 A 
HETATM   14  C9  UNL     1      21.478   3.461  51.815  1.00  0.00     0.044 A 
HETATM   15 BR1  UNL     1      19.795   4.105  51.175  1.00  0.00    -0.048 Br
HETATM   16  C10 UNL     1      21.788   2.104  51.809  1.00  0.00     0.090 A 
BRANCH  16  17
HETATM   17  O1  UNL     1      20.777   1.265  51.303  1.00  0.00    -0.359 OA
HETATM   18  H13 UNL     1      20.813   0.938  50.347  1.00  0.00     0.217 HD
ENDBRANCH  16  17
ENDBRANCH   9  10
ENDBRANCH   1   9
BRANCH   4  19
HETATM   19  C12 UNL     1      27.503  -0.653  52.860  1.00  0.00     0.036 A 
HETATM   20  C13 UNL     1      28.093  -1.885  52.883  1.00  0.00     0.029 A 
HETATM   21  C14 UNL     1      29.385  -1.995  53.347  1.00  0.00     0.002 A 
HETATM   22  C15 UNL     1      30.076  -0.893  53.781  1.00  0.00     0.000 A 
HETATM   23  C16 UNL     1      29.483   0.366  53.761  1.00  0.00     0.002 A 
HETATM   24  C17 UNL     1      28.177   0.477  53.293  1.00  0.00     0.029 A 
ENDBRANCH   4  19
TORSDOF 6
ENDMDL
MODEL 3
REMARK VINA RESULT:      -7.5      2.429      4.300
REMARK  6 active torsions:
REMARK  status: ('A' for Active; 'I' for Inactive)
REMARK    1  A    between atoms: C2_2  and  C3_3 
REMARK    2  A    between atoms: C3_3  and  N1_4 
REMARK    3  A    between atoms: N1_4  and  C4_5 
REMARK       I    between atoms: N1_4  and  C11_14 
REMARK    4  A    between atoms: C4_5  and  C5_6 
REMARK    5  A    between atoms: C10_12  and  O1_13 
REMARK       I    between atoms: C11_14  and  N2_16 
REMARK    6  A    between atoms: N2_16  and  C12_17 
ROOT
HETATM    1  N1  UNL     1      25.257   3.075  50.865  1.00  0.00    -0.330 N 
HETATM    2  C11 UNL     1      26.207   2.276  51.563  1.00  0.00     0.323 C 
HETATM    3  O2  UNL     1      27.169   2.285  50.749  1.00  0.00    -0.247 OA
HETATM    4  N2  UNL     1      26.166   1.625  52.803  1.00  0.00    -0.309 N 
HETATM    5  H14 UNL     1      25.258   1.780  53.268  1.00  0.00     0.170 HD
ENDROOT
BRANCH   1   6
HETATM    6  C3  UNL     1      25.713   3.565  49.580  1.00  0.00     0.127 C 
BRANCH   6   7
HETATM    7  C2  UNL     1      25.200   4.951  49.267  1.00  0.00     0.015 C 
HETATM    8  C1  UNL     1      26.388   5.810  48.888  1.00  0.00     0.006 C 
ENDBRANCH   6   7
ENDBRANCH   1   6
BRANCH   1   9
HETATM    9  C4  UNL     1      23.973   3.315  51.484  1.00  0.00     0.169 C 
BRANCH   9  10
HETATM   10  C5  UNL     1      22.958   2.290  51.123  1.00  0.00    -0.006 A 
HETATM   11  C6  UNL     1      22.293   2.096  49.932  1.00  0.00     0.012 A 
HETATM   12  C7  UNL     1      21.388   1.087  49.795  1.00  0.00     0.002 A 
HETATM   13  C8  UNL     1      21.120   0.241  50.844  1.00  0.00     0.022 A 
HETATM   14  C9  UNL     1      21.763   0.403  52.046  1.00  0.00     0.044 A 
HETATM   15 BR1  UNL     1      21.365  -0.793  53.483  1.00  0.00    -0.048 Br
HETATM   16  C10 UNL     1      22.689   1.433  52.190  1.00  0.00     0.090 A 
BRANCH  16  17
HETATM   17  O1  UNL     1      23.293   1.515  53.460  1.00  0.00    -0.359 OA
HETATM   18  H13 UNL     1      24.234   1.176  53.602  1.00  0.00     0.217 HD
ENDBRANCH  16  17
ENDBRANCH   9  10
ENDBRANCH   1   9
BRANCH   4  19
HETATM   19  C12 UNL     1      27.380   0.913  53.120  1.00  0.00     0.036 A 
HETATM   20  C13 UNL     1      28.562   1.408  53.594  1.00  0.00     0.029 A 
HETATM   21  C14 UNL     1      29.602   0.535  53.828  1.00  0.00     0.002 A 
HETATM   22  C15 UNL     1      29.464  -0.809  53.592  1.00  0.00     0.000 A 
HETATM   23  C16 UNL     1      28.262  -1.321  53.109  1.00  0.00     0.002 A 
HETATM   24  C17 UNL     1      27.212  -0.440  52.872  1.00  0.00     0.029 A 
ENDBRANCH   4  19
TORSDOF 6
ENDMDL
MODEL 4
REMARK VINA RESULT:      -7.3      2.624      3.794
REMARK  6 active torsions:
REMARK  status: ('A' for Active; 'I' for Inactive)
REMARK    1  A    between atoms: C2_2  and  C3_3 
REMARK    2  A    between atoms: C3_3  and  N1_4 
REMARK    3  A    between atoms: N1_4  and  C4_5 
REMARK       I    between atoms: N1_4  and  C11_14 
REMARK    4  A    between atoms: C4_5  and  C5_6 
REMARK    5  A    between atoms: C10_12  and  O1_13 
REMARK       I    between atoms: C11_14  and  N2_16 
REMARK    6  A    between atoms: N2_16  and  C12_17 
ROOT
HETATM    1  N1  UNL     1      24.467   3.253  51.268  1.00  0.00    -0.330 N 
HETATM    2  C11 UNL     1      25.542   2.647  51.975  1.00  0.00     0.323 C 
HETATM    3  O2  UNL     1      25.131   2.741  53.163  1.00  0.00    -0.247 OA
HETATM    4  N2  UNL     1      26.753   2.081  51.551  1.00  0.00    -0.309 N 
HETATM    5  H14 UNL     1      26.842   2.133  50.526  1.00  0.00     0.170 HD
ENDROOT
BRANCH   1   6
HETATM    6  C3  UNL     1      23.381   3.717  52.109  1.00  0.00     0.127 C 
BRANCH   6   7
HETATM    7  C2  UNL     1      22.021   3.432  51.517  1.00  0.00     0.015 C 
HETATM    8  C1  UNL     1      21.307   4.756  51.338  1.00  0.00     0.006 C 
ENDBRANCH   6   7
ENDBRANCH   1   6
BRANCH   1   9
HETATM    9  C4  UNL     1      24.554   3.345  49.827  1.00  0.00     0.169 C 
BRANCH   9  10
HETATM   10  C5  UNL     1      24.960   4.698  49.360  1.00  0.00    -0.006 A 
HETATM   11  C6  UNL     1      24.199   5.834  49.195  1.00  0.00     0.012 A 
HETATM   12  C7  UNL     1      24.763   6.993  48.751  1.00  0.00     0.002 A 
HETATM   13  C8  UNL     1      26.104   7.050  48.459  1.00  0.00     0.022 A 
HETATM   14  C9  UNL     1      26.894   5.938  48.610  1.00  0.00     0.044 A 
HETATM   15 BR1  UNL     1      28.756   6.056  48.193  1.00  0.00    -0.048 Br
HETATM   16  C10 UNL     1      26.323   4.752  49.064  1.00  0.00     0.090 A 
BRANCH  16  17
HETATM   17  O1  UNL     1      27.216   3.671  49.186  1.00  0.00    -0.359 OA
HETATM   18  H13 UNL     1      27.164   3.050  49.982  1.00  0.00     0.217 HD
ENDBRANCH  16  17
ENDBRANCH   9  10
ENDBRANCH   1   9
BRANCH   4  19
HETATM   19  C12 UNL     1      27.561   1.574  52.634  1.00  0.00     0.036 A 
HETATM   20  C13 UNL     1      28.415   2.254  53.455  1.00  0.00     0.029 A 
HETATM   21  C14 UNL     1      29.092   1.559  54.433  1.00  0.00     0.002 A 
HETATM   22  C15 UNL     1      28.919   0.208  54.588  1.00  0.00     0.000 A 
HETATM   23  C16 UNL     1      28.050  -0.493  53.756  1.00  0.00     0.002 A 
HETATM   24  C17 UNL     1      27.367   0.208  52.768  1.00  0.00     0.029 A 
ENDBRANCH   4  19
TORSDOF 6
ENDMDL
MODEL 5
REMARK VINA RESULT:      -7.3      1.243      1.869
REMARK  6 active torsions:
REMARK  status: ('A' for Active; 'I' for Inactive)
REMARK    1  A    between atoms: C2_2  and  C3_3 
REMARK    2  A    between atoms: C3_3  and  N1_4 
REMARK    3  A    between atoms: N1_4  and  C4_5 
REMARK       I    between atoms: N1_4  and  C11_14 
REMARK    4  A    between atoms: C4_5  and  C5_6 
REMARK    5  A    between atoms: C10_12  and  O1_13 
REMARK       I    between atoms: C11_14  and  N2_16 
REMARK    6  A    between atoms: N2_16  and  C12_17 
ROOT
HETATM    1  N1  UNL     1      23.599   0.604  52.767  1.00  0.00    -0.330 N 
HETATM    2  C11 UNL     1      24.995   0.403  52.956  1.00  0.00     0.323 C 
HETATM    3  O2  UNL     1      25.013  -0.062  54.127  1.00  0.00    -0.247 OA
HETATM    4  N2  UNL     1      26.104   0.632  52.129  1.00  0.00    -0.309 N 
HETATM    5  H14 UNL     1      25.809   1.018  51.220  1.00  0.00     0.170 HD
ENDROOT
BRANCH   1   6
HETATM    6  C3  UNL     1      22.779   0.227  53.901  1.00  0.00     0.127 C 
BRANCH   6   7
HETATM    7  C2  UNL     1      21.412  -0.271  53.495  1.00  0.00     0.015 C 
HETATM    8  C1  UNL     1      21.155  -1.570  54.230  1.00  0.00     0.006 C 
ENDBRANCH   6   7
ENDBRANCH   1   6
BRANCH   1   9
HETATM    9  C4  UNL     1      23.145   1.143  51.504  1.00  0.00     0.169 C 
BRANCH   9  10
HETATM   10  C5  UNL     1      22.903   2.610  51.559  1.00  0.00    -0.006 A 
HETATM   11  C6  UNL     1      21.864   3.306  52.134  1.00  0.00     0.012 A 
HETATM   12  C7  UNL     1      21.820   4.668  52.077  1.00  0.00     0.002 A 
HETATM   13  C8  UNL     1      22.815   5.372  51.444  1.00  0.00     0.022 A 
HETATM   14  C9  UNL     1      23.866   4.713  50.858  1.00  0.00     0.044 A 
HETATM   15 BR1  UNL     1      25.231   5.727  49.985  1.00  0.00    -0.048 Br
HETATM   16  C10 UNL     1      23.915   3.323  50.914  1.00  0.00     0.090 A 
BRANCH  16  17
HETATM   17  O1  UNL     1      25.033   2.742  50.285  1.00  0.00    -0.359 OA
HETATM   18  H13 UNL     1      25.942   3.178  50.350  1.00  0.00     0.217 HD
ENDBRANCH  16  17
ENDBRANCH   9  10
ENDBRANCH   1   9
BRANCH   4  19
HETATM   19  C12 UNL     1      27.361   0.277  52.742  1.00  0.00     0.036 A 
HETATM   20  C13 UNL     1      28.296   1.095  53.310  1.00  0.00     0.029 A 
HETATM   21  C14 UNL     1      29.437   0.533  53.841  1.00  0.00     0.002 A 
HETATM   22  C15 UNL     1      29.640  -0.822  53.803  1.00  0.00     0.000 A 
HETATM   23  C16 UNL     1      28.692  -1.663  53.225  1.00  0.00     0.002 A 
HETATM   24  C17 UNL     1      27.540  -1.096  52.689  1.00  0.00     0.029 A 
ENDBRANCH   4  19
TORSDOF 6
ENDMDL
MODEL 6
REMARK VINA RESULT:      -7.3      3.003      5.624
REMARK  6 active torsions:
REMARK  status: ('A' for Active; 'I' for Inactive)
REMARK    1  A    between atoms: C2_2  and  C3_3 
REMARK    2  A    between atoms: C3_3  and  N1_4 
REMARK    3  A    between atoms: N1_4  and  C4_5 
REMARK       I    between atoms: N1_4  and  C11_14 
REMARK    4  A    between atoms: C4_5  and  C5_6 
REMARK    5  A    between atoms: C10_12  and  O1_13 
REMARK       I    between atoms: C11_14  and  N2_16 
REMARK    6  A    between atoms: N2_16  and  C12_17 
ROOT
HETATM    1  N1  UNL     1      23.089   2.893  50.758  1.00  0.00    -0.330 N 
HETATM    2  C11 UNL     1      24.090   3.743  50.208  1.00  0.00     0.323 C 
HETATM    3  O2  UNL     1      23.919   3.547  48.975  1.00  0.00    -0.247 OA
HETATM    4  N2  UNL     1      25.040   4.589  50.798  1.00  0.00    -0.309 N 
HETATM    5  H14 UNL     1      24.965   4.563  51.826  1.00  0.00     0.170 HD
ENDROOT
BRANCH   1   6
HETATM    6  C3  UNL     1      22.304   2.175  49.773  1.00  0.00     0.127 C 
BRANCH   6   7
HETATM    7  C2  UNL     1      20.817   2.292  50.013  1.00  0.00     0.015 C 
HETATM    8  C1  UNL     1      20.272   0.896  50.230  1.00  0.00     0.006 C 
ENDBRANCH   6   7
ENDBRANCH   1   6
BRANCH   1   9
HETATM    9  C4  UNL     1      22.953   2.829  52.196  1.00  0.00     0.169 C 
BRANCH   9  10
HETATM   10  C5  UNL     1      23.417   1.534  52.761  1.00  0.00    -0.006 A 
HETATM   11  C6  UNL     1      22.737   0.344  52.900  1.00  0.00     0.012 A 
HETATM   12  C7  UNL     1      23.344  -0.746  53.450  1.00  0.00     0.002 A 
HETATM   13  C8  UNL     1      24.648  -0.677  53.878  1.00  0.00     0.022 A 
HETATM   14  C9  UNL     1      25.357   0.491  53.757  1.00  0.00     0.044 A 
HETATM   15 BR1  UNL     1      27.169   0.548  54.363  1.00  0.00    -0.048 Br
HETATM   16  C10 UNL     1      24.741   1.607  53.195  1.00  0.00     0.090 A 
BRANCH  16  17
HETATM   17  O1  UNL     1      25.552   2.755  53.115  1.00  0.00    -0.359 OA
HETATM   18  H13 UNL     1      25.304   3.595  53.621  1.00  0.00     0.217 HD
ENDBRANCH  16  17
ENDBRANCH   9  10
ENDBRANCH   1   9
BRANCH   4  19
HETATM   19  C12 UNL     1      25.871   5.276  49.840  1.00  0.00     0.036 A 
HETATM   20  C13 UNL     1      25.714   6.527  49.313  1.00  0.00     0.029 A 
HETATM   21  C14 UNL     1      26.640   6.986  48.402  1.00  0.00     0.002 A 
HETATM   22  C15 UNL     1      27.704   6.209  48.023  1.00  0.00     0.000 A 
HETATM   23  C16 UNL     1      27.872   4.933  48.555  1.00  0.00     0.002 A 
HETATM   24  C17 UNL     1      26.937   4.469  49.474  1.00  0.00     0.029 A 
ENDBRANCH   4  19
TORSDOF 6
ENDMDL
MODEL 7
REMARK VINA RESULT:      -7.2      2.547      5.745
REMARK  6 active torsions:
REMARK  status: ('A' for Active; 'I' for Inactive)
REMARK    1  A    between atoms: C2_2  and  C3_3 
REMARK    2  A    between atoms: C3_3  and  N1_4 
REMARK    3  A    between atoms: N1_4  and  C4_5 
REMARK       I    between atoms: N1_4  and  C11_14 
REMARK    4  A    between atoms: C4_5  and  C5_6 
REMARK    5  A    between atoms: C10_12  and  O1_13 
REMARK       I    between atoms: C11_14  and  N2_16 
REMARK    6  A    between atoms: N2_16  and  C12_17 
ROOT
HETATM    1  N1  UNL     1      25.964   0.909  53.056  1.00  0.00    -0.330 N 
HETATM    2  C11 UNL     1      25.956   2.010  52.154  1.00  0.00     0.323 C 
HETATM    3  O2  UNL     1      26.676   2.835  52.778  1.00  0.00    -0.247 OA
HETATM    4  N2  UNL     1      25.346   2.206  50.907  1.00  0.00    -0.309 N 
HETATM    5  H14 UNL     1      24.812   1.370  50.625  1.00  0.00     0.170 HD
ENDROOT
BRANCH   1   6
HETATM    6  C3  UNL     1      26.737   1.126  54.262  1.00  0.00     0.127 C 
BRANCH   6   7
HETATM    7  C2  UNL     1      27.692  -0.007  54.558  1.00  0.00     0.015 C 
HETATM    8  C1  UNL     1      29.042   0.362  53.980  1.00  0.00     0.006 C 
ENDBRANCH   6   7
ENDBRANCH   1   6
BRANCH   1   9
HETATM    9  C4  UNL     1      25.226  -0.282  52.697  1.00  0.00     0.169 C 
BRANCH   9  10
HETATM   10  C5  UNL     1      24.006  -0.476  53.525  1.00  0.00    -0.006 A 
HETATM   11  C6  UNL     1      23.868  -1.084  54.753  1.00  0.00     0.012 A 
HETATM   12  C7  UNL     1      22.650  -1.163  55.359  1.00  0.00     0.002 A 
HETATM   13  C8  UNL     1      21.534  -0.637  54.755  1.00  0.00     0.022 A 
HETATM   14  C9  UNL     1      21.632  -0.025  53.530  1.00  0.00     0.044 A 
HETATM   15 BR1  UNL     1      20.058   0.696  52.721  1.00  0.00    -0.048 Br
HETATM   16  C10 UNL     1      22.875   0.059  52.908  1.00  0.00     0.090 A 
BRANCH  16  17
HETATM   17  O1  UNL     1      22.871   0.706  51.657  1.00  0.00    -0.359 OA
HETATM   18  H13 UNL     1      23.275   0.257  50.847  1.00  0.00     0.217 HD
ENDBRANCH  16  17
ENDBRANCH   9  10
ENDBRANCH   1   9
BRANCH   4  19
HETATM   19  C12 UNL     1      25.611   3.504  50.336  1.00  0.00     0.036 A 
HETATM   20  C13 UNL     1      24.916   4.668  50.500  1.00  0.00     0.029 A 
HETATM   21  C14 UNL     1      25.354   5.802  49.850  1.00  0.00     0.002 A 
HETATM   22  C15 UNL     1      26.466   5.771  49.049  1.00  0.00     0.000 A 
HETATM   23  C16 UNL     1      27.181   4.589  48.876  1.00  0.00     0.002 A 
HETATM   24  C17 UNL     1      26.739   3.444  49.532  1.00  0.00     0.029 A 
ENDBRANCH   4  19
TORSDOF 6
ENDMDL
MODEL 8
REMARK VINA RESULT:      -6.9      3.479      5.260
REMARK  6 active torsions:
REMARK  status: ('A' for Active; 'I' for Inactive)
REMARK    1  A    between atoms: C2_2  and  C3_3 
REMARK    2  A    between atoms: C3_3  and  N1_4 
REMARK    3  A    between atoms: N1_4  and  C4_5 
REMARK       I    between atoms: N1_4  and  C11_14 
REMARK    4  A    between atoms: C4_5  and  C5_6 
REMARK    5  A    between atoms: C10_12  and  O1_13 
REMARK       I    between atoms: C11_14  and  N2_16 
REMARK    6  A    between atoms: N2_16  and  C12_17 
ROOT
HETATM    1  N1  UNL     1      24.177   4.552  49.996  1.00  0.00    -0.330 N 
HETATM    2  C11 UNL     1      24.495   3.388  50.751  1.00  0.00     0.323 C 
HETATM    3  O2  UNL     1      23.852   2.509  50.117  1.00  0.00    -0.247 OA
HETATM    4  N2  UNL     1      25.288   3.187  51.889  1.00  0.00    -0.309 N 
HETATM    5  H14 UNL     1      25.703   4.076  52.208  1.00  0.00     0.170 HD
ENDROOT
BRANCH   1   6
HETATM    6  C3  UNL     1      23.302   4.314  48.866  1.00  0.00     0.127 C 
BRANCH   6   7
HETATM    7  C2  UNL     1      22.226   5.365  48.727  1.00  0.00     0.015 C 
HETATM    8  C1  UNL     1      21.136   5.048  49.729  1.00  0.00     0.006 C 
ENDBRANCH   6   7
ENDBRANCH   1   6
BRANCH   1   9
HETATM    9  C4  UNL     1      24.739   5.818  50.412  1.00  0.00     0.169 C 
BRANCH   9  10
HETATM   10  C5  UNL     1      25.960   6.185  49.646  1.00  0.00    -0.006 A 
HETATM   11  C6  UNL     1      26.783   5.393  48.876  1.00  0.00     0.012 A 
HETATM   12  C7  UNL     1      27.869   5.923  48.245  1.00  0.00     0.002 A 
HETATM   13  C8  UNL     1      28.163   7.260  48.364  1.00  0.00     0.022 A 
HETATM   14  C9  UNL     1      27.366   8.080  49.123  1.00  0.00     0.044 A 
HETATM   15 BR1  UNL     1      27.807   9.934  49.266  1.00  0.00    -0.048 Br
HETATM   16  C10 UNL     1      26.256   7.543  49.770  1.00  0.00     0.090 A 
BRANCH  16  17
HETATM   17  O1  UNL     1      25.503   8.465  50.522  1.00  0.00    -0.359 OA
HETATM   18  H13 UNL     1      25.325   9.394  50.165  1.00  0.00     0.217 HD
ENDBRANCH  16  17
ENDBRANCH   9  10
ENDBRANCH   1   9
BRANCH   4  19
HETATM   19  C12 UNL     1      25.330   1.813  52.326  1.00  0.00     0.036 A 
HETATM   20  C13 UNL     1      24.435   1.136  53.106  1.00  0.00     0.029 A 
HETATM   21  C14 UNL     1      24.679  -0.187  53.402  1.00  0.00     0.002 A 
HETATM   22  C15 UNL     1      25.796  -0.824  52.927  1.00  0.00     0.000 A 
HETATM   23  C16 UNL     1      26.713  -0.142  52.131  1.00  0.00     0.002 A 
HETATM   24  C17 UNL     1      26.468   1.195  51.832  1.00  0.00     0.029 A 
ENDBRANCH   4  19
TORSDOF 6
ENDMDL
MODEL 9
REMARK VINA RESULT:      -6.8      2.463      6.783
REMARK  6 active torsions:
REMARK  status: ('A' for Active; 'I' for Inactive)
REMARK    1  A    between atoms: C2_2  and  C3_3 
REMARK    2  A    between atoms: C3_3  and  N1_4 
REMARK    3  A    between atoms: N1_4  and  C4_5 
REMARK       I    between atoms: N1_4  and  C11_14 
REMARK    4  A    between atoms: C4_5  and  C5_6 
REMARK    5  A    between atoms: C10_12  and  O1_13 
REMARK       I    between atoms: C11_14  and  N2_16 
REMARK    6  A    between atoms: N2_16  and  C12_17 
ROOT
HETATM    1  N1  UNL     1      23.514   1.991  51.871  1.00  0.00    -0.330 N 
HETATM    2  C11 UNL     1      22.201   1.442  51.913  1.00  0.00     0.323 C 
HETATM    3  O2  UNL     1      21.849   1.574  50.710  1.00  0.00    -0.247 OA
HETATM    4  N2  UNL     1      21.439   0.892  52.952  1.00  0.00    -0.309 N 
HETATM    5  H14 UNL     1      21.966   0.904  53.838  1.00  0.00     0.170 HD
ENDROOT
BRANCH   1   6
HETATM    6  C3  UNL     1      23.927   2.460  50.563  1.00  0.00     0.127 C 
BRANCH   6   7
HETATM    7  C2  UNL     1      24.915   3.600  50.636  1.00  0.00     0.015 C 
HETATM    8  C1  UNL     1      26.169   3.174  49.902  1.00  0.00     0.006 C 
ENDBRANCH   6   7
ENDBRANCH   1   6
BRANCH   1   9
HETATM    9  C4  UNL     1      24.285   2.026  53.094  1.00  0.00     0.169 C 
BRANCH   9  10
HETATM   10  C5  UNL     1      25.338   0.977  53.140  1.00  0.00    -0.006 A 
HETATM   11  C6  UNL     1      25.256  -0.362  52.828  1.00  0.00     0.012 A 
HETATM   12  C7  UNL     1      26.347  -1.171  52.937  1.00  0.00     0.002 A 
HETATM   13  C8  UNL     1      27.552  -0.666  53.360  1.00  0.00     0.022 A 
HETATM   14  C9  UNL     1      27.672   0.663  53.681  1.00  0.00     0.044 A 
HETATM   15 BR1  UNL     1      29.365   1.330  54.267  1.00  0.00    -0.048 Br
HETATM   16  C10 UNL     1      26.561   1.494  53.571  1.00  0.00     0.090 A 
BRANCH  16  17
HETATM   17  O1  UNL     1      26.787   2.838  53.923  1.00  0.00    -0.359 OA
HETATM   18  H13 UNL     1      26.010   3.473  54.047  1.00  0.00     0.217 HD
ENDBRANCH  16  17
ENDBRANCH   9  10
ENDBRANCH   1   9
BRANCH   4  19
HETATM   19  C12 UNL     1      20.131   0.450  52.535  1.00  0.00     0.036 A 
HETATM   20  C13 UNL     1      19.371   0.896  51.491  1.00  0.00     0.029 A 
HETATM   21  C14 UNL     1      18.136   0.324  51.275  1.00  0.00     0.002 A 
HETATM   22  C15 UNL     1      17.668  -0.675  52.089  1.00  0.00     0.000 A 
HETATM   23  C16 UNL     1      18.436  -1.135  53.155  1.00  0.00     0.002 A 
HETATM   24  C17 UNL     1      19.683  -0.558  53.374  1.00  0.00     0.029 A 
ENDBRANCH   4  19
TORSDOF 6
ENDMDL
