MODEL 1
REMARK VINA RESULT:      -7.6      0.000      0.000
REMARK  4 active torsions:
REMARK  status: ('A' for Active; 'I' for Inactive)
REMARK    1  A    between atoms: C11_15  and  C12_16 
REMARK    2  A    between atoms: C12_16  and  C14_19 
REMARK    3  A    between atoms: C14_19  and  C15_20 
REMARK    4  A    between atoms: C16_21  and  C17_22 
ROOT
HETATM    1  C1  UNL     1      26.941   2.118  52.555  1.00  0.00     0.038 C 
HETATM    2  C2  UNL     1      25.969   1.235  53.191  1.00  0.00    -0.002 C 
HETATM    3  C3  UNL     1      24.817   0.878  52.684  1.00  0.00     0.020 C 
HETATM    4  C4  UNL     1      24.141  -0.029  53.650  1.00  0.00     0.011 C 
HETATM    5  C5  UNL     1      23.114  -0.778  53.970  1.00  0.00     0.063 C 
HETATM    6  C6  UNL     1      21.788  -1.401  53.747  1.00  0.00     0.249 C 
HETATM    7  F1  UNL     1      21.265  -1.786  55.001  1.00  0.00    -0.240 F 
HETATM    8  C7  UNL     1      20.760  -0.466  53.195  1.00  0.00     0.160 C 
HETATM    9  N1  UNL     1      19.607   0.094  53.158  1.00  0.00    -0.246 NA
HETATM   10  C8  UNL     1      18.888   0.111  51.869  1.00  0.00     0.327 C 
HETATM   11  O1  UNL     1      19.933   0.365  50.911  1.00  0.00    -0.316 OA
HETATM   12  C9  UNL     1      21.130   0.954  51.369  1.00  0.00     0.145 C 
HETATM   13  N2  UNL     1      21.545   0.075  52.160  1.00  0.00    -0.211 NA
HETATM   14  C10 UNL     1      21.884   2.192  51.154  1.00  0.00     0.113 C 
HETATM   15  C11 UNL     1      23.290   1.976  50.654  1.00  0.00     0.112 C 
HETATM   16  N3  UNL     1      24.141   1.187  51.493  1.00  0.00    -0.383 N 
HETATM   17  H22 UNL     1      24.581   0.301  51.089  1.00  0.00     0.160 HD
ENDROOT
BRANCH  15  18
HETATM   18  C12 UNL     1      23.925   3.319  50.306  1.00  0.00     0.057 C 
HETATM   19  C13 UNL     1      23.090   4.160  49.384  1.00  0.00     0.035 C 
HETATM   20 CL1  UNL     1      24.080   4.264  51.839  1.00  0.00    -0.117 Cl
BRANCH  18  21
HETATM   21  C14 UNL     1      25.303   3.221  49.751  1.00  0.00     0.054 C 
BRANCH  21  22
HETATM   22  C15 UNL     1      25.777   4.635  49.496  1.00  0.00    -0.028 C 
HETATM   23  C16 UNL     1      26.896   4.977  48.832  1.00  0.00    -0.016 C 
BRANCH  23  24
HETATM   24  C17 UNL     1      27.572   6.251  48.452  1.00  0.00     0.141 C 
HETATM   25 CL2  UNL     1      29.255   5.957  47.934  1.00  0.00    -0.126 Cl
ENDBRANCH  23  24
ENDBRANCH  21  22
ENDBRANCH  18  21
ENDBRANCH  15  18
TORSDOF 4
ENDMDL
MODEL 2
REMARK VINA RESULT:      -7.5      3.006      4.094
REMARK  4 active torsions:
REMARK  status: ('A' for Active; 'I' for Inactive)
REMARK    1  A    between atoms: C11_15  and  C12_16 
REMARK    2  A    between atoms: C12_16  and  C14_19 
REMARK    3  A    between atoms: C14_19  and  C15_20 
REMARK    4  A    between atoms: C16_21  and  C17_22 
ROOT
HETATM    1  C1  UNL     1      25.769   4.386  49.499  1.00  0.00     0.038 C 
HETATM    2  C2  UNL     1      26.421   3.316  50.245  1.00  0.00    -0.002 C 
HETATM    3  C3  UNL     1      25.812   2.335  50.861  1.00  0.00     0.020 C 
HETATM    4  C4  UNL     1      26.843   1.466  51.491  1.00  0.00     0.011 C 
HETATM    5  C5  UNL     1      27.149   0.408  52.201  1.00  0.00     0.063 C 
HETATM    6  C6  UNL     1      26.850  -0.816  52.981  1.00  0.00     0.249 C 
HETATM    7  F1  UNL     1      27.967  -1.105  53.795  1.00  0.00    -0.240 F 
HETATM    8  C7  UNL     1      25.722  -0.661  53.950  1.00  0.00     0.160 C 
HETATM    9  N1  UNL     1      25.163  -0.763  55.100  1.00  0.00    -0.246 NA
HETATM   10  C8  UNL     1      23.833  -1.399  55.167  1.00  0.00     0.327 C 
HETATM   11  O1  UNL     1      23.167  -0.897  53.994  1.00  0.00    -0.316 OA
HETATM   12  C9  UNL     1      23.651   0.290  53.407  1.00  0.00     0.145 C 
HETATM   13  N2  UNL     1      24.805  -0.063  53.066  1.00  0.00    -0.211 NA
HETATM   14  C10 UNL     1      23.171   1.650  53.146  1.00  0.00     0.113 C 
HETATM   15  C11 UNL     1      23.188   2.039  51.690  1.00  0.00     0.112 C 
HETATM   16  N3  UNL     1      24.464   1.987  51.041  1.00  0.00    -0.383 N 
HETATM   17  H22 UNL     1      24.577   1.363  50.181  1.00  0.00     0.160 HD
ENDROOT
BRANCH  15  18
HETATM   18  C12 UNL     1      22.518   3.399  51.513  1.00  0.00     0.057 C 
HETATM   19  C13 UNL     1      22.250   3.756  50.079  1.00  0.00     0.035 C 
HETATM   20 CL1  UNL     1      20.903   3.322  52.318  1.00  0.00    -0.117 Cl
BRANCH  18  21
HETATM   21  C14 UNL     1      23.240   4.528  52.162  1.00  0.00     0.054 C 
BRANCH  21  22
HETATM   22  C15 UNL     1      22.938   5.769  51.351  1.00  0.00    -0.028 C 
HETATM   23  C16 UNL     1      23.775   6.805  51.164  1.00  0.00    -0.016 C 
BRANCH  23  24
HETATM   24  C17 UNL     1      23.729   8.105  50.434  1.00  0.00     0.141 C 
HETATM   25 CL2  UNL     1      25.373   8.686  50.050  1.00  0.00    -0.126 Cl
ENDBRANCH  23  24
ENDBRANCH  21  22
ENDBRANCH  18  21
ENDBRANCH  15  18
TORSDOF 4
ENDMDL
MODEL 3
REMARK VINA RESULT:      -7.5      3.083      4.935
REMARK  4 active torsions:
REMARK  status: ('A' for Active; 'I' for Inactive)
REMARK    1  A    between atoms: C11_15  and  C12_16 
REMARK    2  A    between atoms: C12_16  and  C14_19 
REMARK    3  A    between atoms: C14_19  and  C15_20 
REMARK    4  A    between atoms: C16_21  and  C17_22 
ROOT
HETATM    1  C1  UNL     1      26.411   3.180  50.312  1.00  0.00     0.038 C 
HETATM    2  C2  UNL     1      25.015   3.070  49.904  1.00  0.00    -0.002 C 
HETATM    3  C3  UNL     1      24.019   2.725  50.679  1.00  0.00     0.020 C 
HETATM    4  C4  UNL     1      22.770   2.742  49.870  1.00  0.00     0.011 C 
HETATM    5  C5  UNL     1      21.472   2.571  49.790  1.00  0.00     0.063 C 
HETATM    6  C6  UNL     1      20.127   2.246  50.319  1.00  0.00     0.249 C 
HETATM    7  F1  UNL     1      19.294   1.908  49.231  1.00  0.00    -0.240 F 
HETATM    8  C7  UNL     1      20.094   1.035  51.196  1.00  0.00     0.160 C 
HETATM    9  N1  UNL     1      19.638  -0.099  51.585  1.00  0.00    -0.246 NA
HETATM   10  C8  UNL     1      19.328  -0.264  53.018  1.00  0.00     0.327 C 
HETATM   11  O1  UNL     1      20.406   0.433  53.671  1.00  0.00    -0.316 OA
HETATM   12  C9  UNL     1      21.598   0.646  52.949  1.00  0.00     0.145 C 
HETATM   13  N2  UNL     1      21.187   1.373  52.014  1.00  0.00    -0.211 NA
HETATM   14  C10 UNL     1      23.009   0.258  53.038  1.00  0.00     0.113 C 
HETATM   15  C11 UNL     1      23.962   1.423  53.120  1.00  0.00     0.112 C 
HETATM   16  N3  UNL     1      23.920   2.347  52.027  1.00  0.00    -0.383 N 
HETATM   17  H22 UNL     1      23.709   3.375  52.232  1.00  0.00     0.160 HD
ENDROOT
BRANCH  15  18
HETATM   18  C12 UNL     1      25.377   0.913  53.377  1.00  0.00     0.057 C 
HETATM   19  C13 UNL     1      26.348   1.993  53.756  1.00  0.00     0.035 C 
HETATM   20 CL1  UNL     1      25.306  -0.213  54.789  1.00  0.00    -0.117 Cl
BRANCH  18  21
HETATM   21  C14 UNL     1      25.955   0.120  52.256  1.00  0.00     0.054 C 
BRANCH  21  22
HETATM   22  C15 UNL     1      27.315  -0.361  52.713  1.00  0.00    -0.028 C 
HETATM   23  C16 UNL     1      27.737  -1.639  52.706  1.00  0.00    -0.016 C 
BRANCH  23  24
HETATM   24  C17 UNL     1      28.986  -2.359  53.086  1.00  0.00     0.141 C 
HETATM   25 CL2  UNL     1      30.168  -1.248  53.832  1.00  0.00    -0.126 Cl
ENDBRANCH  23  24
ENDBRANCH  21  22
ENDBRANCH  18  21
ENDBRANCH  15  18
TORSDOF 4
ENDMDL
MODEL 4
REMARK VINA RESULT:      -7.3      3.101      5.782
REMARK  4 active torsions:
REMARK  status: ('A' for Active; 'I' for Inactive)
REMARK    1  A    between atoms: C11_15  and  C12_16 
REMARK    2  A    between atoms: C12_16  and  C14_19 
REMARK    3  A    between atoms: C14_19  and  C15_20 
REMARK    4  A    between atoms: C16_21  and  C17_22 
ROOT
HETATM    1  C1  UNL     1      25.322   4.588  49.497  1.00  0.00     0.038 C 
HETATM    2  C2  UNL     1      26.081   3.559  50.199  1.00  0.00    -0.002 C 
HETATM    3  C3  UNL     1      25.572   2.526  50.820  1.00  0.00     0.020 C 
HETATM    4  C4  UNL     1      26.689   1.728  51.395  1.00  0.00     0.011 C 
HETATM    5  C5  UNL     1      27.101   0.686  52.075  1.00  0.00     0.063 C 
HETATM    6  C6  UNL     1      26.925  -0.568  52.844  1.00  0.00     0.249 C 
HETATM    7  F1  UNL     1      28.092  -0.784  53.609  1.00  0.00    -0.240 F 
HETATM    8  C7  UNL     1      25.828  -0.512  53.859  1.00  0.00     0.160 C 
HETATM    9  N1  UNL     1      25.324  -0.672  55.027  1.00  0.00    -0.246 NA
HETATM   10  C8  UNL     1      24.049  -1.407  55.134  1.00  0.00     0.327 C 
HETATM   11  O1  UNL     1      23.301  -0.940  53.997  1.00  0.00    -0.316 OA
HETATM   12  C9  UNL     1      23.673   0.289  53.412  1.00  0.00     0.145 C 
HETATM   13  N2  UNL     1      24.835   0.028  53.021  1.00  0.00    -0.211 NA
HETATM   14  C10 UNL     1      23.082   1.612  53.194  1.00  0.00     0.113 C 
HETATM   15  C11 UNL     1      23.013   2.023  51.745  1.00  0.00     0.112 C 
HETATM   16  N3  UNL     1      24.262   2.076  51.047  1.00  0.00    -0.383 N 
HETATM   17  H22 UNL     1      24.386   1.475  50.172  1.00  0.00     0.160 HD
ENDROOT
BRANCH  15  18
HETATM   18  C12 UNL     1      22.237   3.331  51.618  1.00  0.00     0.057 C 
HETATM   19  C13 UNL     1      22.932   4.507  52.240  1.00  0.00     0.035 C 
HETATM   20 CL1  UNL     1      22.092   3.712  49.857  1.00  0.00    -0.117 Cl
BRANCH  18  21
HETATM   21  C14 UNL     1      20.841   3.269  52.134  1.00  0.00     0.054 C 
BRANCH  21  22
HETATM   22  C15 UNL     1      20.124   2.201  51.338  1.00  0.00    -0.028 C 
HETATM   23  C16 UNL     1      19.238   1.318  51.834  1.00  0.00    -0.016 C 
BRANCH  23  24
HETATM   24  C17 UNL     1      18.414   0.202  51.287  1.00  0.00     0.141 C 
HETATM   25 CL2  UNL     1      18.015  -0.987  52.558  1.00  0.00    -0.126 Cl
ENDBRANCH  23  24
ENDBRANCH  21  22
ENDBRANCH  18  21
ENDBRANCH  15  18
TORSDOF 4
ENDMDL
MODEL 5
REMARK VINA RESULT:      -7.3      3.754      7.124
REMARK  4 active torsions:
REMARK  status: ('A' for Active; 'I' for Inactive)
REMARK    1  A    between atoms: C11_15  and  C12_16 
REMARK    2  A    between atoms: C12_16  and  C14_19 
REMARK    3  A    between atoms: C14_19  and  C15_20 
REMARK    4  A    between atoms: C16_21  and  C17_22 
ROOT
HETATM    1  C1  UNL     1      21.582   3.470  49.139  1.00  0.00     0.038 C 
HETATM    2  C2  UNL     1      22.955   3.466  49.633  1.00  0.00    -0.002 C 
HETATM    3  C3  UNL     1      23.487   2.549  50.400  1.00  0.00     0.020 C 
HETATM    4  C4  UNL     1      24.902   2.925  50.666  1.00  0.00     0.011 C 
HETATM    5  C5  UNL     1      26.053   2.663  51.235  1.00  0.00     0.063 C 
HETATM    6  C6  UNL     1      26.991   1.865  52.059  1.00  0.00     0.249 C 
HETATM    7  F1  UNL     1      28.041   2.711  52.477  1.00  0.00    -0.240 F 
HETATM    8  C7  UNL     1      26.400   1.356  53.335  1.00  0.00     0.160 C 
HETATM    9  N1  UNL     1      26.383   1.154  54.601  1.00  0.00    -0.246 NA
HETATM   10  C8  UNL     1      26.108  -0.216  55.078  1.00  0.00     0.327 C 
HETATM   11  O1  UNL     1      25.085  -0.680  54.178  1.00  0.00    -0.316 OA
HETATM   12  C9  UNL     1      24.325   0.280  53.479  1.00  0.00     0.145 C 
HETATM   13  N2  UNL     1      25.212   0.835  52.790  1.00  0.00    -0.211 NA
HETATM   14  C10 UNL     1      22.926   0.709  53.394  1.00  0.00     0.113 C 
HETATM   15  C11 UNL     1      22.337   0.614  52.010  1.00  0.00     0.112 C 
HETATM   16  N3  UNL     1      22.999   1.374  50.992  1.00  0.00    -0.383 N 
HETATM   17  H22 UNL     1      23.378   0.861  50.135  1.00  0.00     0.160 HD
ENDROOT
BRANCH  15  18
HETATM   18  C12 UNL     1      20.843   0.922  52.064  1.00  0.00     0.057 C 
HETATM   19  C13 UNL     1      20.533   2.332  52.476  1.00  0.00     0.035 C 
HETATM   20 CL1  UNL     1      20.184   0.735  50.392  1.00  0.00    -0.117 Cl
BRANCH  18  21
HETATM   21  C14 UNL     1      20.055  -0.011  52.916  1.00  0.00     0.054 C 
BRANCH  21  22
HETATM   22  C15 UNL     1      18.794  -0.348  52.151  1.00  0.00    -0.028 C 
HETATM   23  C16 UNL     1      17.659  -0.833  52.687  1.00  0.00    -0.016 C 
BRANCH  23  24
HETATM   24  C17 UNL     1      16.317  -1.235  52.176  1.00  0.00     0.141 C 
HETATM   25 CL2  UNL     1      16.120  -0.782  50.460  1.00  0.00    -0.126 Cl
ENDBRANCH  23  24
ENDBRANCH  21  22
ENDBRANCH  18  21
ENDBRANCH  15  18
TORSDOF 4
ENDMDL
MODEL 6
REMARK VINA RESULT:      -7.1      4.675      7.753
REMARK  4 active torsions:
REMARK  status: ('A' for Active; 'I' for Inactive)
REMARK    1  A    between atoms: C11_15  and  C12_16 
REMARK    2  A    between atoms: C12_16  and  C14_19 
REMARK    3  A    between atoms: C14_19  and  C15_20 
REMARK    4  A    between atoms: C16_21  and  C17_22 
ROOT
HETATM    1  C1  UNL     1      26.324   1.950  50.933  1.00  0.00     0.038 C 
HETATM    2  C2  UNL     1      26.654   3.056  50.041  1.00  0.00    -0.002 C 
HETATM    3  C3  UNL     1      26.105   4.244  50.064  1.00  0.00     0.020 C 
HETATM    4  C4  UNL     1      26.730   5.069  48.994  1.00  0.00     0.011 C 
HETATM    5  C5  UNL     1      26.822   6.209  48.354  1.00  0.00     0.063 C 
HETATM    6  C6  UNL     1      26.471   7.621  48.072  1.00  0.00     0.249 C 
HETATM    7  F1  UNL     1      26.883   7.924  46.756  1.00  0.00    -0.240 F 
HETATM    8  C7  UNL     1      25.000   7.893  48.066  1.00  0.00     0.160 C 
HETATM    9  N1  UNL     1      23.914   8.367  47.576  1.00  0.00    -0.246 NA
HETATM   10  C8  UNL     1      23.068   9.202  48.451  1.00  0.00     0.327 C 
HETATM   11  O1  UNL     1      23.148   8.534  49.724  1.00  0.00    -0.316 OA
HETATM   12  C9  UNL     1      23.530   7.176  49.743  1.00  0.00     0.145 C 
HETATM   13  N2  UNL     1      24.691   7.246  49.277  1.00  0.00    -0.211 NA
HETATM   14  C10 UNL     1      22.949   5.888  50.131  1.00  0.00     0.113 C 
HETATM   15  C11 UNL     1      23.740   5.148  51.180  1.00  0.00     0.112 C 
HETATM   16  N3  UNL     1      25.095   4.834  50.839  1.00  0.00    -0.383 N 
HETATM   17  H22 UNL     1      25.879   5.197  51.468  1.00  0.00     0.160 HD
ENDROOT
BRANCH  15  18
HETATM   18  C12 UNL     1      22.968   3.911  51.629  1.00  0.00     0.057 C 
HETATM   19  C13 UNL     1      21.556   4.202  52.050  1.00  0.00     0.035 C 
HETATM   20 CL1  UNL     1      22.847   2.796  50.213  1.00  0.00    -0.117 Cl
BRANCH  18  21
HETATM   21  C14 UNL     1      23.637   3.128  52.704  1.00  0.00     0.054 C 
BRANCH  21  22
HETATM   22  C15 UNL     1      22.968   1.771  52.743  1.00  0.00    -0.028 C 
HETATM   23  C16 UNL     1      23.508   0.646  53.245  1.00  0.00    -0.016 C 
BRANCH  23  24
HETATM   24  C17 UNL     1      23.078  -0.774  53.403  1.00  0.00     0.141 C 
HETATM   25 CL2  UNL     1      22.265  -1.029  54.971  1.00  0.00    -0.126 Cl
ENDBRANCH  23  24
ENDBRANCH  21  22
ENDBRANCH  18  21
ENDBRANCH  15  18
TORSDOF 4
ENDMDL
MODEL 7
REMARK VINA RESULT:      -7.1      3.726      7.603
REMARK  4 active torsions:
REMARK  status: ('A' for Active; 'I' for Inactive)
REMARK    1  A    between atoms: C11_15  and  C12_16 
REMARK    2  A    between atoms: C12_16  and  C14_19 
REMARK    3  A    between atoms: C14_19  and  C15_20 
REMARK    4  A    between atoms: C16_21  and  C17_22 
ROOT
HETATM    1  C1  UNL     1      20.145   3.394  49.417  1.00  0.00     0.038 C 
HETATM    2  C2  UNL     1      21.559   3.707  49.241  1.00  0.00    -0.002 C 
HETATM    3  C3  UNL     1      22.559   2.987  49.678  1.00  0.00     0.020 C 
HETATM    4  C4  UNL     1      23.827   3.658  49.282  1.00  0.00     0.011 C 
HETATM    5  C5  UNL     1      25.138   3.682  49.270  1.00  0.00     0.063 C 
HETATM    6  C6  UNL     1      26.492   3.163  49.576  1.00  0.00     0.249 C 
HETATM    7  F1  UNL     1      27.407   4.235  49.485  1.00  0.00    -0.240 F 
HETATM    8  C7  UNL     1      26.651   2.666  50.978  1.00  0.00     0.160 C 
HETATM    9  N1  UNL     1      27.238   2.579  52.114  1.00  0.00    -0.246 NA
HETATM   10  C8  UNL     1      27.507   1.232  52.652  1.00  0.00     0.327 C 
HETATM   11  O1  UNL     1      26.320   0.494  52.305  1.00  0.00    -0.316 OA
HETATM   12  C9  UNL     1      25.141   1.217  52.031  1.00  0.00     0.145 C 
HETATM   13  N2  UNL     1      25.489   1.873  51.021  1.00  0.00    -0.211 NA
HETATM   14  C10 UNL     1      23.792   1.351  52.589  1.00  0.00     0.113 C 
HETATM   15  C11 UNL     1      22.689   1.017  51.618  1.00  0.00     0.112 C 
HETATM   16  N3  UNL     1      22.652   1.798  50.417  1.00  0.00    -0.383 N 
HETATM   17  H22 UNL     1      22.716   1.294  49.476  1.00  0.00     0.160 HD
ENDROOT
BRANCH  15  18
HETATM   18  C12 UNL     1      21.346   1.027  52.341  1.00  0.00     0.057 C 
HETATM   19  C13 UNL     1      21.371   0.323  53.667  1.00  0.00     0.035 C 
HETATM   20 CL1  UNL     1      20.928   2.748  52.698  1.00  0.00    -0.117 Cl
BRANCH  18  21
HETATM   21  C14 UNL     1      20.212   0.494  51.536  1.00  0.00     0.054 C 
BRANCH  21  22
HETATM   22  C15 UNL     1      19.102   0.157  52.507  1.00  0.00    -0.028 C 
HETATM   23  C16 UNL     1      18.325  -0.940  52.456  1.00  0.00    -0.016 C 
BRANCH  23  24
HETATM   24  C17 UNL     1      17.200  -1.497  53.262  1.00  0.00     0.141 C 
HETATM   25 CL2  UNL     1      17.455  -3.229  53.612  1.00  0.00    -0.126 Cl
ENDBRANCH  23  24
ENDBRANCH  21  22
ENDBRANCH  18  21
ENDBRANCH  15  18
TORSDOF 4
ENDMDL
MODEL 8
REMARK VINA RESULT:      -6.9      2.806      4.669
REMARK  4 active torsions:
REMARK  status: ('A' for Active; 'I' for Inactive)
REMARK    1  A    between atoms: C11_15  and  C12_16 
REMARK    2  A    between atoms: C12_16  and  C14_19 
REMARK    3  A    between atoms: C14_19  and  C15_20 
REMARK    4  A    between atoms: C16_21  and  C17_22 
ROOT
HETATM    1  C1  UNL     1      18.549   1.192  50.236  1.00  0.00     0.038 C 
HETATM    2  C2  UNL     1      19.135   0.419  51.325  1.00  0.00    -0.002 C 
HETATM    3  C3  UNL     1      20.265   0.685  51.928  1.00  0.00     0.020 C 
HETATM    4  C4  UNL     1      20.491  -0.345  52.977  1.00  0.00     0.011 C 
HETATM    5  C5  UNL     1      21.230  -0.832  53.944  1.00  0.00     0.063 C 
HETATM    6  C6  UNL     1      22.403  -0.864  54.849  1.00  0.00     0.249 C 
HETATM    7  F1  UNL     1      22.532  -2.174  55.360  1.00  0.00    -0.240 F 
HETATM    8  C7  UNL     1      23.708  -0.608  54.165  1.00  0.00     0.160 C 
HETATM    9  N1  UNL     1      24.933  -0.858  53.881  1.00  0.00    -0.246 NA
HETATM   10  C8  UNL     1      25.910   0.241  54.012  1.00  0.00     0.327 C 
HETATM   11  O1  UNL     1      25.190   1.384  53.515  1.00  0.00    -0.316 OA
HETATM   12  C9  UNL     1      24.080   1.161  52.675  1.00  0.00     0.145 C 
HETATM   13  N2  UNL     1      23.315   0.536  53.447  1.00  0.00    -0.211 NA
HETATM   14  C10 UNL     1      23.682   1.455  51.295  1.00  0.00     0.113 C 
HETATM   15  C11 UNL     1      22.414   2.261  51.180  1.00  0.00     0.112 C 
HETATM   16  N3  UNL     1      21.244   1.678  51.765  1.00  0.00    -0.383 N 
HETATM   17  H22 UNL     1      20.724   2.224  52.523  1.00  0.00     0.160 HD
ENDROOT
BRANCH  15  18
HETATM   18  C12 UNL     1      22.183   2.652  49.723  1.00  0.00     0.057 C 
HETATM   19  C13 UNL     1      23.428   3.102  49.015  1.00  0.00     0.035 C 
HETATM   20 CL1  UNL     1      21.616   1.178  48.844  1.00  0.00    -0.117 Cl
BRANCH  18  21
HETATM   21  C14 UNL     1      21.120   3.676  49.523  1.00  0.00     0.054 C 
BRANCH  21  22
HETATM   22  C15 UNL     1      21.719   5.012  49.901  1.00  0.00    -0.028 C 
HETATM   23  C16 UNL     1      21.027   6.098  50.293  1.00  0.00    -0.016 C 
BRANCH  23  24
HETATM   24  C17 UNL     1      21.360   7.491  50.709  1.00  0.00     0.141 C 
HETATM   25 CL2  UNL     1      23.044   7.904  50.284  1.00  0.00    -0.126 Cl
ENDBRANCH  23  24
ENDBRANCH  21  22
ENDBRANCH  18  21
ENDBRANCH  15  18
TORSDOF 4
ENDMDL
MODEL 9
REMARK VINA RESULT:      -6.9      2.927      4.854
REMARK  4 active torsions:
REMARK  status: ('A' for Active; 'I' for Inactive)
REMARK    1  A    between atoms: C11_15  and  C12_16 
REMARK    2  A    between atoms: C12_16  and  C14_19 
REMARK    3  A    between atoms: C14_19  and  C15_20 
REMARK    4  A    between atoms: C16_21  and  C17_22 
ROOT
HETATM    1  C1  UNL     1      20.589   2.002  51.132  1.00  0.00     0.038 C 
HETATM    2  C2  UNL     1      21.233   1.043  52.022  1.00  0.00    -0.002 C 
HETATM    3  C3  UNL     1      22.374   1.221  52.637  1.00  0.00     0.020 C 
HETATM    4  C4  UNL     1      22.665   0.005  53.444  1.00  0.00     0.011 C 
HETATM    5  C5  UNL     1      23.451  -0.642  54.270  1.00  0.00     0.063 C 
HETATM    6  C6  UNL     1      24.653  -0.816  55.119  1.00  0.00     0.249 C 
HETATM    7  F1  UNL     1      24.839  -2.198  55.343  1.00  0.00    -0.240 F 
HETATM    8  C7  UNL     1      25.926  -0.377  54.469  1.00  0.00     0.160 C 
HETATM    9  N1  UNL     1      27.149  -0.518  54.109  1.00  0.00    -0.246 NA
HETATM   10  C8  UNL     1      28.095   0.566  54.438  1.00  0.00     0.327 C 
HETATM   11  O1  UNL     1      27.324   1.759  54.208  1.00  0.00    -0.316 OA
HETATM   12  C9  UNL     1      26.194   1.673  53.368  1.00  0.00     0.145 C 
HETATM   13  N2  UNL     1      25.475   0.875  54.014  1.00  0.00    -0.211 NA
HETATM   14  C10 UNL     1      25.743   2.231  52.090  1.00  0.00     0.113 C 
HETATM   15  C11 UNL     1      24.447   2.996  52.177  1.00  0.00     0.112 C 
HETATM   16  N3  UNL     1      23.315   2.262  52.659  1.00  0.00    -0.383 N 
HETATM   17  H22 UNL     1      22.804   2.620  53.526  1.00  0.00     0.160 HD
ENDROOT
BRANCH  15  18
HETATM   18  C12 UNL     1      24.157   3.669  50.839  1.00  0.00     0.057 C 
HETATM   19  C13 UNL     1      23.129   4.761  50.924  1.00  0.00     0.035 C 
HETATM   20 CL1  UNL     1      25.682   4.463  50.282  1.00  0.00    -0.117 Cl
BRANCH  18  21
HETATM   21  C14 UNL     1      23.770   2.729  49.750  1.00  0.00     0.054 C 
BRANCH  21  22
HETATM   22  C15 UNL     1      23.045   3.544  48.702  1.00  0.00    -0.028 C 
HETATM   23  C16 UNL     1      22.293   3.045  47.705  1.00  0.00    -0.016 C 
BRANCH  23  24
HETATM   24  C17 UNL     1      21.495   3.606  46.576  1.00  0.00     0.141 C 
HETATM   25 CL2  UNL     1      22.142   5.187  46.055  1.00  0.00    -0.126 Cl
ENDBRANCH  23  24
ENDBRANCH  21  22
ENDBRANCH  18  21
ENDBRANCH  15  18
TORSDOF 4
ENDMDL
