MODEL 1
REMARK VINA RESULT:      -6.8      0.000      0.000
REMARK  2 active torsions:
REMARK  status: ('A' for Active; 'I' for Inactive)
REMARK    1  A    between atoms: S1_2  and  C2_5 
REMARK    2  A    between atoms: C2_5  and  C3_6 
ROOT
HETATM    1  C3  UNL     1      29.891   8.914  48.859  1.00  0.00     0.065 C 
HETATM    2  C4  UNL     1      29.362   8.934  47.408  1.00  0.00     0.064 C 
HETATM    3  C5  UNL     1      28.741   7.678  46.917  1.00  0.00     0.012 C 
HETATM    4  C6  UNL     1      28.378   6.721  47.757  1.00  0.00     0.067 C 
HETATM    5  C7  UNL     1      28.879   5.455  48.339  1.00  0.00     0.068 C 
HETATM    6  C8  UNL     1      30.109   5.813  48.013  1.00  0.00     0.060 C 
HETATM    7  C9  UNL     1      30.922   6.868  47.347  1.00  0.00     0.029 C 
HETATM    8  C10 UNL     1      31.652   7.939  47.592  1.00  0.00     0.003 C 
HETATM    9  C11 UNL     1      31.259   8.393  48.977  1.00  0.00     0.134 C 
HETATM   10  N1  UNL     1      31.650   7.410  49.970  1.00  0.00    -0.374 N 
HETATM   11  C12 UNL     1      31.725   5.910  49.850  1.00  0.00     0.203 C 
HETATM   12  N2  UNL     1      31.192   5.167  48.791  1.00  0.00    -0.244 NA
HETATM   13  O3  UNL     1      27.139   6.696  48.465  1.00  0.00    -0.350 OA
HETATM   14  C13 UNL     1      26.503   7.831  49.092  1.00  0.00     0.195 C 
HETATM   15  C14 UNL     1      27.512   8.831  49.644  1.00  0.00     0.141 C 
HETATM   16  N3  UNL     1      28.834   8.431  49.646  1.00  0.00    -0.407 N 
HETATM   17  H13 UNL     1      31.942   7.717  50.945  1.00  0.00     0.161 HD
HETATM   18  H19 UNL     1      29.126   8.048  50.574  1.00  0.00     0.154 HD
ENDROOT
BRANCH   1  19
HETATM   19  C2  UNL     1      29.941  10.409  49.212  1.00  0.00     0.173 C 
BRANCH  19  20
HETATM   20  S1  UNL     1      30.383  11.582  48.061  1.00  0.00     0.143 S 
HETATM   21  C1  UNL     1      31.932  11.444  47.237  1.00  0.00     0.161 C 
HETATM   22  O1  UNL     1      30.502  12.903  48.850  1.00  0.00    -0.228 OA
HETATM   23  O2  UNL     1      29.278  11.963  47.087  1.00  0.00    -0.228 OA
ENDBRANCH  19  20
ENDBRANCH   1  19
TORSDOF 2
ENDMDL
MODEL 2
REMARK VINA RESULT:      -6.7      9.295     11.374
REMARK  2 active torsions:
REMARK  status: ('A' for Active; 'I' for Inactive)
REMARK    1  A    between atoms: S1_2  and  C2_5 
REMARK    2  A    between atoms: C2_5  and  C3_6 
ROOT
HETATM    1  C3  UNL     1      23.871   1.030  52.490  1.00  0.00     0.065 C 
HETATM    2  C4  UNL     1      23.410   1.348  51.051  1.00  0.00     0.064 C 
HETATM    3  C5  UNL     1      22.136   2.100  50.921  1.00  0.00     0.012 C 
HETATM    4  C6  UNL     1      21.602   2.727  51.957  1.00  0.00     0.067 C 
HETATM    5  C7  UNL     1      20.595   2.527  53.024  1.00  0.00     0.068 C 
HETATM    6  C8  UNL     1      20.673   1.222  52.828  1.00  0.00     0.060 C 
HETATM    7  C9  UNL     1      21.313   0.162  52.002  1.00  0.00     0.029 C 
HETATM    8  C10 UNL     1      22.314  -0.697  51.991  1.00  0.00     0.003 C 
HETATM    9  C11 UNL     1      23.287  -0.203  53.034  1.00  0.00     0.134 C 
HETATM   10  N1  UNL     1      22.705  -0.288  54.360  1.00  0.00    -0.374 N 
HETATM   11  C12 UNL     1      21.269  -0.127  54.784  1.00  0.00     0.203 C 
HETATM   12  N2  UNL     1      20.249   0.377  53.969  1.00  0.00    -0.244 NA
HETATM   13  O3  UNL     1      21.973   4.036  52.387  1.00  0.00    -0.350 OA
HETATM   14  C13 UNL     1      23.321   4.551  52.452  1.00  0.00     0.195 C 
HETATM   15  C14 UNL     1      24.340   3.473  52.800  1.00  0.00     0.141 C 
HETATM   16  N3  UNL     1      23.830   2.248  53.185  1.00  0.00    -0.407 N 
HETATM   17  H13 UNL     1      23.318  -0.493  55.204  1.00  0.00     0.161 HD
HETATM   18  H19 UNL     1      23.788   2.152  54.226  1.00  0.00     0.154 HD
ENDROOT
BRANCH   1  19
HETATM   19  C2  UNL     1      25.376   0.779  52.307  1.00  0.00     0.173 C 
BRANCH  19  20
HETATM   20  S1  UNL     1      26.390   0.431  53.629  1.00  0.00     0.143 S 
HETATM   21  C1  UNL     1      28.080   0.035  53.343  1.00  0.00     0.161 C 
HETATM   22  O1  UNL     1      25.812  -0.853  54.259  1.00  0.00    -0.228 OA
HETATM   23  O2  UNL     1      26.244   1.383  54.807  1.00  0.00    -0.228 OA
ENDBRANCH  19  20
ENDBRANCH   1  19
TORSDOF 2
ENDMDL
MODEL 3
REMARK VINA RESULT:      -6.7      6.163      8.587
REMARK  2 active torsions:
REMARK  status: ('A' for Active; 'I' for Inactive)
REMARK    1  A    between atoms: S1_2  and  C2_5 
REMARK    2  A    between atoms: C2_5  and  C3_6 
ROOT
HETATM    1  C3  UNL     1      23.777   4.376  51.240  1.00  0.00     0.065 C 
HETATM    2  C4  UNL     1      23.517   3.419  50.056  1.00  0.00     0.064 C 
HETATM    3  C5  UNL     1      24.669   3.159  49.155  1.00  0.00     0.012 C 
HETATM    4  C6  UNL     1      25.904   3.466  49.519  1.00  0.00     0.067 C 
HETATM    5  C7  UNL     1      26.904   4.550  49.382  1.00  0.00     0.068 C 
HETATM    6  C8  UNL     1      25.929   5.385  49.065  1.00  0.00     0.060 C 
HETATM    7  C9  UNL     1      24.463   5.493  48.829  1.00  0.00     0.029 C 
HETATM    8  C10 UNL     1      23.330   5.831  49.413  1.00  0.00     0.003 C 
HETATM    9  C11 UNL     1      23.608   5.793  50.896  1.00  0.00     0.134 C 
HETATM   10  N1  UNL     1      24.566   6.819  51.265  1.00  0.00    -0.374 N 
HETATM   11  C12 UNL     1      25.718   7.378  50.472  1.00  0.00     0.203 C 
HETATM   12  N2  UNL     1      26.217   6.820  49.289  1.00  0.00    -0.244 NA
HETATM   13  O3  UNL     1      26.739   2.634  50.323  1.00  0.00    -0.350 OA
HETATM   14  C13 UNL     1      26.316   1.887  51.484  1.00  0.00     0.195 C 
HETATM   15  C14 UNL     1      25.215   2.596  52.263  1.00  0.00     0.141 C 
HETATM   16  N3  UNL     1      24.929   3.892  51.878  1.00  0.00    -0.407 N 
HETATM   17  H13 UNL     1      24.508   7.292  52.215  1.00  0.00     0.161 HD
HETATM   18  H19 UNL     1      25.421   4.595  52.476  1.00  0.00     0.154 HD
ENDROOT
BRANCH   1  19
HETATM   19  C2  UNL     1      22.650   4.006  52.217  1.00  0.00     0.173 C 
BRANCH  19  20
HETATM   20  S1  UNL     1      21.149   3.421  51.665  1.00  0.00     0.143 S 
HETATM   21  C1  UNL     1      20.160   4.430  50.616  1.00  0.00     0.161 C 
HETATM   22  O1  UNL     1      20.287   3.250  52.933  1.00  0.00    -0.228 OA
HETATM   23  O2  UNL     1      21.172   1.981  51.174  1.00  0.00    -0.228 OA
ENDBRANCH  19  20
ENDBRANCH   1  19
TORSDOF 2
ENDMDL
MODEL 4
REMARK VINA RESULT:      -6.7      8.213     10.612
REMARK  2 active torsions:
REMARK  status: ('A' for Active; 'I' for Inactive)
REMARK    1  A    between atoms: S1_2  and  C2_5 
REMARK    2  A    between atoms: C2_5  and  C3_6 
ROOT
HETATM    1  C3  UNL     1      23.460   1.674  52.523  1.00  0.00     0.065 C 
HETATM    2  C4  UNL     1      23.563   3.214  52.587  1.00  0.00     0.064 C 
HETATM    3  C5  UNL     1      24.524   3.848  51.649  1.00  0.00     0.012 C 
HETATM    4  C6  UNL     1      25.019   3.178  50.620  1.00  0.00     0.067 C 
HETATM    5  C7  UNL     1      26.204   2.378  50.235  1.00  0.00     0.068 C 
HETATM    6  C8  UNL     1      26.475   2.197  51.516  1.00  0.00     0.060 C 
HETATM    7  C9  UNL     1      26.040   2.530  52.900  1.00  0.00     0.029 C 
HETATM    8  C10 UNL     1      25.344   2.067  53.920  1.00  0.00     0.003 C 
HETATM    9  C11 UNL     1      24.458   0.986  53.352  1.00  0.00     0.134 C 
HETATM   10  N1  UNL     1      25.252  -0.131  52.874  1.00  0.00    -0.374 N 
HETATM   11  C12 UNL     1      26.630  -0.130  52.265  1.00  0.00     0.203 C 
HETATM   12  N2  UNL     1      27.310   1.015  51.833  1.00  0.00    -0.244 NA
HETATM   13  O3  UNL     1      24.362   3.031  49.361  1.00  0.00    -0.350 OA
HETATM   14  C13 UNL     1      22.953   2.775  49.171  1.00  0.00     0.195 C 
HETATM   15  C14 UNL     1      22.363   1.916  50.282  1.00  0.00     0.141 C 
HETATM   16  N3  UNL     1      23.262   1.358  51.170  1.00  0.00    -0.407 N 
HETATM   17  H13 UNL     1      24.875  -1.123  52.931  1.00  0.00     0.161 HD
HETATM   18  H19 UNL     1      23.503   0.373  50.916  1.00  0.00     0.154 HD
ENDROOT
BRANCH   1  19
HETATM   19  C2  UNL     1      22.083   1.409  53.153  1.00  0.00     0.173 C 
BRANCH  19  20
HETATM   20  S1  UNL     1      21.522  -0.173  53.434  1.00  0.00     0.143 S 
HETATM   21  C1  UNL     1      19.807  -0.526  53.258  1.00  0.00     0.161 C 
HETATM   22  O1  UNL     1      21.804  -0.447  54.926  1.00  0.00    -0.228 OA
HETATM   23  O2  UNL     1      22.372  -1.269  52.806  1.00  0.00    -0.228 OA
ENDBRANCH  19  20
ENDBRANCH   1  19
TORSDOF 2
ENDMDL
MODEL 5
REMARK VINA RESULT:      -6.6      8.773     11.094
REMARK  2 active torsions:
REMARK  status: ('A' for Active; 'I' for Inactive)
REMARK    1  A    between atoms: S1_2  and  C2_5 
REMARK    2  A    between atoms: C2_5  and  C3_6 
ROOT
HETATM    1  C3  UNL     1      22.554   1.518  52.447  1.00  0.00     0.065 C 
HETATM    2  C4  UNL     1      21.869   2.895  52.298  1.00  0.00     0.064 C 
HETATM    3  C5  UNL     1      22.203   3.666  51.073  1.00  0.00     0.012 C 
HETATM    4  C6  UNL     1      22.788   3.086  50.038  1.00  0.00     0.067 C 
HETATM    5  C7  UNL     1      24.131   2.866  49.454  1.00  0.00     0.068 C 
HETATM    6  C8  UNL     1      24.667   3.137  50.632  1.00  0.00     0.060 C 
HETATM    7  C9  UNL     1      24.363   3.541  52.032  1.00  0.00     0.029 C 
HETATM    8  C10 UNL     1      24.180   3.058  53.246  1.00  0.00     0.003 C 
HETATM    9  C11 UNL     1      23.886   1.589  53.061  1.00  0.00     0.134 C 
HETATM   10  N1  UNL     1      25.043   0.896  52.527  1.00  0.00    -0.374 N 
HETATM   11  C12 UNL     1      26.105   1.398  51.584  1.00  0.00     0.203 C 
HETATM   12  N2  UNL     1      26.026   2.591  50.857  1.00  0.00    -0.244 NA
HETATM   13  O3  UNL     1      22.096   2.361  49.021  1.00  0.00    -0.350 OA
HETATM   14  C13 UNL     1      21.004   1.441  49.238  1.00  0.00     0.195 C 
HETATM   15  C14 UNL     1      21.128   0.690  50.558  1.00  0.00     0.141 C 
HETATM   16  N3  UNL     1      22.320   0.841  51.240  1.00  0.00    -0.407 N 
HETATM   17  H13 UNL     1      25.238  -0.113  52.798  1.00  0.00     0.161 HD
HETATM   18  H19 UNL     1      22.982   0.054  51.050  1.00  0.00     0.154 HD
ENDROOT
BRANCH   1  19
HETATM   19  C2  UNL     1      21.631   0.797  53.441  1.00  0.00     0.173 C 
BRANCH  19  20
HETATM   20  S1  UNL     1      21.951  -0.792  53.962  1.00  0.00     0.143 S 
HETATM   21  C1  UNL     1      22.998  -1.051  55.353  1.00  0.00     0.161 C 
HETATM   22  O1  UNL     1      22.714  -1.458  52.798  1.00  0.00    -0.228 OA
HETATM   23  O2  UNL     1      20.730  -1.699  54.021  1.00  0.00    -0.228 OA
ENDBRANCH  19  20
ENDBRANCH   1  19
TORSDOF 2
ENDMDL
MODEL 6
REMARK VINA RESULT:      -6.6      4.913      6.332
REMARK  2 active torsions:
REMARK  status: ('A' for Active; 'I' for Inactive)
REMARK    1  A    between atoms: S1_2  and  C2_5 
REMARK    2  A    between atoms: C2_5  and  C3_6 
ROOT
HETATM    1  C3  UNL     1      33.109   6.162  45.715  1.00  0.00     0.065 C 
HETATM    2  C4  UNL     1      32.111   6.450  46.858  1.00  0.00     0.064 C 
HETATM    3  C5  UNL     1      32.641   6.330  48.240  1.00  0.00     0.012 C 
HETATM    4  C6  UNL     1      33.943   6.293  48.472  1.00  0.00     0.067 C 
HETATM    5  C7  UNL     1      35.044   5.325  48.685  1.00  0.00     0.068 C 
HETATM    6  C8  UNL     1      34.301   4.386  48.125  1.00  0.00     0.060 C 
HETATM    7  C9  UNL     1      32.970   4.100  47.521  1.00  0.00     0.029 C 
HETATM    8  C10 UNL     1      32.342   4.007  46.366  1.00  0.00     0.003 C 
HETATM    9  C11 UNL     1      33.209   4.738  45.370  1.00  0.00     0.134 C 
HETATM   10  N1  UNL     1      34.475   4.052  45.190  1.00  0.00    -0.374 N 
HETATM   11  C12 UNL     1      35.278   3.255  46.184  1.00  0.00     0.203 C 
HETATM   12  N2  UNL     1      35.043   3.233  47.564  1.00  0.00    -0.244 NA
HETATM   13  O3  UNL     1      34.777   7.447  48.582  1.00  0.00    -0.350 OA
HETATM   14  C13 UNL     1      34.707   8.620  47.742  1.00  0.00     0.195 C 
HETATM   15  C14 UNL     1      34.292   8.289  46.314  1.00  0.00     0.141 C 
HETATM   16  N3  UNL     1      34.240   6.948  45.986  1.00  0.00    -0.407 N 
HETATM   17  H13 UNL     1      34.965   4.066  44.247  1.00  0.00     0.161 HD
HETATM   18  H19 UNL     1      35.114   6.627  45.510  1.00  0.00     0.154 HD
ENDROOT
BRANCH   1  19
HETATM   19  C2  UNL     1      32.459   6.876  44.520  1.00  0.00     0.173 C 
BRANCH  19  20
HETATM   20  S1  UNL     1      33.246   6.991  43.015  1.00  0.00     0.143 S 
HETATM   21  C1  UNL     1      33.129   8.483  42.090  1.00  0.00     0.161 C 
HETATM   22  O1  UNL     1      32.558   5.944  42.114  1.00  0.00    -0.228 OA
HETATM   23  O2  UNL     1      34.668   6.450  43.000  1.00  0.00    -0.228 OA
ENDBRANCH  19  20
ENDBRANCH   1  19
TORSDOF 2
ENDMDL
MODEL 7
REMARK VINA RESULT:      -6.2      9.471     12.319
REMARK  2 active torsions:
REMARK  status: ('A' for Active; 'I' for Inactive)
REMARK    1  A    between atoms: S1_2  and  C2_5 
REMARK    2  A    between atoms: C2_5  and  C3_6 
ROOT
HETATM    1  C3  UNL     1      21.431   1.167  51.648  1.00  0.00     0.065 C 
HETATM    2  C4  UNL     1      22.253   1.106  50.342  1.00  0.00     0.064 C 
HETATM    3  C5  UNL     1      22.489   2.400  49.652  1.00  0.00     0.012 C 
HETATM    4  C6  UNL     1      22.287   3.552  50.272  1.00  0.00     0.067 C 
HETATM    5  C7  UNL     1      21.253   4.598  50.441  1.00  0.00     0.068 C 
HETATM    6  C8  UNL     1      20.339   3.733  50.035  1.00  0.00     0.060 C 
HETATM    7  C9  UNL     1      20.126   2.346  49.540  1.00  0.00     0.029 C 
HETATM    8  C10 UNL     1      19.784   1.134  49.933  1.00  0.00     0.003 C 
HETATM    9  C11 UNL     1      19.980   1.119  51.429  1.00  0.00     0.134 C 
HETATM   10  N1  UNL     1      19.050   2.024  52.078  1.00  0.00    -0.374 N 
HETATM   11  C12 UNL     1      18.482   3.327  51.580  1.00  0.00     0.203 C 
HETATM   12  N2  UNL     1      18.950   4.024  50.460  1.00  0.00    -0.244 NA
HETATM   13  O3  UNL     1      23.239   4.186  51.127  1.00  0.00    -0.350 OA
HETATM   14  C13 UNL     1      24.070   3.520  52.103  1.00  0.00     0.195 C 
HETATM   15  C14 UNL     1      23.379   2.315  52.730  1.00  0.00     0.141 C 
HETATM   16  N3  UNL     1      22.038   2.156  52.437  1.00  0.00    -0.407 N 
HETATM   17  H13 UNL     1      18.668   1.801  53.045  1.00  0.00     0.161 HD
HETATM   18  H19 UNL     1      21.424   2.548  53.188  1.00  0.00     0.154 HD
ENDROOT
BRANCH   1  19
HETATM   19  C2  UNL     1      21.830  -0.140  52.350  1.00  0.00     0.173 C 
BRANCH  19  20
HETATM   20  S1  UNL     1      21.368  -0.466  53.956  1.00  0.00     0.143 S 
HETATM   21  C1  UNL     1      22.523  -1.212  55.054  1.00  0.00     0.161 C 
HETATM   22  O1  UNL     1      20.233  -1.506  53.851  1.00  0.00    -0.228 OA
HETATM   23  O2  UNL     1      20.616   0.666  54.641  1.00  0.00    -0.228 OA
ENDBRANCH  19  20
ENDBRANCH   1  19
TORSDOF 2
ENDMDL
MODEL 8
REMARK VINA RESULT:      -6.1      7.416      9.525
REMARK  2 active torsions:
REMARK  status: ('A' for Active; 'I' for Inactive)
REMARK    1  A    between atoms: S1_2  and  C2_5 
REMARK    2  A    between atoms: C2_5  and  C3_6 
ROOT
HETATM    1  C3  UNL     1      23.081   3.856  50.785  1.00  0.00     0.065 C 
HETATM    2  C4  UNL     1      23.541   4.262  52.203  1.00  0.00     0.064 C 
HETATM    3  C5  UNL     1      24.158   3.191  53.026  1.00  0.00     0.012 C 
HETATM    4  C6  UNL     1      24.574   2.061  52.476  1.00  0.00     0.067 C 
HETATM    5  C7  UNL     1      24.120   0.674  52.220  1.00  0.00     0.068 C 
HETATM    6  C8  UNL     1      22.871   1.071  52.392  1.00  0.00     0.060 C 
HETATM    7  C9  UNL     1      22.011   2.239  52.728  1.00  0.00     0.029 C 
HETATM    8  C10 UNL     1      21.278   3.191  52.186  1.00  0.00     0.003 C 
HETATM    9  C11 UNL     1      21.728   3.285  50.748  1.00  0.00     0.134 C 
HETATM   10  N1  UNL     1      21.399   2.070  50.027  1.00  0.00    -0.374 N 
HETATM   11  C12 UNL     1      21.341   0.650  50.526  1.00  0.00     0.203 C 
HETATM   12  N2  UNL     1      21.836   0.219  51.762  1.00  0.00    -0.244 NA
HETATM   13  O3  UNL     1      25.845   1.887  51.851  1.00  0.00    -0.350 OA
HETATM   14  C13 UNL     1      26.492   2.841  50.979  1.00  0.00     0.195 C 
HETATM   15  C14 UNL     1      25.495   3.638  50.147  1.00  0.00     0.141 C 
HETATM   16  N3  UNL     1      24.181   3.216  50.194  1.00  0.00    -0.407 N 
HETATM   17  H13 UNL     1      21.149   2.109  48.994  1.00  0.00     0.161 HD
HETATM   18  H19 UNL     1      23.939   2.599  49.384  1.00  0.00     0.154 HD
ENDROOT
BRANCH   1  19
HETATM   19  C2  UNL     1      23.025   5.208  50.057  1.00  0.00     0.173 C 
BRANCH  19  20
HETATM   20  S1  UNL     1      22.610   5.316  48.409  1.00  0.00     0.143 S 
HETATM   21  C1  UNL     1      23.349   6.563  47.412  1.00  0.00     0.161 C 
HETATM   22  O1  UNL     1      21.109   5.668  48.388  1.00  0.00    -0.228 OA
HETATM   23  O2  UNL     1      22.573   3.983  47.676  1.00  0.00    -0.228 OA
ENDBRANCH  19  20
ENDBRANCH   1  19
TORSDOF 2
ENDMDL
MODEL 9
REMARK VINA RESULT:      -6.1      2.480      4.816
REMARK  2 active torsions:
REMARK  status: ('A' for Active; 'I' for Inactive)
REMARK    1  A    between atoms: S1_2  and  C2_5 
REMARK    2  A    between atoms: C2_5  and  C3_6 
ROOT
HETATM    1  C3  UNL     1      29.577   8.060  47.433  1.00  0.00     0.065 C 
HETATM    2  C4  UNL     1      28.968   8.032  46.014  1.00  0.00     0.064 C 
HETATM    3  C5  UNL     1      28.248   9.258  45.583  1.00  0.00     0.012 C 
HETATM    4  C6  UNL     1      28.392  10.400  46.237  1.00  0.00     0.067 C 
HETATM    5  C7  UNL     1      27.744  11.204  47.299  1.00  0.00     0.068 C 
HETATM    6  C8  UNL     1      27.114  10.117  47.710  1.00  0.00     0.060 C 
HETATM    7  C9  UNL     1      26.901   8.669  47.437  1.00  0.00     0.029 C 
HETATM    8  C10 UNL     1      27.303   7.466  47.796  1.00  0.00     0.003 C 
HETATM    9  C11 UNL     1      28.631   7.667  48.485  1.00  0.00     0.134 C 
HETATM   10  N1  UNL     1      28.461   8.412  49.718  1.00  0.00    -0.374 N 
HETATM   11  C12 UNL     1      27.464   9.491  50.052  1.00  0.00     0.203 C 
HETATM   12  N2  UNL     1      26.650  10.141  49.117  1.00  0.00    -0.244 NA
HETATM   13  O3  UNL     1      29.460  11.323  46.023  1.00  0.00    -0.350 OA
HETATM   14  C13 UNL     1      30.847  10.975  45.822  1.00  0.00     0.195 C 
HETATM   15  C14 UNL     1      31.252   9.728  46.599  1.00  0.00     0.141 C 
HETATM   16  N3  UNL     1      30.329   9.243  47.505  1.00  0.00    -0.407 N 
HETATM   17  H13 UNL     1      29.093   8.223  50.552  1.00  0.00     0.161 HD
HETATM   18  H19 UNL     1      30.525   9.573  48.478  1.00  0.00     0.154 HD
ENDROOT
BRANCH   1  19
HETATM   19  C2  UNL     1      30.651   6.963  47.353  1.00  0.00     0.173 C 
BRANCH  19  20
HETATM   20  S1  UNL     1      31.723   6.670  48.642  1.00  0.00     0.143 S 
HETATM   21  C1  UNL     1      33.391   6.229  48.295  1.00  0.00     0.161 C 
HETATM   22  O1  UNL     1      31.158   5.433  49.370  1.00  0.00    -0.228 OA
HETATM   23  O2  UNL     1      31.651   7.688  49.771  1.00  0.00    -0.228 OA
ENDBRANCH  19  20
ENDBRANCH   1  19
TORSDOF 2
ENDMDL
