MODEL 1
REMARK VINA RESULT:      -7.9      0.000      0.000
REMARK  6 active torsions:
REMARK  status: ('A' for Active; 'I' for Inactive)
REMARK    1  A    between atoms: C2_2  and  C3_3 
REMARK    2  A    between atoms: C6_6  and  C7_7 
REMARK    3  A    between atoms: C8_8  and  C9_9 
REMARK    4  A    between atoms: C9_9  and  N1_10 
REMARK    5  A    between atoms: N1_10  and  C10_11 
REMARK    6  A    between atoms: C12_15  and  C13_16 
ROOT
HETATM    1  C3  UNL     1      22.311   4.320  48.921  1.00  0.00     0.005 C 
HETATM    2  C4  UNL     1      22.693   3.529  49.903  1.00  0.00     0.051 C 
HETATM    3  C5  UNL     1      23.771   3.838  50.914  1.00  0.00     0.136 C 
HETATM    4  C6  UNL     1      24.980   2.996  50.783  1.00  0.00     0.089 C 
HETATM    5  N2  UNL     1      25.134   2.059  51.497  1.00  0.00    -0.422 NA
HETATM    6  C11 UNL     1      25.199   1.052  52.335  1.00  0.00     0.190 C 
HETATM    7  C12 UNL     1      24.736   0.129  53.074  1.00  0.00    -0.013 C 
HETATM    8  C16 UNL     1      23.346  -0.282  53.302  1.00  0.00    -0.001 A 
HETATM    9  C17 UNL     1      22.641  -0.936  54.292  1.00  0.00     0.016 A 
HETATM   10  C18 UNL     1      21.408  -0.806  53.524  1.00  0.00     0.031 A 
HETATM   11  C19 UNL     1      22.103  -0.164  52.558  1.00  0.00     0.040 A 
HETATM   12  N3  UNL     1      21.512   0.368  51.319  1.00  0.00    -0.367 N 
HETATM   13  C20 UNL     1      22.293   1.453  50.840  1.00  0.00     0.297 C 
HETATM   14  O2  UNL     1      21.907   2.327  49.851  1.00  0.00    -0.336 OA
HETATM   15  H25 UNL     1      20.698   0.089  50.797  1.00  0.00     0.161 HD
ENDROOT
BRANCH   4  16
HETATM   16  C7  UNL     1      25.921   3.273  49.708  1.00  0.00     0.038 C 
HETATM   17  C8  UNL     1      26.674   4.349  49.595  1.00  0.00    -0.004 C 
BRANCH  17  18
HETATM   18  C9  UNL     1      27.652   4.719  48.549  1.00  0.00     0.149 C 
BRANCH  18  19
HETATM   19  N1  UNL     1      28.404   5.895  48.989  1.00  0.00    -0.365 N 
HETATM   20  H13 UNL     1      28.193   6.639  49.667  1.00  0.00     0.162 HD
BRANCH  19  21
HETATM   21  C10 UNL     1      29.654   5.933  48.291  1.00  0.00     0.348 C 
HETATM   22  O1  UNL     1      30.622   5.387  48.873  1.00  0.00    -0.284 OA
ENDBRANCH  19  21
ENDBRANCH  18  19
ENDBRANCH  17  18
ENDBRANCH   4  16
BRANCH   1  23
HETATM   23  C2  UNL     1      21.351   4.352  47.808  1.00  0.00     0.025 C 
HETATM   24  C1  UNL     1      21.918   3.630  46.616  1.00  0.00     0.009 C 
ENDBRANCH   1  23
BRANCH   7  25
HETATM   25  C13 UNL     1      25.819  -0.622  53.754  1.00  0.00     0.014 C 
HETATM   26  C14 UNL     1      26.845  -1.228  52.848  1.00  0.00     0.015 C 
HETATM   27  C15 UNL     1      26.509   0.180  54.822  1.00  0.00     0.015 C 
ENDBRANCH   7  25
TORSDOF 6
ENDMDL
MODEL 2
REMARK VINA RESULT:      -7.9      2.459      7.904
REMARK  6 active torsions:
REMARK  status: ('A' for Active; 'I' for Inactive)
REMARK    1  A    between atoms: C2_2  and  C3_3 
REMARK    2  A    between atoms: C6_6  and  C7_7 
REMARK    3  A    between atoms: C8_8  and  C9_9 
REMARK    4  A    between atoms: C9_9  and  N1_10 
REMARK    5  A    between atoms: N1_10  and  C10_11 
REMARK    6  A    between atoms: C12_15  and  C13_16 
ROOT
HETATM    1  C3  UNL     1      26.657   0.343  53.280  1.00  0.00     0.005 C 
HETATM    2  C4  UNL     1      26.169   1.426  52.710  1.00  0.00     0.051 C 
HETATM    3  C5  UNL     1      25.197   2.393  53.344  1.00  0.00     0.136 C 
HETATM    4  C6  UNL     1      23.851   2.385  52.731  1.00  0.00     0.089 C 
HETATM    5  N2  UNL     1      23.552   3.222  51.941  1.00  0.00    -0.422 NA
HETATM    6  C11 UNL     1      23.331   4.190  51.084  1.00  0.00     0.190 C 
HETATM    7  C12 UNL     1      23.641   5.045  50.198  1.00  0.00    -0.013 C 
HETATM    8  C16 UNL     1      24.940   5.318  49.573  1.00  0.00    -0.001 A 
HETATM    9  C17 UNL     1      25.546   6.384  48.937  1.00  0.00     0.016 A 
HETATM   10  C18 UNL     1      26.756   5.597  48.734  1.00  0.00     0.031 A 
HETATM   11  C19 UNL     1      26.160   4.557  49.359  1.00  0.00     0.040 A 
HETATM   12  N3  UNL     1      26.799   3.253  49.603  1.00  0.00    -0.367 N 
HETATM   13  C20 UNL     1      26.213   2.636  50.740  1.00  0.00     0.297 C 
HETATM   14  O2  UNL     1      26.720   1.534  51.389  1.00  0.00    -0.336 OA
HETATM   15  H25 UNL     1      27.532   2.769  49.112  1.00  0.00     0.161 HD
ENDROOT
BRANCH   4  16
HETATM   16  C7  UNL     1      22.943   1.288  53.030  1.00  0.00     0.038 C 
HETATM   17  C8  UNL     1      21.627   1.334  52.971  1.00  0.00    -0.004 C 
BRANCH  17  18
HETATM   18  C9  UNL     1      20.626   0.282  53.253  1.00  0.00     0.149 C 
BRANCH  18  19
HETATM   19  N1  UNL     1      20.804  -0.192  54.627  1.00  0.00    -0.365 N 
HETATM   20  H13 UNL     1      20.637   0.251  55.540  1.00  0.00     0.162 HD
BRANCH  19  21
HETATM   21  C10 UNL     1      21.307  -1.533  54.593  1.00  0.00     0.348 C 
HETATM   22  O1  UNL     1      22.282  -1.770  55.347  1.00  0.00    -0.284 OA
ENDBRANCH  19  21
ENDBRANCH  18  19
ENDBRANCH  17  18
ENDBRANCH   4  16
BRANCH   1  23
HETATM   23  C2  UNL     1      27.571  -0.770  52.986  1.00  0.00     0.025 C 
HETATM   24  C1  UNL     1      28.915  -0.512  53.609  1.00  0.00     0.009 C 
ENDBRANCH   1  23
BRANCH   7  25
HETATM   25  C13 UNL     1      22.463   5.828  49.758  1.00  0.00     0.014 C 
HETATM   26  C14 UNL     1      21.357   5.029  49.139  1.00  0.00     0.015 C 
HETATM   27  C15 UNL     1      21.899   6.702  50.843  1.00  0.00     0.015 C 
ENDBRANCH   7  25
TORSDOF 6
ENDMDL
MODEL 3
REMARK VINA RESULT:      -7.3      1.715      2.229
REMARK  6 active torsions:
REMARK  status: ('A' for Active; 'I' for Inactive)
REMARK    1  A    between atoms: C2_2  and  C3_3 
REMARK    2  A    between atoms: C6_6  and  C7_7 
REMARK    3  A    between atoms: C8_8  and  C9_9 
REMARK    4  A    between atoms: C9_9  and  N1_10 
REMARK    5  A    between atoms: N1_10  and  C10_11 
REMARK    6  A    between atoms: C12_15  and  C13_16 
ROOT
HETATM    1  C3  UNL     1      22.918   6.044  47.303  1.00  0.00     0.005 C 
HETATM    2  C4  UNL     1      23.062   5.219  48.321  1.00  0.00     0.051 C 
HETATM    3  C5  UNL     1      23.663   5.571  49.661  1.00  0.00     0.136 C 
HETATM    4  C6  UNL     1      24.964   4.919  49.929  1.00  0.00     0.089 C 
HETATM    5  N2  UNL     1      25.013   3.945  50.609  1.00  0.00    -0.422 NA
HETATM    6  C11 UNL     1      24.949   2.879  51.369  1.00  0.00     0.190 C 
HETATM    7  C12 UNL     1      24.416   1.833  51.856  1.00  0.00    -0.013 C 
HETATM    8  C16 UNL     1      23.119   1.217  51.558  1.00  0.00    -0.001 A 
HETATM    9  C17 UNL     1      22.232   0.379  52.205  1.00  0.00     0.016 A 
HETATM   10  C18 UNL     1      21.334   0.415  51.057  1.00  0.00     0.031 A 
HETATM   11  C19 UNL     1      22.204   1.237  50.429  1.00  0.00     0.040 A 
HETATM   12  N3  UNL     1      21.995   1.803  49.086  1.00  0.00    -0.367 N 
HETATM   13  C20 UNL     1      22.707   3.027  48.963  1.00  0.00     0.297 C 
HETATM   14  O2  UNL     1      22.548   3.933  47.941  1.00  0.00    -0.336 OA
HETATM   15  H25 UNL     1      21.466   1.469  48.298  1.00  0.00     0.161 HD
ENDROOT
BRANCH   4  16
HETATM   16  C7  UNL     1      26.158   5.425  49.269  1.00  0.00     0.038 C 
HETATM   17  C8  UNL     1      27.220   4.716  48.940  1.00  0.00    -0.004 C 
BRANCH  17  18
HETATM   18  C9  UNL     1      28.472   5.136  48.273  1.00  0.00     0.149 C 
BRANCH  18  19
HETATM   19  N1  UNL     1      28.962   6.363  48.901  1.00  0.00    -0.365 N 
HETATM   20  H13 UNL     1      28.485   7.119  49.412  1.00  0.00     0.162 HD
BRANCH  19  21
HETATM   21  C10 UNL     1      30.381   6.442  48.722  1.00  0.00     0.348 C 
HETATM   22  O1  UNL     1      31.043   5.475  49.172  1.00  0.00    -0.284 OA
ENDBRANCH  19  21
ENDBRANCH  18  19
ENDBRANCH  17  18
ENDBRANCH   4  16
BRANCH   1  23
HETATM   23  C2  UNL     1      22.406   6.054  45.926  1.00  0.00     0.025 C 
HETATM   24  C1  UNL     1      22.514   7.438  45.345  1.00  0.00     0.009 C 
ENDBRANCH   1  23
BRANCH   7  25
HETATM   25  C13 UNL     1      25.306   1.174  52.841  1.00  0.00     0.014 C 
HETATM   26  C14 UNL     1      26.330   0.248  52.260  1.00  0.00     0.015 C 
HETATM   27  C15 UNL     1      25.983   2.147  53.765  1.00  0.00     0.015 C 
ENDBRANCH   7  25
TORSDOF 6
ENDMDL
MODEL 4
REMARK VINA RESULT:      -6.9      2.565      4.800
REMARK  6 active torsions:
REMARK  status: ('A' for Active; 'I' for Inactive)
REMARK    1  A    between atoms: C2_2  and  C3_3 
REMARK    2  A    between atoms: C6_6  and  C7_7 
REMARK    3  A    between atoms: C8_8  and  C9_9 
REMARK    4  A    between atoms: C9_9  and  N1_10 
REMARK    5  A    between atoms: N1_10  and  C10_11 
REMARK    6  A    between atoms: C12_15  and  C13_16 
ROOT
HETATM    1  C3  UNL     1      25.471   4.511  49.033  1.00  0.00     0.005 C 
HETATM    2  C4  UNL     1      25.099   3.548  49.852  1.00  0.00     0.051 C 
HETATM    3  C5  UNL     1      23.995   2.550  49.593  1.00  0.00     0.136 C 
HETATM    4  C6  UNL     1      22.815   2.714  50.470  1.00  0.00     0.089 C 
HETATM    5  N2  UNL     1      22.679   2.017  51.423  1.00  0.00    -0.422 NA
HETATM    6  C11 UNL     1      22.633   1.196  52.444  1.00  0.00     0.190 C 
HETATM    7  C12 UNL     1      23.112   0.463  53.364  1.00  0.00    -0.013 C 
HETATM    8  C16 UNL     1      24.511   0.219  53.734  1.00  0.00    -0.001 A 
HETATM    9  C17 UNL     1      25.221  -0.773  54.381  1.00  0.00     0.016 A 
HETATM   10  C18 UNL     1      26.460  -0.028  54.200  1.00  0.00     0.031 A 
HETATM   11  C19 UNL     1      25.761   0.940  53.566  1.00  0.00     0.040 A 
HETATM   12  N3  UNL     1      26.356   2.160  52.996  1.00  0.00    -0.367 N 
HETATM   13  C20 UNL     1      25.548   2.635  51.928  1.00  0.00     0.297 C 
HETATM   14  O2  UNL     1      25.922   3.604  51.027  1.00  0.00    -0.336 OA
HETATM   15  H25 UNL     1      27.186   2.673  53.241  1.00  0.00     0.161 HD
ENDROOT
BRANCH   4  16
HETATM   16  C7  UNL     1      21.884   3.800  50.206  1.00  0.00     0.038 C 
HETATM   17  C8  UNL     1      21.866   4.970  50.814  1.00  0.00    -0.004 C 
BRANCH  17  18
HETATM   18  C9  UNL     1      20.967   6.129  50.619  1.00  0.00     0.149 C 
BRANCH  18  19
HETATM   19  N1  UNL     1      21.636   7.340  51.094  1.00  0.00    -0.365 N 
HETATM   20  H13 UNL     1      21.979   7.624  52.021  1.00  0.00     0.162 HD
BRANCH  19  21
HETATM   21  C10 UNL     1      21.803   8.240  49.993  1.00  0.00     0.348 C 
HETATM   22  O1  UNL     1      22.988   8.515  49.685  1.00  0.00    -0.284 OA
ENDBRANCH  19  21
ENDBRANCH  18  19
ENDBRANCH  17  18
ENDBRANCH   4  16
BRANCH   1  23
HETATM   23  C2  UNL     1      26.447   5.607  48.954  1.00  0.00     0.025 C 
HETATM   24  C1  UNL     1      25.812   6.820  48.332  1.00  0.00     0.009 C 
ENDBRANCH   1  23
BRANCH   7  25
HETATM   25  C13 UNL     1      22.043  -0.187  54.158  1.00  0.00     0.014 C 
HETATM   26  C14 UNL     1      20.727   0.527  54.168  1.00  0.00     0.015 C 
HETATM   27  C15 UNL     1      21.826  -1.627  53.784  1.00  0.00     0.015 C 
ENDBRANCH   7  25
TORSDOF 6
ENDMDL
MODEL 5
REMARK VINA RESULT:      -6.9      2.512      7.960
REMARK  6 active torsions:
REMARK  status: ('A' for Active; 'I' for Inactive)
REMARK    1  A    between atoms: C2_2  and  C3_3 
REMARK    2  A    between atoms: C6_6  and  C7_7 
REMARK    3  A    between atoms: C8_8  and  C9_9 
REMARK    4  A    between atoms: C9_9  and  N1_10 
REMARK    5  A    between atoms: N1_10  and  C10_11 
REMARK    6  A    between atoms: C12_15  and  C13_16 
ROOT
HETATM    1  C3  UNL     1      24.645   0.897  53.319  1.00  0.00     0.005 C 
HETATM    2  C4  UNL     1      24.763   1.995  52.599  1.00  0.00     0.051 C 
HETATM    3  C5  UNL     1      24.184   3.345  52.949  1.00  0.00     0.136 C 
HETATM    4  C6  UNL     1      23.092   3.784  52.052  1.00  0.00     0.089 C 
HETATM    5  N2  UNL     1      23.316   4.551  51.173  1.00  0.00    -0.422 NA
HETATM    6  C11 UNL     1      23.677   5.398  50.238  1.00  0.00     0.190 C 
HETATM    7  C12 UNL     1      24.470   5.929  49.400  1.00  0.00    -0.013 C 
HETATM    8  C16 UNL     1      25.854   5.576  49.066  1.00  0.00    -0.001 A 
HETATM    9  C17 UNL     1      26.952   6.216  48.526  1.00  0.00     0.016 A 
HETATM   10  C18 UNL     1      27.741   4.996  48.639  1.00  0.00     0.031 A 
HETATM   11  C19 UNL     1      26.664   4.374  49.169  1.00  0.00     0.040 A 
HETATM   12  N3  UNL     1      26.648   2.971  49.618  1.00  0.00    -0.367 N 
HETATM   13  C20 UNL     1      25.663   2.801  50.627  1.00  0.00     0.297 C 
HETATM   14  O2  UNL     1      25.540   1.691  51.429  1.00  0.00    -0.336 OA
HETATM   15  H25 UNL     1      27.189   2.174  49.328  1.00  0.00     0.161 HD
ENDROOT
BRANCH   4  16
HETATM   16  C7  UNL     1      21.773   3.188  52.200  1.00  0.00     0.038 C 
HETATM   17  C8  UNL     1      21.188   2.379  51.338  1.00  0.00    -0.004 C 
BRANCH  17  18
HETATM   18  C9  UNL     1      19.861   1.728  51.398  1.00  0.00     0.149 C 
BRANCH  18  19
HETATM   19  N1  UNL     1      19.929   0.584  52.309  1.00  0.00    -0.365 N 
HETATM   20  H13 UNL     1      20.660   0.253  52.952  1.00  0.00     0.162 HD
BRANCH  19  21
HETATM   21  C10 UNL     1      18.703  -0.151  52.221  1.00  0.00     0.348 C 
HETATM   22  O1  UNL     1      18.225  -0.281  51.069  1.00  0.00    -0.284 OA
ENDBRANCH  19  21
ENDBRANCH  18  19
ENDBRANCH  17  18
ENDBRANCH   4  16
BRANCH   1  23
HETATM   23  C2  UNL     1      25.051  -0.515  53.295  1.00  0.00     0.025 C 
HETATM   24  C1  UNL     1      26.493  -0.645  53.700  1.00  0.00     0.009 C 
ENDBRANCH   1  23
BRANCH   7  25
HETATM   25  C13 UNL     1      23.824   7.044  48.668  1.00  0.00     0.014 C 
HETATM   26  C14 UNL     1      23.212   6.676  47.352  1.00  0.00     0.015 C 
HETATM   27  C15 UNL     1      22.814   7.785  49.498  1.00  0.00     0.015 C 
ENDBRANCH   7  25
TORSDOF 6
ENDMDL
MODEL 6
REMARK VINA RESULT:      -6.8      2.725      6.200
REMARK  6 active torsions:
REMARK  status: ('A' for Active; 'I' for Inactive)
REMARK    1  A    between atoms: C2_2  and  C3_3 
REMARK    2  A    between atoms: C6_6  and  C7_7 
REMARK    3  A    between atoms: C8_8  and  C9_9 
REMARK    4  A    between atoms: C9_9  and  N1_10 
REMARK    5  A    between atoms: N1_10  and  C10_11 
REMARK    6  A    between atoms: C12_15  and  C13_16 
ROOT
HETATM    1  C3  UNL     1      23.692   4.720  48.778  1.00  0.00     0.005 C 
HETATM    2  C4  UNL     1      23.727   3.641  49.534  1.00  0.00     0.051 C 
HETATM    3  C5  UNL     1      22.886   2.402  49.340  1.00  0.00     0.136 C 
HETATM    4  C6  UNL     1      21.877   2.186  50.400  1.00  0.00     0.089 C 
HETATM    5  N2  UNL     1      22.093   1.418  51.281  1.00  0.00    -0.422 NA
HETATM    6  C11 UNL     1      22.438   0.551  52.202  1.00  0.00     0.190 C 
HETATM    7  C12 UNL     1      23.243  -0.085  52.951  1.00  0.00    -0.013 C 
HETATM    8  C16 UNL     1      24.700   0.033  53.074  1.00  0.00    -0.001 A 
HETATM    9  C17 UNL     1      25.742  -0.771  53.492  1.00  0.00     0.016 A 
HETATM   10  C18 UNL     1      26.699   0.290  53.206  1.00  0.00     0.031 A 
HETATM   11  C19 UNL     1      25.677   1.073  52.795  1.00  0.00     0.040 A 
HETATM   12  N3  UNL     1      25.831   2.443  52.278  1.00  0.00    -0.367 N 
HETATM   13  C20 UNL     1      24.753   2.751  51.405  1.00  0.00     0.297 C 
HETATM   14  O2  UNL     1      24.704   3.841  50.568  1.00  0.00    -0.336 OA
HETATM   15  H25 UNL     1      26.533   3.143  52.447  1.00  0.00     0.161 HD
ENDROOT
BRANCH   4  16
HETATM   16  C7  UNL     1      20.669   2.997  50.402  1.00  0.00     0.038 C 
HETATM   17  C8  UNL     1      19.723   2.976  51.321  1.00  0.00    -0.004 C 
BRANCH  17  18
HETATM   18  C9  UNL     1      18.469   3.755  51.411  1.00  0.00     0.149 C 
BRANCH  18  19
HETATM   19  N1  UNL     1      17.330   2.835  51.390  1.00  0.00    -0.365 N 
HETATM   20  H13 UNL     1      17.248   1.840  51.141  1.00  0.00     0.162 HD
BRANCH  19  21
HETATM   21  C10 UNL     1      16.157   3.540  51.810  1.00  0.00     0.348 C 
HETATM   22  O1  UNL     1      16.328   4.399  52.708  1.00  0.00    -0.284 OA
ENDBRANCH  19  21
ENDBRANCH  18  19
ENDBRANCH  17  18
ENDBRANCH   4  16
BRANCH   1  23
HETATM   23  C2  UNL     1      24.327   6.041  48.669  1.00  0.00     0.025 C 
HETATM   24  C1  UNL     1      23.673   6.840  47.576  1.00  0.00     0.009 C 
ENDBRANCH   1  23
BRANCH   7  25
HETATM   25  C13 UNL     1      22.532  -1.048  53.825  1.00  0.00     0.014 C 
HETATM   26  C14 UNL     1      22.965  -1.054  55.258  1.00  0.00     0.015 C 
HETATM   27  C15 UNL     1      21.037  -0.910  53.757  1.00  0.00     0.015 C 
ENDBRANCH   7  25
TORSDOF 6
ENDMDL
MODEL 7
REMARK VINA RESULT:      -6.6      5.167      8.591
REMARK  6 active torsions:
REMARK  status: ('A' for Active; 'I' for Inactive)
REMARK    1  A    between atoms: C2_2  and  C3_3 
REMARK    2  A    between atoms: C6_6  and  C7_7 
REMARK    3  A    between atoms: C8_8  and  C9_9 
REMARK    4  A    between atoms: C9_9  and  N1_10 
REMARK    5  A    between atoms: N1_10  and  C10_11 
REMARK    6  A    between atoms: C12_15  and  C13_16 
ROOT
HETATM    1  C3  UNL     1      31.988   8.310  46.521  1.00  0.00     0.005 C 
HETATM    2  C4  UNL     1      30.872   7.887  47.079  1.00  0.00     0.051 C 
HETATM    3  C5  UNL     1      30.774   7.083  48.353  1.00  0.00     0.136 C 
HETATM    4  C6  UNL     1      30.307   5.693  48.155  1.00  0.00     0.089 C 
HETATM    5  N2  UNL     1      29.171   5.411  48.360  1.00  0.00    -0.422 NA
HETATM    6  C11 UNL     1      27.900   5.215  48.615  1.00  0.00     0.190 C 
HETATM    7  C12 UNL     1      26.672   5.531  48.693  1.00  0.00    -0.013 C 
HETATM    8  C16 UNL     1      26.003   6.788  48.341  1.00  0.00    -0.001 A 
HETATM    9  C17 UNL     1      24.839   7.441  48.694  1.00  0.00     0.016 A 
HETATM   10  C18 UNL     1      25.160   8.540  47.792  1.00  0.00     0.031 A 
HETATM   11  C19 UNL     1      26.300   7.898  47.450  1.00  0.00     0.040 A 
HETATM   12  N3  UNL     1      27.297   8.419  46.500  1.00  0.00    -0.367 N 
HETATM   13  C20 UNL     1      28.576   7.877  46.801  1.00  0.00     0.297 C 
HETATM   14  O2  UNL     1      29.765   8.325  46.274  1.00  0.00    -0.336 OA
HETATM   15  H25 UNL     1      27.209   9.049  45.722  1.00  0.00     0.161 HD
ENDROOT
BRANCH   4  16
HETATM   16  C7  UNL     1      31.230   4.708  47.613  1.00  0.00     0.038 C 
HETATM   17  C8  UNL     1      32.428   4.424  48.087  1.00  0.00    -0.004 C 
BRANCH  17  18
HETATM   18  C9  UNL     1      33.431   3.448  47.609  1.00  0.00     0.149 C 
BRANCH  18  19
HETATM   19  N1  UNL     1      34.654   3.592  48.400  1.00  0.00    -0.365 N 
HETATM   20  H13 UNL     1      35.236   2.911  48.907  1.00  0.00     0.162 HD
BRANCH  19  21
HETATM   21  C10 UNL     1      35.039   4.971  48.413  1.00  0.00     0.348 C 
HETATM   22  O1  UNL     1      35.555   5.385  49.479  1.00  0.00    -0.284 OA
ENDBRANCH  19  21
ENDBRANCH  18  19
ENDBRANCH  17  18
ENDBRANCH   4  16
BRANCH   1  23
HETATM   23  C2  UNL     1      32.443   9.074  45.350  1.00  0.00     0.025 C 
HETATM   24  C1  UNL     1      32.625  10.521  45.717  1.00  0.00     0.009 C 
ENDBRANCH   1  23
BRANCH   7  25
HETATM   25  C13 UNL     1      25.848   4.404  49.192  1.00  0.00     0.014 C 
HETATM   26  C14 UNL     1      26.596   3.136  49.467  1.00  0.00     0.015 C 
HETATM   27  C15 UNL     1      25.024   4.767  50.394  1.00  0.00     0.015 C 
ENDBRANCH   7  25
TORSDOF 6
ENDMDL
MODEL 8
REMARK VINA RESULT:      -6.4      4.637     11.430
REMARK  6 active torsions:
REMARK  status: ('A' for Active; 'I' for Inactive)
REMARK    1  A    between atoms: C2_2  and  C3_3 
REMARK    2  A    between atoms: C6_6  and  C7_7 
REMARK    3  A    between atoms: C8_8  and  C9_9 
REMARK    4  A    between atoms: C9_9  and  N1_10 
REMARK    5  A    between atoms: N1_10  and  C10_11 
REMARK    6  A    between atoms: C12_15  and  C13_16 
ROOT
HETATM    1  C3  UNL     1      32.055   4.068  47.407  1.00  0.00     0.005 C 
HETATM    2  C4  UNL     1      31.936   5.379  47.463  1.00  0.00     0.051 C 
HETATM    3  C5  UNL     1      31.399   6.166  48.635  1.00  0.00     0.136 C 
HETATM    4  C6  UNL     1      30.097   6.820  48.376  1.00  0.00     0.089 C 
HETATM    5  N2  UNL     1      30.056   7.974  48.094  1.00  0.00    -0.422 NA
HETATM    6  C11 UNL     1      30.131   9.248  47.790  1.00  0.00     0.190 C 
HETATM    7  C12 UNL     1      30.661  10.293  47.302  1.00  0.00    -0.013 C 
HETATM    8  C16 UNL     1      31.933  10.452  46.588  1.00  0.00    -0.001 A 
HETATM    9  C17 UNL     1      32.829  11.475  46.346  1.00  0.00     0.016 A 
HETATM   10  C18 UNL     1      33.679  10.572  45.579  1.00  0.00     0.031 A 
HETATM   11  C19 UNL     1      32.800   9.574  45.820  1.00  0.00     0.040 A 
HETATM   12  N3  UNL     1      32.964   8.187  45.353  1.00  0.00    -0.367 N 
HETATM   13  C20 UNL     1      32.273   7.301  46.222  1.00  0.00     0.297 C 
HETATM   14  O2  UNL     1      32.408   5.933  46.224  1.00  0.00    -0.336 OA
HETATM   15  H25 UNL     1      33.453   7.806  44.561  1.00  0.00     0.161 HD
ENDROOT
BRANCH   4  16
HETATM   16  C7  UNL     1      28.887   6.012  48.373  1.00  0.00     0.038 C 
HETATM   17  C8  UNL     1      27.668   6.443  48.631  1.00  0.00    -0.004 C 
BRANCH  17  18
HETATM   18  C9  UNL     1      26.386   5.705  48.652  1.00  0.00     0.149 C 
BRANCH  18  19
HETATM   19  N1  UNL     1      26.050   5.368  50.037  1.00  0.00    -0.365 N 
HETATM   20  H13 UNL     1      25.911   5.946  50.877  1.00  0.00     0.162 HD
BRANCH  19  21
HETATM   21  C10 UNL     1      25.905   3.948  50.146  1.00  0.00     0.348 C 
HETATM   22  O1  UNL     1      26.939   3.274  49.918  1.00  0.00    -0.284 OA
ENDBRANCH  19  21
ENDBRANCH  18  19
ENDBRANCH  17  18
ENDBRANCH   4  16
BRANCH   1  23
HETATM   23  C2  UNL     1      32.509   3.017  46.487  1.00  0.00     0.025 C 
HETATM   24  C1  UNL     1      34.003   2.861  46.577  1.00  0.00     0.009 C 
ENDBRANCH   1  23
BRANCH   7  25
HETATM   25  C13 UNL     1      29.800  11.484  47.492  1.00  0.00     0.014 C 
HETATM   26  C14 UNL     1      28.333  11.252  47.297  1.00  0.00     0.015 C 
HETATM   27  C15 UNL     1      30.025  12.168  48.811  1.00  0.00     0.015 C 
ENDBRANCH   7  25
TORSDOF 6
ENDMDL
MODEL 9
REMARK VINA RESULT:      -6.3      2.931      6.712
REMARK  6 active torsions:
REMARK  status: ('A' for Active; 'I' for Inactive)
REMARK    1  A    between atoms: C2_2  and  C3_3 
REMARK    2  A    between atoms: C6_6  and  C7_7 
REMARK    3  A    between atoms: C8_8  and  C9_9 
REMARK    4  A    between atoms: C9_9  and  N1_10 
REMARK    5  A    between atoms: N1_10  and  C10_11 
REMARK    6  A    between atoms: C12_15  and  C13_16 
ROOT
HETATM    1  C3  UNL     1      22.272   3.491  48.083  1.00  0.00     0.005 C 
HETATM    2  C4  UNL     1      22.519   2.579  49.002  1.00  0.00     0.051 C 
HETATM    3  C5  UNL     1      21.885   1.211  49.078  1.00  0.00     0.136 C 
HETATM    4  C6  UNL     1      20.975   1.031  50.231  1.00  0.00     0.089 C 
HETATM    5  N2  UNL     1      21.355   0.472  51.208  1.00  0.00    -0.422 NA
HETATM    6  C11 UNL     1      21.881  -0.157  52.232  1.00  0.00     0.190 C 
HETATM    7  C12 UNL     1      22.813  -0.520  53.015  1.00  0.00    -0.013 C 
HETATM    8  C16 UNL     1      24.235  -0.161  53.008  1.00  0.00    -0.001 A 
HETATM    9  C17 UNL     1      25.413  -0.709  53.476  1.00  0.00     0.016 A 
HETATM   10  C18 UNL     1      26.169   0.420  52.948  1.00  0.00     0.031 A 
HETATM   11  C19 UNL     1      25.013   0.953  52.490  1.00  0.00     0.040 A 
HETATM   12  N3  UNL     1      24.916   2.217  51.743  1.00  0.00    -0.367 N 
HETATM   13  C20 UNL     1      23.763   2.199  50.913  1.00  0.00     0.297 C 
HETATM   14  O2  UNL     1      23.497   3.105  49.914  1.00  0.00    -0.336 OA
HETATM   15  H25 UNL     1      25.502   3.036  51.742  1.00  0.00     0.161 HD
ENDROOT
BRANCH   4  16
HETATM   16  C7  UNL     1      19.652   1.634  50.188  1.00  0.00     0.038 C 
HETATM   17  C8  UNL     1      18.520   1.003  49.943  1.00  0.00    -0.004 C 
BRANCH  17  18
HETATM   18  C9  UNL     1      17.137   1.523  49.879  1.00  0.00     0.149 C 
BRANCH  18  19
HETATM   19  N1  UNL     1      16.584   1.252  48.551  1.00  0.00    -0.365 N 
HETATM   20  H13 UNL     1      16.970   1.362  47.604  1.00  0.00     0.162 HD
BRANCH  19  21
HETATM   21  C10 UNL     1      15.255   0.739  48.699  1.00  0.00     0.348 C 
HETATM   22  O1  UNL     1      15.095  -0.111  49.607  1.00  0.00    -0.284 OA
ENDBRANCH  19  21
ENDBRANCH  18  19
ENDBRANCH  17  18
ENDBRANCH   4  16
BRANCH   1  23
HETATM   23  C2  UNL     1      22.676   4.853  47.711  1.00  0.00     0.025 C 
HETATM   24  C1  UNL     1      21.771   5.859  48.368  1.00  0.00     0.009 C 
ENDBRANCH   1  23
BRANCH   7  25
HETATM   25  C13 UNL     1      22.311  -1.414  54.086  1.00  0.00     0.014 C 
HETATM   26  C14 UNL     1      22.905  -1.186  55.441  1.00  0.00     0.015 C 
HETATM   27  C15 UNL     1      20.812  -1.417  54.193  1.00  0.00     0.015 C 
ENDBRANCH   7  25
TORSDOF 6
ENDMDL
