MODEL 1
REMARK VINA RESULT:      -7.7      0.000      0.000
REMARK  1 active torsions:
REMARK  status: ('A' for Active; 'I' for Inactive)
REMARK    1  A    between atoms: C6_6  and  N1_7 
ROOT
HETATM    1  N1  UNL     1      24.355   4.489  50.718  1.00  0.00    -0.262 N 
HETATM    2  C7  UNL     1      23.287   4.047  49.865  1.00  0.00     0.229 C 
HETATM    3  N2  UNL     1      22.599   2.979  49.651  1.00  0.00    -0.236 NA
HETATM    4  C8  UNL     1      22.603   1.675  50.212  1.00  0.00     0.229 C 
HETATM    5  N3  UNL     1      23.040   1.150  51.298  1.00  0.00    -0.264 NA
HETATM    6  C9  UNL     1      23.729   1.556  52.488  1.00  0.00     0.191 C 
HETATM    7  C10 UNL     1      24.206   0.282  53.137  1.00  0.00     0.024 C 
HETATM    8  C11 UNL     1      25.272  -0.041  53.812  1.00  0.00    -0.007 C 
HETATM    9  C12 UNL     1      26.121   0.874  54.109  1.00  0.00     0.031 C 
HETATM   10 CL1  UNL     1      27.460   0.040  54.875  1.00  0.00    -0.087 Cl
HETATM   11  C13 UNL     1      25.969   2.322  53.845  1.00  0.00     0.124 C 
HETATM   12  S1  UNL     1      25.107   2.549  52.256  1.00  0.00    -0.152 SA
HETATM   13  C14 UNL     1      26.168   2.043  50.843  1.00  0.00     0.088 C 
HETATM   14  N4  UNL     1      24.494   4.168  52.064  1.00  0.00    -0.188 NA
HETATM   15  H16 UNL     1      24.967   4.842  52.656  1.00  0.00     0.159 HD
ENDROOT
BRANCH   1  16
HETATM   16  C6  UNL     1      25.319   5.311  50.080  1.00  0.00     0.053 A 
HETATM   17  C5  UNL     1      26.249   4.859  49.173  1.00  0.00     0.031 A 
HETATM   18  C4  UNL     1      27.185   5.649  48.540  1.00  0.00     0.003 A 
HETATM   19  C3  UNL     1      27.214   6.995  48.816  1.00  0.00     0.007 A 
HETATM   20  C2  UNL     1      26.289   7.484  49.727  1.00  0.00    -0.060 A 
HETATM   21  C1  UNL     1      26.367   8.937  49.985  1.00  0.00     0.048 C 
HETATM   22  C15 UNL     1      25.371   6.659  50.337  1.00  0.00     0.038 A 
ENDBRANCH   1  16
TORSDOF 1
ENDMDL
MODEL 2
REMARK VINA RESULT:      -7.7      2.346      3.805
REMARK  1 active torsions:
REMARK  status: ('A' for Active; 'I' for Inactive)
REMARK    1  A    between atoms: C6_6  and  N1_7 
ROOT
HETATM    1  N1  UNL     1      24.109   2.532  52.468  1.00  0.00    -0.262 N 
HETATM    2  C7  UNL     1      23.036   1.647  52.826  1.00  0.00     0.229 C 
HETATM    3  N2  UNL     1      22.874   0.504  53.399  1.00  0.00    -0.236 NA
HETATM    4  C8  UNL     1      23.760  -0.448  53.968  1.00  0.00     0.229 C 
HETATM    5  N3  UNL     1      24.968  -0.425  54.402  1.00  0.00    -0.264 NA
HETATM    6  C9  UNL     1      26.040   0.515  54.549  1.00  0.00     0.191 C 
HETATM    7  C10 UNL     1      27.273  -0.312  54.807  1.00  0.00     0.024 C 
HETATM    8  C11 UNL     1      28.526  -0.192  54.471  1.00  0.00    -0.007 C 
HETATM    9  C12 UNL     1      28.905   0.866  53.853  1.00  0.00     0.031 C 
HETATM   10 CL1  UNL     1      30.590   0.597  53.453  1.00  0.00    -0.087 Cl
HETATM   11  C13 UNL     1      28.067   2.050  53.558  1.00  0.00     0.124 C 
HETATM   12  S1  UNL     1      26.370   1.498  53.185  1.00  0.00    -0.152 SA
HETATM   13  C14 UNL     1      26.297   0.604  51.580  1.00  0.00     0.088 C 
HETATM   14  N4  UNL     1      25.222   2.805  53.256  1.00  0.00    -0.188 NA
HETATM   15  H16 UNL     1      25.654   3.716  53.150  1.00  0.00     0.159 HD
ENDROOT
BRANCH   1  16
HETATM   16  C6  UNL     1      23.973   3.141  51.194  1.00  0.00     0.053 A 
HETATM   17  C5  UNL     1      24.463   4.385  50.872  1.00  0.00     0.031 A 
HETATM   18  C4  UNL     1      24.345   4.985  49.636  1.00  0.00     0.003 A 
HETATM   19  C3  UNL     1      23.694   4.311  48.630  1.00  0.00     0.007 A 
HETATM   20  C2  UNL     1      23.188   3.053  48.923  1.00  0.00    -0.060 A 
HETATM   21  C1  UNL     1      22.498   2.376  47.804  1.00  0.00     0.048 C 
HETATM   22  C15 UNL     1      23.328   2.492  50.171  1.00  0.00     0.038 A 
ENDBRANCH   1  16
TORSDOF 1
ENDMDL
MODEL 3
REMARK VINA RESULT:      -7.7      3.397      5.931
REMARK  1 active torsions:
REMARK  status: ('A' for Active; 'I' for Inactive)
REMARK    1  A    between atoms: C6_6  and  N1_7 
ROOT
HETATM    1  N1  UNL     1      25.402   0.745  52.367  1.00  0.00    -0.262 N 
HETATM    2  C7  UNL     1      24.631  -0.230  53.089  1.00  0.00     0.229 C 
HETATM    3  N2  UNL     1      23.434  -0.372  53.544  1.00  0.00    -0.236 NA
HETATM    4  C8  UNL     1      22.269   0.438  53.525  1.00  0.00     0.229 C 
HETATM    5  N3  UNL     1      21.861   1.434  52.825  1.00  0.00    -0.264 NA
HETATM    6  C9  UNL     1      22.322   2.243  51.735  1.00  0.00     0.191 C 
HETATM    7  C10 UNL     1      21.425   3.454  51.720  1.00  0.00     0.024 C 
HETATM    8  C11 UNL     1      21.615   4.713  51.445  1.00  0.00    -0.007 C 
HETATM    9  C12 UNL     1      22.760   5.087  51.004  1.00  0.00     0.031 C 
HETATM   10 CL1  UNL     1      22.670   6.835  50.892  1.00  0.00    -0.087 Cl
HETATM   11  C13 UNL     1      23.897   4.200  50.671  1.00  0.00     0.124 C 
HETATM   12  S1  UNL     1      23.934   2.813  51.851  1.00  0.00    -0.152 SA
HETATM   13  C14 UNL     1      24.411   3.380  53.534  1.00  0.00     0.088 C 
HETATM   14  N4  UNL     1      24.938   1.503  51.296  1.00  0.00    -0.188 NA
HETATM   15  H16 UNL     1      25.619   1.793  50.604  1.00  0.00     0.159 HD
ENDROOT
BRANCH   1  16
HETATM   16  C6  UNL     1      26.732   0.909  52.831  1.00  0.00     0.053 A 
HETATM   17  C5  UNL     1      27.310   2.123  53.121  1.00  0.00     0.031 A 
HETATM   18  C4  UNL     1      28.598   2.295  53.582  1.00  0.00     0.003 A 
HETATM   19  C3  UNL     1      29.388   1.187  53.775  1.00  0.00     0.007 A 
HETATM   20  C2  UNL     1      28.835  -0.053  53.492  1.00  0.00    -0.060 A 
HETATM   21  C1  UNL     1      29.730  -1.208  53.718  1.00  0.00     0.048 C 
HETATM   22  C15 UNL     1      27.543  -0.180  53.034  1.00  0.00     0.038 A 
ENDBRANCH   1  16
TORSDOF 1
ENDMDL
MODEL 4
REMARK VINA RESULT:      -7.7      2.269      2.983
REMARK  1 active torsions:
REMARK  status: ('A' for Active; 'I' for Inactive)
REMARK    1  A    between atoms: C6_6  and  N1_7 
ROOT
HETATM    1  N1  UNL     1      24.026   5.215  50.949  1.00  0.00    -0.262 N 
HETATM    2  C7  UNL     1      23.009   6.103  50.459  1.00  0.00     0.229 C 
HETATM    3  N2  UNL     1      21.727   6.132  50.335  1.00  0.00    -0.236 NA
HETATM    4  C8  UNL     1      20.685   5.223  50.656  1.00  0.00     0.229 C 
HETATM    5  N3  UNL     1      20.566   4.209  51.434  1.00  0.00    -0.264 NA
HETATM    6  C9  UNL     1      21.367   3.464  52.361  1.00  0.00     0.191 C 
HETATM    7  C10 UNL     1      20.617   2.180  52.606  1.00  0.00     0.024 C 
HETATM    8  C11 UNL     1      20.985   0.948  52.816  1.00  0.00    -0.007 C 
HETATM    9  C12 UNL     1      22.234   0.684  52.939  1.00  0.00     0.031 C 
HETATM   10 CL1  UNL     1      22.335  -1.062  53.063  1.00  0.00    -0.087 Cl
HETATM   11  C13 UNL     1      23.335   1.673  52.966  1.00  0.00     0.124 C 
HETATM   12  S1  UNL     1      22.937   3.036  51.823  1.00  0.00    -0.152 SA
HETATM   13  C14 UNL     1      23.005   2.480  50.072  1.00  0.00     0.088 C 
HETATM   14  N4  UNL     1      23.929   4.440  52.100  1.00  0.00    -0.188 NA
HETATM   15  H16 UNL     1      24.791   4.223  52.588  1.00  0.00     0.159 HD
ENDROOT
BRANCH   1  16
HETATM   16  C6  UNL     1      25.197   5.158  50.151  1.00  0.00     0.053 A 
HETATM   17  C5  UNL     1      26.002   4.051  50.029  1.00  0.00     0.031 A 
HETATM   18  C4  UNL     1      27.138   3.981  49.249  1.00  0.00     0.003 A 
HETATM   19  C3  UNL     1      27.518   5.088  48.528  1.00  0.00     0.007 A 
HETATM   20  C2  UNL     1      26.727   6.222  48.630  1.00  0.00    -0.060 A 
HETATM   21  C1  UNL     1      27.183   7.382  47.834  1.00  0.00     0.048 C 
HETATM   22  C15 UNL     1      25.601   6.249  49.420  1.00  0.00     0.038 A 
ENDBRANCH   1  16
TORSDOF 1
ENDMDL
MODEL 5
REMARK VINA RESULT:      -7.6      3.142      6.729
REMARK  1 active torsions:
REMARK  status: ('A' for Active; 'I' for Inactive)
REMARK    1  A    between atoms: C6_6  and  N1_7 
ROOT
HETATM    1  N1  UNL     1      24.922   2.715  52.302  1.00  0.00    -0.262 N 
HETATM    2  C7  UNL     1      26.202   2.438  51.712  1.00  0.00     0.229 C 
HETATM    3  N2  UNL     1      26.907   2.824  50.705  1.00  0.00    -0.236 NA
HETATM    4  C8  UNL     1      26.705   3.766  49.663  1.00  0.00     0.229 C 
HETATM    5  N3  UNL     1      25.935   4.776  49.483  1.00  0.00    -0.264 NA
HETATM    6  C9  UNL     1      24.904   5.482  50.186  1.00  0.00     0.191 C 
HETATM    7  C10 UNL     1      24.227   6.347  49.155  1.00  0.00     0.024 C 
HETATM    8  C11 UNL     1      22.996   6.730  48.968  1.00  0.00    -0.007 C 
HETATM    9  C12 UNL     1      22.109   6.421  49.841  1.00  0.00     0.031 C 
HETATM   10 CL1  UNL     1      20.584   6.975  49.177  1.00  0.00    -0.087 Cl
HETATM   11  C13 UNL     1      22.357   5.738  51.131  1.00  0.00     0.124 C 
HETATM   12  S1  UNL     1      23.688   4.514  50.908  1.00  0.00    -0.152 SA
HETATM   13  C14 UNL     1      23.132   3.105  49.866  1.00  0.00     0.088 C 
HETATM   14  N4  UNL     1      24.351   3.979  52.427  1.00  0.00    -0.188 NA
HETATM   15  H16 UNL     1      23.722   4.129  53.207  1.00  0.00     0.159 HD
ENDROOT
BRANCH   1  16
HETATM   16  C6  UNL     1      24.225   1.572  52.771  1.00  0.00     0.053 A 
HETATM   17  C5  UNL     1      24.808   0.350  53.008  1.00  0.00     0.031 A 
HETATM   18  C4  UNL     1      24.144  -0.766  53.472  1.00  0.00     0.003 A 
HETATM   19  C3  UNL     1      22.796  -0.679  53.726  1.00  0.00     0.007 A 
HETATM   20  C2  UNL     1      22.177   0.540  53.496  1.00  0.00    -0.060 A 
HETATM   21  C1  UNL     1      20.728   0.576  53.786  1.00  0.00     0.048 C 
HETATM   22  C15 UNL     1      22.879   1.630  53.032  1.00  0.00     0.038 A 
ENDBRANCH   1  16
TORSDOF 1
ENDMDL
MODEL 6
REMARK VINA RESULT:      -7.5      2.986      6.712
REMARK  1 active torsions:
REMARK  status: ('A' for Active; 'I' for Inactive)
REMARK    1  A    between atoms: C6_6  and  N1_7 
ROOT
HETATM    1  N1  UNL     1      21.521   1.365  51.889  1.00  0.00    -0.262 N 
HETATM    2  C7  UNL     1      20.239   1.932  52.206  1.00  0.00     0.229 C 
HETATM    3  N2  UNL     1      19.609   3.045  52.052  1.00  0.00    -0.236 NA
HETATM    4  C8  UNL     1      19.938   4.290  51.455  1.00  0.00     0.229 C 
HETATM    5  N3  UNL     1      20.811   4.692  50.605  1.00  0.00    -0.264 NA
HETATM    6  C9  UNL     1      21.884   4.147  49.825  1.00  0.00     0.191 C 
HETATM    7  C10 UNL     1      22.677   5.332  49.340  1.00  0.00     0.024 C 
HETATM    8  C11 UNL     1      23.946   5.543  49.132  1.00  0.00    -0.007 C 
HETATM    9  C12 UNL     1      24.768   4.568  49.264  1.00  0.00     0.031 C 
HETATM   10 CL1  UNL     1      26.362   5.267  49.050  1.00  0.00    -0.087 Cl
HETATM   11  C13 UNL     1      24.411   3.159  49.541  1.00  0.00     0.124 C 
HETATM   12  S1  UNL     1      22.972   3.119  50.659  1.00  0.00    -0.152 SA
HETATM   13  C14 UNL     1      23.419   3.706  52.343  1.00  0.00     0.088 C 
HETATM   14  N4  UNL     1      22.210   1.554  50.695  1.00  0.00    -0.188 NA
HETATM   15  H16 UNL     1      22.825   0.808  50.391  1.00  0.00     0.159 HD
ENDROOT
BRANCH   1  16
HETATM   16  C6  UNL     1      22.084   0.564  52.915  1.00  0.00     0.053 A 
HETATM   17  C5  UNL     1      21.366   0.000  53.944  1.00  0.00     0.031 A 
HETATM   18  C4  UNL     1      21.900  -0.787  54.941  1.00  0.00     0.003 A 
HETATM   19  C3  UNL     1      23.250  -1.047  54.932  1.00  0.00     0.007 A 
HETATM   20  C2  UNL     1      24.003  -0.493  53.908  1.00  0.00    -0.060 A 
HETATM   21  C1  UNL     1      25.447  -0.805  53.948  1.00  0.00     0.048 C 
HETATM   22  C15 UNL     1      23.429   0.288  52.931  1.00  0.00     0.038 A 
ENDBRANCH   1  16
TORSDOF 1
ENDMDL
MODEL 7
REMARK VINA RESULT:      -7.5      3.043      6.243
REMARK  1 active torsions:
REMARK  status: ('A' for Active; 'I' for Inactive)
REMARK    1  A    between atoms: C6_6  and  N1_7 
ROOT
HETATM    1  N1  UNL     1      25.427   2.784  51.887  1.00  0.00    -0.262 N 
HETATM    2  C7  UNL     1      26.316   3.249  50.859  1.00  0.00     0.229 C 
HETATM    3  N2  UNL     1      26.263   3.944  49.775  1.00  0.00    -0.236 NA
HETATM    4  C8  UNL     1      25.218   4.601  49.076  1.00  0.00     0.229 C 
HETATM    5  N3  UNL     1      24.040   5.016  49.374  1.00  0.00    -0.264 NA
HETATM    6  C9  UNL     1      23.167   5.048  50.511  1.00  0.00     0.191 C 
HETATM    7  C10 UNL     1      21.802   5.380  49.965  1.00  0.00     0.024 C 
HETATM    8  C11 UNL     1      20.592   5.017  50.283  1.00  0.00    -0.007 C 
HETATM    9  C12 UNL     1      20.414   4.285  51.321  1.00  0.00     0.031 C 
HETATM   10 CL1  UNL     1      18.705   3.895  51.334  1.00  0.00    -0.087 Cl
HETATM   11  C13 UNL     1      21.460   3.873  52.285  1.00  0.00     0.124 C 
HETATM   12  S1  UNL     1      23.017   3.582  51.385  1.00  0.00    -0.152 SA
HETATM   13  C14 UNL     1      22.906   2.084  50.325  1.00  0.00     0.088 C 
HETATM   14  N4  UNL     1      24.393   3.525  52.451  1.00  0.00    -0.188 NA
HETATM   15  H16 UNL     1      24.141   3.316  53.410  1.00  0.00     0.159 HD
ENDROOT
BRANCH   1  16
HETATM   16  C6  UNL     1      25.665   1.454  52.319  1.00  0.00     0.053 A 
HETATM   17  C5  UNL     1      26.621   0.623  51.785  1.00  0.00     0.031 A 
HETATM   18  C4  UNL     1      26.867  -0.668  52.202  1.00  0.00     0.003 A 
HETATM   19  C3  UNL     1      26.116  -1.190  53.227  1.00  0.00     0.007 A 
HETATM   20  C2  UNL     1      25.142  -0.377  53.788  1.00  0.00    -0.060 A 
HETATM   21  C1  UNL     1      24.365  -0.990  54.886  1.00  0.00     0.048 C 
HETATM   22  C15 UNL     1      24.929   0.907  53.341  1.00  0.00     0.038 A 
ENDBRANCH   1  16
TORSDOF 1
ENDMDL
MODEL 8
REMARK VINA RESULT:      -7.4      1.717      2.160
REMARK  1 active torsions:
REMARK  status: ('A' for Active; 'I' for Inactive)
REMARK    1  A    between atoms: C6_6  and  N1_7 
ROOT
HETATM    1  N1  UNL     1      23.710   5.412  51.136  1.00  0.00    -0.262 N 
HETATM    2  C7  UNL     1      22.288   5.616  51.102  1.00  0.00     0.229 C 
HETATM    3  N2  UNL     1      21.209   4.950  51.331  1.00  0.00    -0.236 NA
HETATM    4  C8  UNL     1      20.941   3.621  51.748  1.00  0.00     0.229 C 
HETATM    5  N3  UNL     1      21.610   2.695  52.334  1.00  0.00    -0.264 NA
HETATM    6  C9  UNL     1      22.927   2.492  52.865  1.00  0.00     0.191 C 
HETATM    7  C10 UNL     1      23.058   1.004  53.065  1.00  0.00     0.024 C 
HETATM    8  C11 UNL     1      24.046   0.163  52.945  1.00  0.00    -0.007 C 
HETATM    9  C12 UNL     1      25.218   0.613  52.682  1.00  0.00     0.031 C 
HETATM   10 CL1  UNL     1      26.225  -0.805  52.459  1.00  0.00    -0.087 Cl
HETATM   11  C13 UNL     1      25.603   2.039  52.593  1.00  0.00     0.124 C 
HETATM   12  S1  UNL     1      24.226   2.982  51.861  1.00  0.00    -0.152 SA
HETATM   13  C14 UNL     1      24.001   2.566  50.085  1.00  0.00     0.088 C 
HETATM   14  N4  UNL     1      24.395   4.697  52.113  1.00  0.00    -0.188 NA
HETATM   15  H16 UNL     1      25.350   4.975  52.307  1.00  0.00     0.159 HD
ENDROOT
BRANCH   1  16
HETATM   16  C6  UNL     1      24.418   6.003  50.059  1.00  0.00     0.053 A 
HETATM   17  C5  UNL     1      23.909   6.978  49.234  1.00  0.00     0.031 A 
HETATM   18  C4  UNL     1      24.590   7.566  48.190  1.00  0.00     0.003 A 
HETATM   19  C3  UNL     1      25.880   7.167  47.931  1.00  0.00     0.007 A 
HETATM   20  C2  UNL     1      26.424   6.185  48.744  1.00  0.00    -0.060 A 
HETATM   21  C1  UNL     1      27.813   5.795  48.419  1.00  0.00     0.048 C 
HETATM   22  C15 UNL     1      25.708   5.624  49.777  1.00  0.00     0.038 A 
ENDBRANCH   1  16
TORSDOF 1
ENDMDL
MODEL 9
REMARK VINA RESULT:      -7.3      2.862      4.131
REMARK  1 active torsions:
REMARK  status: ('A' for Active; 'I' for Inactive)
REMARK    1  A    between atoms: C6_6  and  N1_7 
ROOT
HETATM    1  N1  UNL     1      25.351   3.104  50.070  1.00  0.00    -0.262 N 
HETATM    2  C7  UNL     1      26.230   2.523  51.046  1.00  0.00     0.229 C 
HETATM    3  N2  UNL     1      26.155   1.974  52.210  1.00  0.00    -0.236 NA
HETATM    4  C8  UNL     1      25.086   1.686  53.097  1.00  0.00     0.229 C 
HETATM    5  N3  UNL     1      23.813   1.569  52.985  1.00  0.00    -0.264 NA
HETATM    6  C9  UNL     1      22.810   1.659  51.964  1.00  0.00     0.191 C 
HETATM    7  C10 UNL     1      21.495   1.753  52.693  1.00  0.00     0.024 C 
HETATM    8  C11 UNL     1      20.381   2.389  52.464  1.00  0.00    -0.007 C 
HETATM    9  C12 UNL     1      20.251   3.039  51.366  1.00  0.00     0.031 C 
HETATM   10 CL1  UNL     1      18.707   3.862  51.489  1.00  0.00    -0.087 Cl
HETATM   11  C13 UNL     1      21.222   3.066  50.249  1.00  0.00     0.124 C 
HETATM   12  S1  UNL     1      22.911   3.022  50.930  1.00  0.00    -0.152 SA
HETATM   13  C14 UNL     1      23.324   4.591  51.794  1.00  0.00     0.088 C 
HETATM   14  N4  UNL     1      24.097   2.611  49.722  1.00  0.00    -0.188 NA
HETATM   15  H16 UNL     1      23.775   2.786  48.777  1.00  0.00     0.159 HD
ENDROOT
BRANCH   1  16
HETATM   16  C6  UNL     1      25.850   4.277  49.447  1.00  0.00     0.053 A 
HETATM   17  C5  UNL     1      25.086   5.375  49.130  1.00  0.00     0.031 A 
HETATM   18  C4  UNL     1      25.561   6.523  48.533  1.00  0.00     0.003 A 
HETATM   19  C3  UNL     1      26.898   6.606  48.221  1.00  0.00     0.007 A 
HETATM   20  C2  UNL     1      27.697   5.515  48.529  1.00  0.00    -0.060 A 
HETATM   21  C1  UNL     1      29.124   5.659  48.171  1.00  0.00     0.048 C 
HETATM   22  C15 UNL     1      27.180   4.387  49.125  1.00  0.00     0.038 A 
ENDBRANCH   1  16
TORSDOF 1
ENDMDL
