MODEL 1
REMARK VINA RESULT:      -9.4      0.000      0.000
REMARK  2 active torsions:
REMARK  status: ('A' for Active; 'I' for Inactive)
REMARK    1  A    between atoms: O1_1  and  C1_2 
REMARK    2  A    between atoms: C6_8  and  N2_9 
ROOT
HETATM    1  C1  UNL     1      26.632  -0.147  54.563  1.00  0.00     0.094 C 
HETATM    2  C2  UNL     1      27.693   0.688  54.781  1.00  0.00     0.039 C 
HETATM    3  C3  UNL     1      28.175   1.771  53.901  1.00  0.00     0.005 C 
HETATM    4  C4  UNL     1      27.677   2.129  52.677  1.00  0.00     0.032 C 
HETATM    5  C5  UNL     1      26.768   1.181  51.919  1.00  0.00     0.061 C 
HETATM    6  N1  UNL     1      25.938   2.035  51.288  1.00  0.00    -0.229 NA
HETATM    7  C6  UNL     1      24.451   2.044  51.392  1.00  0.00     0.163 C 
HETATM    8  C11 UNL     1      23.524   1.266  52.019  1.00  0.00     0.153 A 
HETATM    9  O3  UNL     1      22.271   1.494  51.846  1.00  0.00    -0.285 OA
HETATM   10  C12 UNL     1      21.564   0.625  52.548  1.00  0.00     0.182 A 
HETATM   11  N3  UNL     1      20.225   0.453  52.695  1.00  0.00    -0.236 NA
HETATM   12  C13 UNL     1      19.742  -0.541  53.493  1.00  0.00     0.119 A 
HETATM   13  C14 UNL     1      20.557  -1.414  54.185  1.00  0.00     0.020 A 
HETATM   14  C15 UNL     1      21.925  -1.277  54.063  1.00  0.00     0.020 A 
HETATM   15  C16 UNL     1      22.388  -0.265  53.251  1.00  0.00     0.049 A 
HETATM   16  C17 UNL     1      23.644   0.154  52.906  1.00  0.00     0.110 A 
HETATM   17  N4  UNL     1      24.659  -0.557  53.458  1.00  0.00    -0.242 NA
HETATM   18  C18 UNL     1      26.103  -0.376  53.165  1.00  0.00     0.092 C 
HETATM   19  C19 UNL     1      26.788  -0.352  51.953  1.00  0.00     0.066 C 
ENDROOT
BRANCH   7  20
HETATM   20  N2  UNL     1      23.889   3.097  50.690  1.00  0.00    -0.359 N 
HETATM   21  C7  UNL     1      23.441   3.161  49.326  1.00  0.00     0.151 C 
HETATM   22  C8  UNL     1      22.563   4.353  49.093  1.00  0.00     0.187 C 
HETATM   23  O2  UNL     1      23.152   5.563  49.441  1.00  0.00    -0.388 OA
HETATM   24  C9  UNL     1      24.096   5.443  50.437  1.00  0.00     0.187 C 
HETATM   25  C10 UNL     1      23.716   4.343  51.435  1.00  0.00     0.151 C 
ENDBRANCH   7  20
BRANCH   1  26
HETATM   26  O1  UNL     1      25.920  -0.861  55.500  1.00  0.00    -0.358 OA
HETATM   27  H1  UNL     1      25.735  -0.490  56.422  1.00  0.00     0.217 HD
ENDBRANCH   1  26
TORSDOF 2
ENDMDL
MODEL 2
REMARK VINA RESULT:      -8.6      1.552      5.157
REMARK  2 active torsions:
REMARK  status: ('A' for Active; 'I' for Inactive)
REMARK    1  A    between atoms: O1_1  and  C1_2 
REMARK    2  A    between atoms: C6_8  and  N2_9 
ROOT
HETATM    1  C1  UNL     1      21.935   3.575  49.824  1.00  0.00     0.094 C 
HETATM    2  C2  UNL     1      22.760   4.008  48.823  1.00  0.00     0.039 C 
HETATM    3  C3  UNL     1      24.228   4.156  48.873  1.00  0.00     0.005 C 
HETATM    4  C4  UNL     1      25.049   3.925  49.944  1.00  0.00     0.032 C 
HETATM    5  C5  UNL     1      24.467   3.828  51.341  1.00  0.00     0.061 C 
HETATM    6  N1  UNL     1      25.276   2.916  51.916  1.00  0.00    -0.229 NA
HETATM    7  C6  UNL     1      24.840   1.640  52.551  1.00  0.00     0.163 C 
HETATM    8  C11 UNL     1      23.637   1.049  52.801  1.00  0.00     0.153 A 
HETATM    9  O3  UNL     1      23.587  -0.055  53.456  1.00  0.00    -0.285 OA
HETATM   10  C12 UNL     1      22.327  -0.441  53.575  1.00  0.00     0.182 A 
HETATM   11  N3  UNL     1      21.762  -1.521  54.172  1.00  0.00    -0.236 NA
HETATM   12  C13 UNL     1      20.409  -1.689  54.153  1.00  0.00     0.119 A 
HETATM   13  C14 UNL     1      19.549  -0.798  53.544  1.00  0.00     0.020 A 
HETATM   14  C15 UNL     1      20.081   0.315  52.926  1.00  0.00     0.020 A 
HETATM   15  C16 UNL     1      21.449   0.462  52.958  1.00  0.00     0.049 A 
HETATM   16  C17 UNL     1      22.298   1.415  52.464  1.00  0.00     0.110 A 
HETATM   17  N4  UNL     1      21.695   2.436  51.807  1.00  0.00    -0.242 NA
HETATM   18  C18 UNL     1      22.374   3.643  51.270  1.00  0.00     0.092 C 
HETATM   19  C19 UNL     1      23.231   4.553  51.886  1.00  0.00     0.066 C 
ENDROOT
BRANCH   7  20
HETATM   20  N2  UNL     1      25.915   0.879  52.978  1.00  0.00    -0.359 N 
HETATM   21  C7  UNL     1      26.490  -0.308  52.407  1.00  0.00     0.151 C 
HETATM   22  C8  UNL     1      27.853  -0.580  52.967  1.00  0.00     0.187 C 
HETATM   23  O2  UNL     1      27.885  -0.675  54.352  1.00  0.00    -0.388 OA
HETATM   24  C9  UNL     1      26.895   0.056  54.971  1.00  0.00     0.187 C 
HETATM   25  C10 UNL     1      26.581   1.341  54.195  1.00  0.00     0.151 C 
ENDBRANCH   7  20
BRANCH   1  26
HETATM   26  O1  UNL     1      20.671   3.045  49.701  1.00  0.00    -0.358 OA
HETATM   27  H1  UNL     1      20.073   2.907  50.506  1.00  0.00     0.217 HD
ENDBRANCH   1  26
TORSDOF 2
ENDMDL
MODEL 3
REMARK VINA RESULT:      -8.6      1.884      6.406
REMARK  2 active torsions:
REMARK  status: ('A' for Active; 'I' for Inactive)
REMARK    1  A    between atoms: O1_1  and  C1_2 
REMARK    2  A    between atoms: C6_8  and  N2_9 
ROOT
HETATM    1  C1  UNL     1      20.927   1.631  52.554  1.00  0.00     0.094 C 
HETATM    2  C2  UNL     1      20.408   1.229  53.755  1.00  0.00     0.039 C 
HETATM    3  C3  UNL     1      20.973   0.233  54.686  1.00  0.00     0.005 C 
HETATM    4  C4  UNL     1      22.109  -0.513  54.513  1.00  0.00     0.032 C 
HETATM    5  C5  UNL     1      22.729  -0.647  53.136  1.00  0.00     0.061 C 
HETATM    6  N1  UNL     1      24.044  -0.713  53.428  1.00  0.00    -0.229 NA
HETATM    7  C6  UNL     1      25.102   0.194  52.899  1.00  0.00     0.163 C 
HETATM    8  C11 UNL     1      25.131   1.226  52.009  1.00  0.00     0.153 A 
HETATM    9  O3  UNL     1      26.250   1.774  51.697  1.00  0.00    -0.285 OA
HETATM   10  C12 UNL     1      26.037   2.747  50.827  1.00  0.00     0.182 A 
HETATM   11  N3  UNL     1      26.882   3.607  50.204  1.00  0.00    -0.236 NA
HETATM   12  C13 UNL     1      26.399   4.537  49.332  1.00  0.00     0.119 A 
HETATM   13  C14 UNL     1      25.057   4.663  49.033  1.00  0.00     0.020 A 
HETATM   14  C15 UNL     1      24.162   3.807  49.643  1.00  0.00     0.020 A 
HETATM   15  C16 UNL     1      24.675   2.877  50.519  1.00  0.00     0.049 A 
HETATM   16  C17 UNL     1      24.102   1.897  51.282  1.00  0.00     0.110 A 
HETATM   17  N4  UNL     1      22.753   1.796  51.169  1.00  0.00    -0.242 NA
HETATM   18  C18 UNL     1      21.906   0.756  51.804  1.00  0.00     0.092 C 
HETATM   19  C19 UNL     1      22.005  -0.634  51.785  1.00  0.00     0.066 C 
ENDROOT
BRANCH   7  20
HETATM   20  N2  UNL     1      26.342  -0.079  53.452  1.00  0.00    -0.359 N 
HETATM   21  C7  UNL     1      27.182   0.740  54.282  1.00  0.00     0.151 C 
HETATM   22  C8  UNL     1      28.244  -0.074  54.957  1.00  0.00     0.187 C 
HETATM   23  O2  UNL     1      29.036  -0.806  54.082  1.00  0.00    -0.388 OA
HETATM   24  C9  UNL     1      28.389  -1.143  52.913  1.00  0.00     0.187 C 
HETATM   25  C10 UNL     1      26.896  -1.399  53.157  1.00  0.00     0.151 C 
ENDBRANCH   7  20
BRANCH   1  26
HETATM   26  O1  UNL     1      20.672   2.803  51.880  1.00  0.00    -0.358 OA
HETATM   27  H1  UNL     1      21.420   3.404  51.560  1.00  0.00     0.217 HD
ENDBRANCH   1  26
TORSDOF 2
ENDMDL
MODEL 4
REMARK VINA RESULT:      -8.3      1.627      6.141
REMARK  2 active torsions:
REMARK  status: ('A' for Active; 'I' for Inactive)
REMARK    1  A    between atoms: O1_1  and  C1_2 
REMARK    2  A    between atoms: C6_8  and  N2_9 
ROOT
HETATM    1  C1  UNL     1      24.363   4.921  50.353  1.00  0.00     0.094 C 
HETATM    2  C2  UNL     1      23.189   5.610  50.225  1.00  0.00     0.039 C 
HETATM    3  C3  UNL     1      21.820   5.059  50.242  1.00  0.00     0.005 C 
HETATM    4  C4  UNL     1      21.457   3.744  50.354  1.00  0.00     0.032 C 
HETATM    5  C5  UNL     1      22.477   2.649  50.108  1.00  0.00     0.061 C 
HETATM    6  N1  UNL     1      22.082   1.699  50.978  1.00  0.00    -0.229 NA
HETATM    7  C6  UNL     1      22.924   1.089  52.046  1.00  0.00     0.163 C 
HETATM    8  C11 UNL     1      24.227   1.206  52.432  1.00  0.00     0.153 A 
HETATM    9  O3  UNL     1      24.687   0.462  53.372  1.00  0.00    -0.285 OA
HETATM   10  C12 UNL     1      25.962   0.750  53.577  1.00  0.00     0.182 A 
HETATM   11  N3  UNL     1      26.876   0.248  54.447  1.00  0.00    -0.236 NA
HETATM   12  C13 UNL     1      28.153   0.727  54.456  1.00  0.00     0.119 A 
HETATM   13  C14 UNL     1      28.589   1.724  53.606  1.00  0.00     0.020 A 
HETATM   14  C15 UNL     1      27.692   2.261  52.705  1.00  0.00     0.020 A 
HETATM   15  C16 UNL     1      26.410   1.761  52.716  1.00  0.00     0.049 A 
HETATM   16  C17 UNL     1      25.289   2.048  51.984  1.00  0.00     0.110 A 
HETATM   17  N4  UNL     1      25.447   3.016  51.047  1.00  0.00    -0.242 NA
HETATM   18  C18 UNL     1      24.425   3.439  50.057  1.00  0.00     0.092 C 
HETATM   19  C19 UNL     1      23.675   2.693  49.151  1.00  0.00     0.066 C 
ENDROOT
BRANCH   7  20
HETATM   20  N2  UNL     1      22.206   0.202  52.829  1.00  0.00    -0.359 N 
HETATM   21  C7  UNL     1      22.421  -1.199  53.070  1.00  0.00     0.151 C 
HETATM   22  C8  UNL     1      21.646  -1.675  54.262  1.00  0.00     0.187 C 
HETATM   23  O2  UNL     1      20.281  -1.426  54.182  1.00  0.00    -0.388 OA
HETATM   24  C9  UNL     1      19.971  -0.329  53.409  1.00  0.00     0.187 C 
HETATM   25  C10 UNL     1      21.047   0.758  53.526  1.00  0.00     0.151 C 
ENDBRANCH   7  20
BRANCH   1  26
HETATM   26  O1  UNL     1      25.588   5.412  50.746  1.00  0.00    -0.358 OA
HETATM   27  H1  UNL     1      26.103   6.070  50.175  1.00  0.00     0.217 HD
ENDBRANCH   1  26
TORSDOF 2
ENDMDL
MODEL 5
REMARK VINA RESULT:      -8.2      7.883     10.160
REMARK  2 active torsions:
REMARK  status: ('A' for Active; 'I' for Inactive)
REMARK    1  A    between atoms: O1_1  and  C1_2 
REMARK    2  A    between atoms: C6_8  and  N2_9 
ROOT
HETATM    1  C1  UNL     1      32.981   5.164  48.188  1.00  0.00     0.094 C 
HETATM    2  C2  UNL     1      34.217   5.645  48.522  1.00  0.00     0.039 C 
HETATM    3  C3  UNL     1      34.726   7.017  48.331  1.00  0.00     0.005 C 
HETATM    4  C4  UNL     1      34.073   8.070  47.748  1.00  0.00     0.032 C 
HETATM    5  C5  UNL     1      32.847   7.825  46.891  1.00  0.00     0.061 C 
HETATM    6  N1  UNL     1      32.106   8.922  47.144  1.00  0.00    -0.229 NA
HETATM    7  C6  UNL     1      30.710   8.931  47.666  1.00  0.00     0.163 C 
HETATM    8  C11 UNL     1      29.788   7.974  47.970  1.00  0.00     0.153 A 
HETATM    9  O3  UNL     1      28.605   8.315  48.338  1.00  0.00    -0.285 OA
HETATM   10  C12 UNL     1      27.889   7.230  48.583  1.00  0.00     0.182 A 
HETATM   11  N3  UNL     1      26.605   7.064  48.990  1.00  0.00    -0.236 NA
HETATM   12  C13 UNL     1      26.097   5.812  49.171  1.00  0.00     0.119 A 
HETATM   13  C14 UNL     1      26.832   4.664  48.958  1.00  0.00     0.020 A 
HETATM   14  C15 UNL     1      28.142   4.786  48.541  1.00  0.00     0.020 A 
HETATM   15  C16 UNL     1      28.632   6.061  48.366  1.00  0.00     0.049 A 
HETATM   16  C17 UNL     1      29.848   6.548  47.973  1.00  0.00     0.110 A 
HETATM   17  N4  UNL     1      30.780   5.604  47.689  1.00  0.00    -0.242 NA
HETATM   18  C18 UNL     1      32.137   5.862  47.144  1.00  0.00     0.092 C 
HETATM   19  C19 UNL     1      32.545   6.592  46.030  1.00  0.00     0.066 C 
ENDROOT
BRANCH   7  20
HETATM   20  N2  UNL     1      30.252  10.217  47.900  1.00  0.00    -0.359 N 
HETATM   21  C7  UNL     1      29.529  11.110  47.037  1.00  0.00     0.151 C 
HETATM   22  C8  UNL     1      28.912  12.237  47.808  1.00  0.00     0.187 C 
HETATM   23  O2  UNL     1      29.822  12.966  48.565  1.00  0.00    -0.388 OA
HETATM   24  C9  UNL     1      30.917  12.230  48.958  1.00  0.00     0.187 C 
HETATM   25  C10 UNL     1      30.540  10.767  49.224  1.00  0.00     0.151 C 
ENDBRANCH   7  20
BRANCH   1  26
HETATM   26  O1  UNL     1      32.342   4.059  48.702  1.00  0.00    -0.358 OA
HETATM   27  H1  UNL     1      32.411   3.152  48.259  1.00  0.00     0.217 HD
ENDBRANCH   1  26
TORSDOF 2
ENDMDL
MODEL 6
REMARK VINA RESULT:      -7.7      5.982      8.452
REMARK  2 active torsions:
REMARK  status: ('A' for Active; 'I' for Inactive)
REMARK    1  A    between atoms: O1_1  and  C1_2 
REMARK    2  A    between atoms: C6_8  and  N2_9 
ROOT
HETATM    1  C1  UNL     1      30.978   6.679  49.076  1.00  0.00     0.094 C 
HETATM    2  C2  UNL     1      31.765   7.763  49.356  1.00  0.00     0.039 C 
HETATM    3  C3  UNL     1      31.579   9.150  48.888  1.00  0.00     0.005 C 
HETATM    4  C4  UNL     1      30.601   9.618  48.051  1.00  0.00     0.032 C 
HETATM    5  C5  UNL     1      29.791   8.651  47.210  1.00  0.00     0.061 C 
HETATM    6  N1  UNL     1      28.587   9.255  47.174  1.00  0.00    -0.229 NA
HETATM    7  C6  UNL     1      27.294   8.653  47.609  1.00  0.00     0.163 C 
HETATM    8  C11 UNL     1      26.908   7.431  48.074  1.00  0.00     0.153 A 
HETATM    9  O3  UNL     1      25.666   7.192  48.296  1.00  0.00    -0.285 OA
HETATM   10  C12 UNL     1      25.527   5.954  48.741  1.00  0.00     0.182 A 
HETATM   11  N3  UNL     1      24.434   5.240  49.111  1.00  0.00    -0.236 NA
HETATM   12  C13 UNL     1      24.565   3.954  49.542  1.00  0.00     0.119 A 
HETATM   13  C14 UNL     1      25.782   3.310  49.630  1.00  0.00     0.020 A 
HETATM   14  C15 UNL     1      26.921   3.998  49.262  1.00  0.00     0.020 A 
HETATM   15  C16 UNL     1      26.762   5.296  48.831  1.00  0.00     0.049 A 
HETATM   16  C17 UNL     1      27.642   6.251  48.400  1.00  0.00     0.110 A 
HETATM   17  N4  UNL     1      28.943   5.867  48.382  1.00  0.00    -0.242 NA
HETATM   18  C18 UNL     1      30.077   6.672  47.862  1.00  0.00     0.092 C 
HETATM   19  C19 UNL     1      30.253   7.307  46.634  1.00  0.00     0.066 C 
ENDROOT
BRANCH   7  20
HETATM   20  N2  UNL     1      26.248   9.556  47.525  1.00  0.00    -0.359 N 
HETATM   21  C7  UNL     1      25.281   9.753  46.480  1.00  0.00     0.151 C 
HETATM   22  C8  UNL     1      24.115  10.563  46.959  1.00  0.00     0.187 C 
HETATM   23  O2  UNL     1      24.467  11.795  47.497  1.00  0.00    -0.388 OA
HETATM   24  C9  UNL     1      25.732  11.810  48.041  1.00  0.00     0.187 C 
HETATM   25  C10 UNL     1      26.086  10.455  48.667  1.00  0.00     0.151 C 
ENDBRANCH   7  20
BRANCH   1  26
HETATM   26  O1  UNL     1      30.874   5.509  49.793  1.00  0.00    -0.358 OA
HETATM   27  H1  UNL     1      30.575   5.503  50.759  1.00  0.00     0.217 HD
ENDBRANCH   1  26
TORSDOF 2
ENDMDL
MODEL 7
REMARK VINA RESULT:      -7.5      2.360      5.390
REMARK  2 active torsions:
REMARK  status: ('A' for Active; 'I' for Inactive)
REMARK    1  A    between atoms: O1_1  and  C1_2 
REMARK    2  A    between atoms: C6_8  and  N2_9 
ROOT
HETATM    1  C1  UNL     1      26.486   2.060  51.535  1.00  0.00     0.094 C 
HETATM    2  C2  UNL     1      26.763   0.778  51.922  1.00  0.00     0.039 C 
HETATM    3  C3  UNL     1      25.860  -0.166  52.608  1.00  0.00     0.005 C 
HETATM    4  C4  UNL     1      24.576   0.069  53.025  1.00  0.00     0.032 C 
HETATM    5  C5  UNL     1      24.062   1.491  53.141  1.00  0.00     0.061 C 
HETATM    6  N1  UNL     1      22.765   1.346  52.806  1.00  0.00    -0.229 NA
HETATM    7  C6  UNL     1      22.060   2.069  51.709  1.00  0.00     0.163 C 
HETATM    8  C11 UNL     1      22.405   3.043  50.820  1.00  0.00     0.153 A 
HETATM    9  O3  UNL     1      21.520   3.527  50.024  1.00  0.00    -0.285 OA
HETATM   10  C12 UNL     1      22.076   4.449  49.255  1.00  0.00     0.182 A 
HETATM   11  N3  UNL     1      21.570   5.237  48.273  1.00  0.00    -0.236 NA
HETATM   12  C13 UNL     1      22.372   6.126  47.621  1.00  0.00     0.119 A 
HETATM   13  C14 UNL     1      23.713   6.280  47.907  1.00  0.00     0.020 A 
HETATM   14  C15 UNL     1      24.269   5.500  48.901  1.00  0.00     0.020 A 
HETATM   15  C16 UNL     1      23.439   4.610  49.544  1.00  0.00     0.049 A 
HETATM   16  C17 UNL     1      23.640   3.704  50.549  1.00  0.00     0.110 A 
HETATM   17  N4  UNL     1      24.907   3.653  51.032  1.00  0.00    -0.242 NA
HETATM   18  C18 UNL     1      25.364   2.838  52.185  1.00  0.00     0.092 C 
HETATM   19  C19 UNL     1      24.872   2.747  53.485  1.00  0.00     0.066 C 
ENDROOT
BRANCH   7  20
HETATM   20  N2  UNL     1      20.752   1.639  51.562  1.00  0.00    -0.359 N 
HETATM   21  C7  UNL     1      20.207   0.618  50.710  1.00  0.00     0.151 C 
HETATM   22  C8  UNL     1      18.825   0.227  51.140  1.00  0.00     0.187 C 
HETATM   23  O2  UNL     1      17.934   1.291  51.210  1.00  0.00    -0.388 OA
HETATM   24  C9  UNL     1      18.546   2.497  51.474  1.00  0.00     0.187 C 
HETATM   25  C10 UNL     1      19.760   2.318  52.394  1.00  0.00     0.151 C 
ENDBRANCH   7  20
BRANCH   1  26
HETATM   26  O1  UNL     1      27.122   2.801  50.565  1.00  0.00    -0.358 OA
HETATM   27  H1  UNL     1      27.665   3.623  50.797  1.00  0.00     0.217 HD
ENDBRANCH   1  26
TORSDOF 2
ENDMDL
MODEL 8
REMARK VINA RESULT:      -7.4      2.020      5.078
REMARK  2 active torsions:
REMARK  status: ('A' for Active; 'I' for Inactive)
REMARK    1  A    between atoms: O1_1  and  C1_2 
REMARK    2  A    between atoms: C6_8  and  N2_9 
ROOT
HETATM    1  C1  UNL     1      27.050   1.750  52.248  1.00  0.00     0.094 C 
HETATM    2  C2  UNL     1      27.553   0.494  52.051  1.00  0.00     0.039 C 
HETATM    3  C3  UNL     1      26.951  -0.787  52.469  1.00  0.00     0.005 C 
HETATM    4  C4  UNL     1      25.789  -0.968  53.171  1.00  0.00     0.032 C 
HETATM    5  C5  UNL     1      25.165   0.193  53.920  1.00  0.00     0.061 C 
HETATM    6  N1  UNL     1      23.849  -0.073  53.798  1.00  0.00    -0.229 NA
HETATM    7  C6  UNL     1      22.825   0.841  53.216  1.00  0.00     0.163 C 
HETATM    8  C11 UNL     1      22.834   2.113  52.727  1.00  0.00     0.153 A 
HETATM    9  O3  UNL     1      21.736   2.667  52.357  1.00  0.00    -0.285 OA
HETATM   10  C12 UNL     1      21.984   3.890  51.918  1.00  0.00     0.182 A 
HETATM   11  N3  UNL     1      21.172   4.860  51.428  1.00  0.00    -0.236 NA
HETATM   12  C13 UNL     1      21.689   6.060  51.038  1.00  0.00     0.119 A 
HETATM   13  C14 UNL     1      23.034   6.359  51.112  1.00  0.00     0.020 A 
HETATM   14  C15 UNL     1      23.897   5.401  51.606  1.00  0.00     0.020 A 
HETATM   15  C16 UNL     1      23.350   4.199  51.993  1.00  0.00     0.049 A 
HETATM   16  C17 UNL     1      23.887   3.053  52.514  1.00  0.00     0.110 A 
HETATM   17  N4  UNL     1      25.231   3.081  52.699  1.00  0.00    -0.242 NA
HETATM   18  C18 UNL     1      26.039   2.015  53.342  1.00  0.00     0.092 C 
HETATM   19  C19 UNL     1      25.890   1.377  54.571  1.00  0.00     0.066 C 
ENDROOT
BRANCH   7  20
HETATM   20  N2  UNL     1      21.575   0.246  53.155  1.00  0.00    -0.359 N 
HETATM   21  C7  UNL     1      20.277   0.842  52.992  1.00  0.00     0.151 C 
HETATM   22  C8  UNL     1      19.251  -0.178  52.603  1.00  0.00     0.187 C 
HETATM   23  O2  UNL     1      19.158  -1.249  53.484  1.00  0.00    -0.388 OA
HETATM   24  C9  UNL     1      20.335  -1.507  54.152  1.00  0.00     0.187 C 
HETATM   25  C10 UNL     1      21.554  -1.211  53.271  1.00  0.00     0.151 C 
ENDBRANCH   7  20
BRANCH   1  26
HETATM   26  O1  UNL     1      27.347   2.894  51.544  1.00  0.00    -0.358 OA
HETATM   27  H1  UNL     1      26.715   3.684  51.521  1.00  0.00     0.217 HD
ENDBRANCH   1  26
TORSDOF 2
ENDMDL
MODEL 9
REMARK VINA RESULT:      -7.2      2.825      5.014
REMARK  2 active torsions:
REMARK  status: ('A' for Active; 'I' for Inactive)
REMARK    1  A    between atoms: O1_1  and  C1_2 
REMARK    2  A    between atoms: C6_8  and  N2_9 
ROOT
HETATM    1  C1  UNL     1      24.651   3.849  50.983  1.00  0.00     0.094 C 
HETATM    2  C2  UNL     1      24.643   5.169  50.623  1.00  0.00     0.039 C 
HETATM    3  C3  UNL     1      23.589   5.888  49.882  1.00  0.00     0.005 C 
HETATM    4  C4  UNL     1      22.428   5.368  49.377  1.00  0.00     0.032 C 
HETATM    5  C5  UNL     1      22.273   3.868  49.218  1.00  0.00     0.061 C 
HETATM    6  N1  UNL     1      20.958   3.696  49.463  1.00  0.00    -0.229 NA
HETATM    7  C6  UNL     1      20.374   2.804  50.504  1.00  0.00     0.163 C 
HETATM    8  C11 UNL     1      20.880   1.919  51.410  1.00  0.00     0.153 A 
HETATM    9  O3  UNL     1      20.084   1.222  52.140  1.00  0.00    -0.285 OA
HETATM   10  C12 UNL     1      20.791   0.441  52.940  1.00  0.00     0.182 A 
HETATM   11  N3  UNL     1      20.421  -0.465  53.880  1.00  0.00    -0.236 NA
HETATM   12  C13 UNL     1      21.366  -1.155  54.581  1.00  0.00     0.119 A 
HETATM   13  C14 UNL     1      22.722  -0.983  54.386  1.00  0.00     0.020 A 
HETATM   14  C15 UNL     1      23.142  -0.073  53.438  1.00  0.00     0.020 A 
HETATM   15  C16 UNL     1      22.169   0.611  52.745  1.00  0.00     0.049 A 
HETATM   16  C17 UNL     1      22.216   1.561  51.761  1.00  0.00     0.110 A 
HETATM   17  N4  UNL     1      23.464   1.919  51.367  1.00  0.00    -0.242 NA
HETATM   18  C18 UNL     1      23.790   2.844  50.252  1.00  0.00     0.092 C 
HETATM   19  C19 UNL     1      23.376   2.845  48.922  1.00  0.00     0.066 C 
ENDROOT
BRANCH   7  20
HETATM   20  N2  UNL     1      18.995   2.910  50.564  1.00  0.00    -0.359 N 
HETATM   21  C7  UNL     1      18.166   3.689  51.443  1.00  0.00     0.151 C 
HETATM   22  C8  UNL     1      16.767   3.801  50.920  1.00  0.00     0.187 C 
HETATM   23  O2  UNL     1      16.156   2.577  50.677  1.00  0.00    -0.388 OA
HETATM   24  C9  UNL     1      17.048   1.574  50.372  1.00  0.00     0.187 C 
HETATM   25  C10 UNL     1      18.250   2.115  49.588  1.00  0.00     0.151 C 
ENDBRANCH   7  20
BRANCH   1  26
HETATM   26  O1  UNL     1      25.380   3.258  51.990  1.00  0.00    -0.358 OA
HETATM   27  H1  UNL     1      25.021   2.467  52.511  1.00  0.00     0.217 HD
ENDBRANCH   1  26
TORSDOF 2
ENDMDL
