MODEL 1
REMARK VINA RESULT:      -8.9      0.000      0.000
REMARK  3 active torsions:
REMARK  status: ('A' for Active; 'I' for Inactive)
REMARK    1  A    between atoms: C1_2  and  N2_3 
REMARK    2  A    between atoms: C11_16  and  N4_17 
REMARK    3  A    between atoms: N4_17  and  C12_18 
ROOT
HETATM    1  N2  UNL     1      27.057   0.434  52.596  1.00  0.00    -0.216 NA
HETATM    2  C2  UNL     1      25.823   0.838  52.582  1.00  0.00     0.199 C 
HETATM    3  O1  UNL     1      24.939   0.477  53.618  1.00  0.00    -0.289 OA
HETATM    4  C3  UNL     1      23.580   0.223  53.488  1.00  0.00     0.086 A 
HETATM    5  C4  UNL     1      23.131  -0.776  54.330  1.00  0.00     0.039 A 
HETATM    6  C5  UNL     1      21.807  -1.165  54.339  1.00  0.00     0.026 A 
HETATM    7  C6  UNL     1      20.905  -0.545  53.489  1.00  0.00     0.034 A 
HETATM    8 CL1  UNL     1      19.220  -0.992  53.453  1.00  0.00    -0.084 Cl
HETATM    9  C7  UNL     1      21.391   0.445  52.664  1.00  0.00     0.035 A 
HETATM   10  C8  UNL     1      22.723   0.868  52.624  1.00  0.00    -0.005 A 
HETATM   11  C9  UNL     1      22.869   1.949  51.618  1.00  0.00     0.161 C 
HETATM   12  N3  UNL     1      24.141   1.906  50.929  1.00  0.00    -0.381 N 
HETATM   13  C10 UNL     1      25.444   1.666  51.444  1.00  0.00     0.098 C 
HETATM   14  C11 UNL     1      26.435   2.271  50.809  1.00  0.00     0.122 C 
HETATM   15  H8  UNL     1      24.096   2.080  49.882  1.00  0.00     0.160 HD
ENDROOT
BRANCH  14  16
HETATM   16  N4  UNL     1      26.469   3.135  49.690  1.00  0.00    -0.364 N 
HETATM   17  H10 UNL     1      26.478   2.701  48.721  1.00  0.00     0.165 HD
BRANCH  16  18
HETATM   18  C12 UNL     1      26.495   4.536  49.446  1.00  0.00     0.033 A 
HETATM   19  C13 UNL     1      27.590   4.885  48.654  1.00  0.00     0.029 A 
HETATM   20  C14 UNL     1      27.818   6.214  48.287  1.00  0.00     0.004 A 
HETATM   21  C15 UNL     1      26.914   7.152  48.742  1.00  0.00     0.019 A 
HETATM   22  C16 UNL     1      25.816   6.811  49.533  1.00  0.00     0.013 A 
HETATM   23 BR1  UNL     1      24.560   8.093  50.168  1.00  0.00    -0.051 Br
HETATM   24  C17 UNL     1      25.616   5.497  49.880  1.00  0.00     0.048 A 
ENDBRANCH  16  18
ENDBRANCH  14  16
BRANCH   1  25
HETATM   25  C1  UNL     1      27.502  -0.375  53.668  1.00  0.00     0.226 C 
HETATM   26  N1  UNL     1      27.595  -0.263  54.955  1.00  0.00    -0.293 NA
HETATM   27  H1  UNL     1      27.294   0.603  55.445  1.00  0.00     0.187 HD
ENDBRANCH   1  25
TORSDOF 3
ENDMDL
MODEL 2
REMARK VINA RESULT:      -8.7      1.126      1.494
REMARK  3 active torsions:
REMARK  status: ('A' for Active; 'I' for Inactive)
REMARK    1  A    between atoms: C1_2  and  N2_3 
REMARK    2  A    between atoms: C11_16  and  N4_17 
REMARK    3  A    between atoms: N4_17  and  C12_18 
ROOT
HETATM    1  N2  UNL     1      27.040   0.448  52.597  1.00  0.00    -0.216 NA
HETATM    2  C2  UNL     1      25.804   0.845  52.564  1.00  0.00     0.199 C 
HETATM    3  O1  UNL     1      24.915   0.510  53.605  1.00  0.00    -0.289 OA
HETATM    4  C3  UNL     1      23.558   0.245  53.474  1.00  0.00     0.086 A 
HETATM    5  C4  UNL     1      23.109  -0.731  54.342  1.00  0.00     0.039 A 
HETATM    6  C5  UNL     1      21.788  -1.126  54.355  1.00  0.00     0.026 A 
HETATM    7  C6  UNL     1      20.888  -0.537  53.482  1.00  0.00     0.034 A 
HETATM    8 CL1  UNL     1      19.205  -0.992  53.449  1.00  0.00    -0.084 Cl
HETATM    9  C7  UNL     1      21.373   0.433  52.631  1.00  0.00     0.035 A 
HETATM   10  C8  UNL     1      22.704   0.861  52.587  1.00  0.00    -0.005 A 
HETATM   11  C9  UNL     1      22.850   1.913  51.550  1.00  0.00     0.161 C 
HETATM   12  N3  UNL     1      24.127   1.856  50.871  1.00  0.00    -0.381 N 
HETATM   13  C10 UNL     1      25.427   1.638  51.400  1.00  0.00     0.098 C 
HETATM   14  C11 UNL     1      26.420   2.230  50.754  1.00  0.00     0.122 C 
HETATM   15  H8  UNL     1      24.088   1.999  49.818  1.00  0.00     0.160 HD
ENDROOT
BRANCH  14  16
HETATM   16  N4  UNL     1      26.456   3.060  49.610  1.00  0.00    -0.364 N 
HETATM   17  H10 UNL     1      26.276   2.618  48.663  1.00  0.00     0.165 HD
BRANCH  16  18
HETATM   18  C12 UNL     1      26.679   4.434  49.318  1.00  0.00     0.033 A 
HETATM   19  C13 UNL     1      25.673   5.232  49.866  1.00  0.00     0.029 A 
HETATM   20  C14 UNL     1      25.688   6.620  49.704  1.00  0.00     0.004 A 
HETATM   21  C15 UNL     1      26.734   7.154  48.982  1.00  0.00     0.019 A 
HETATM   22  C16 UNL     1      27.744   6.364  48.431  1.00  0.00     0.013 A 
HETATM   23 BR1  UNL     1      29.196   7.087  47.434  1.00  0.00    -0.051 Br
HETATM   24  C17 UNL     1      27.706   5.003  48.606  1.00  0.00     0.048 A 
ENDBRANCH  16  18
ENDBRANCH  14  16
BRANCH   1  25
HETATM   25  C1  UNL     1      27.483  -0.327  53.695  1.00  0.00     0.226 C 
HETATM   26  N1  UNL     1      27.438  -0.240  54.986  1.00  0.00    -0.293 NA
HETATM   27  H1  UNL     1      26.983   0.567  55.458  1.00  0.00     0.187 HD
ENDBRANCH   1  25
TORSDOF 3
ENDMDL
MODEL 3
REMARK VINA RESULT:      -8.7      4.350      7.766
REMARK  3 active torsions:
REMARK  status: ('A' for Active; 'I' for Inactive)
REMARK    1  A    between atoms: C1_2  and  N2_3 
REMARK    2  A    between atoms: C11_16  and  N4_17 
REMARK    3  A    between atoms: N4_17  and  C12_18 
ROOT
HETATM    1  N2  UNL     1      23.187   3.207  52.398  1.00  0.00    -0.216 NA
HETATM    2  C2  UNL     1      23.880   2.295  53.012  1.00  0.00     0.199 C 
HETATM    3  O1  UNL     1      25.167   2.584  53.506  1.00  0.00    -0.289 OA
HETATM    4  C3  UNL     1      26.243   1.707  53.558  1.00  0.00     0.086 A 
HETATM    5  C4  UNL     1      27.458   2.324  53.330  1.00  0.00     0.039 A 
HETATM    6  C5  UNL     1      28.638   1.610  53.344  1.00  0.00     0.026 A 
HETATM    7  C6  UNL     1      28.612   0.246  53.590  1.00  0.00     0.034 A 
HETATM    8 CL1  UNL     1      30.068  -0.711  53.619  1.00  0.00    -0.084 Cl
HETATM    9  C7  UNL     1      27.381  -0.333  53.812  1.00  0.00     0.035 A 
HETATM   10  C8  UNL     1      26.164   0.355  53.807  1.00  0.00    -0.005 A 
HETATM   11  C9  UNL     1      25.058  -0.596  54.083  1.00  0.00     0.161 C 
HETATM   12  N3  UNL     1      23.846  -0.270  53.363  1.00  0.00    -0.381 N 
HETATM   13  C10 UNL     1      23.235   0.994  53.140  1.00  0.00     0.098 C 
HETATM   14  C11 UNL     1      21.915   0.986  53.036  1.00  0.00     0.122 C 
HETATM   15  H8  UNL     1      23.334  -1.098  52.937  1.00  0.00     0.160 HD
ENDROOT
BRANCH  14  16
HETATM   16  N4  UNL     1      20.956  -0.051  53.104  1.00  0.00    -0.364 N 
HETATM   17  H10 UNL     1      21.218  -0.944  53.613  1.00  0.00     0.165 HD
BRANCH  16  18
HETATM   18  C12 UNL     1      19.626  -0.281  52.657  1.00  0.00     0.033 A 
HETATM   19  C13 UNL     1      18.965  -1.180  53.496  1.00  0.00     0.029 A 
HETATM   20  C14 UNL     1      17.641  -1.555  53.248  1.00  0.00     0.004 A 
HETATM   21  C15 UNL     1      17.030  -0.997  52.145  1.00  0.00     0.019 A 
HETATM   22  C16 UNL     1      17.683  -0.097  51.302  1.00  0.00     0.013 A 
HETATM   23 BR1  UNL     1      16.852   0.682  49.776  1.00  0.00    -0.051 Br
HETATM   24  C17 UNL     1      18.983   0.254  51.568  1.00  0.00     0.048 A 
ENDBRANCH  16  18
ENDBRANCH  14  16
BRANCH   1  25
HETATM   25  C1  UNL     1      23.745   4.497  52.233  1.00  0.00     0.226 C 
HETATM   26  N1  UNL     1      23.989   5.519  52.989  1.00  0.00    -0.293 NA
HETATM   27  H1  UNL     1      23.757   5.510  54.002  1.00  0.00     0.187 HD
ENDBRANCH   1  25
TORSDOF 3
ENDMDL
MODEL 4
REMARK VINA RESULT:      -8.4      4.815      8.521
REMARK  3 active torsions:
REMARK  status: ('A' for Active; 'I' for Inactive)
REMARK    1  A    between atoms: C1_2  and  N2_3 
REMARK    2  A    between atoms: C11_16  and  N4_17 
REMARK    3  A    between atoms: N4_17  and  C12_18 
ROOT
HETATM    1  N2  UNL     1      22.818  -1.158  55.202  1.00  0.00    -0.216 NA
HETATM    2  C2  UNL     1      22.913  -0.612  54.026  1.00  0.00     0.199 C 
HETATM    3  O1  UNL     1      24.166  -0.482  53.395  1.00  0.00    -0.289 OA
HETATM    4  C3  UNL     1      24.566   0.561  52.570  1.00  0.00     0.086 A 
HETATM    5  C4  UNL     1      25.903   0.880  52.708  1.00  0.00     0.039 A 
HETATM    6  C5  UNL     1      26.478   1.892  51.967  1.00  0.00     0.026 A 
HETATM    7  C6  UNL     1      25.705   2.606  51.065  1.00  0.00     0.034 A 
HETATM    8 CL1  UNL     1      26.373   3.895  50.101  1.00  0.00    -0.084 Cl
HETATM    9  C7  UNL     1      24.376   2.258  50.956  1.00  0.00     0.035 A 
HETATM   10  C8  UNL     1      23.756   1.240  51.688  1.00  0.00    -0.005 A 
HETATM   11  C9  UNL     1      22.324   1.157  51.303  1.00  0.00     0.161 C 
HETATM   12  N3  UNL     1      21.466   0.805  52.414  1.00  0.00    -0.381 N 
HETATM   13  C10 UNL     1      21.657  -0.162  53.437  1.00  0.00     0.098 C 
HETATM   14  C11 UNL     1      20.557  -0.723  53.915  1.00  0.00     0.122 C 
HETATM   15  H8  UNL     1      20.555   1.348  52.474  1.00  0.00     0.160 HD
ENDROOT
BRANCH  14  16
HETATM   16  N4  UNL     1      19.188  -0.555  53.607  1.00  0.00    -0.364 N 
HETATM   17  H10 UNL     1      18.793   0.430  53.593  1.00  0.00     0.165 HD
BRANCH  16  18
HETATM   18  C12 UNL     1      18.076  -1.381  53.280  1.00  0.00     0.033 A 
HETATM   19  C13 UNL     1      17.203  -0.722  52.413  1.00  0.00     0.029 A 
HETATM   20  C14 UNL     1      16.037  -1.345  51.956  1.00  0.00     0.004 A 
HETATM   21  C15 UNL     1      15.798  -2.628  52.402  1.00  0.00     0.019 A 
HETATM   22  C16 UNL     1      16.667  -3.293  53.268  1.00  0.00     0.013 A 
HETATM   23 BR1  UNL     1      16.352  -5.065  53.891  1.00  0.00    -0.051 Br
HETATM   24  C17 UNL     1      17.805  -2.659  53.701  1.00  0.00     0.048 A 
ENDBRANCH  16  18
ENDBRANCH  14  16
BRANCH   1  25
HETATM   25  C1  UNL     1      23.993  -1.620  55.840  1.00  0.00     0.226 C 
HETATM   26  N1  UNL     1      25.194  -1.178  56.033  1.00  0.00    -0.293 NA
HETATM   27  H1  UNL     1      25.494  -0.250  55.671  1.00  0.00     0.187 HD
ENDBRANCH   1  25
TORSDOF 3
ENDMDL
MODEL 5
REMARK VINA RESULT:      -8.2      5.026      8.554
REMARK  3 active torsions:
REMARK  status: ('A' for Active; 'I' for Inactive)
REMARK    1  A    between atoms: C1_2  and  N2_3 
REMARK    2  A    between atoms: C11_16  and  N4_17 
REMARK    3  A    between atoms: N4_17  and  C12_18 
ROOT
HETATM    1  N2  UNL     1      21.830   2.408  52.180  1.00  0.00    -0.216 NA
HETATM    2  C2  UNL     1      22.648   1.676  52.874  1.00  0.00     0.199 C 
HETATM    3  O1  UNL     1      23.972   2.099  53.103  1.00  0.00    -0.289 OA
HETATM    4  C3  UNL     1      25.092   1.283  53.194  1.00  0.00     0.086 A 
HETATM    5  C4  UNL     1      26.230   1.861  52.664  1.00  0.00     0.039 A 
HETATM    6  C5  UNL     1      27.439   1.196  52.666  1.00  0.00     0.026 A 
HETATM    7  C6  UNL     1      27.520  -0.077  53.208  1.00  0.00     0.034 A 
HETATM    8 CL1  UNL     1      29.018  -0.968  53.239  1.00  0.00    -0.084 Cl
HETATM    9  C7  UNL     1      26.365  -0.619  53.726  1.00  0.00     0.035 A 
HETATM   10  C8  UNL     1      25.121   0.020  53.743  1.00  0.00    -0.005 A 
HETATM   11  C9  UNL     1      24.117  -0.869  54.378  1.00  0.00     0.161 C 
HETATM   12  N3  UNL     1      22.803  -0.743  53.784  1.00  0.00    -0.381 N 
HETATM   13  C10 UNL     1      22.099   0.423  53.378  1.00  0.00     0.098 C 
HETATM   14  C11 UNL     1      20.779   0.361  53.468  1.00  0.00     0.122 C 
HETATM   15  H8  UNL     1      22.285  -1.658  53.630  1.00  0.00     0.160 HD
ENDROOT
BRANCH  14  16
HETATM   16  N4  UNL     1      19.897  -0.656  53.899  1.00  0.00    -0.364 N 
HETATM   17  H10 UNL     1      20.109  -1.150  54.814  1.00  0.00     0.165 HD
BRANCH  16  18
HETATM   18  C12 UNL     1      18.702  -1.274  53.437  1.00  0.00     0.033 A 
HETATM   19  C13 UNL     1      18.040  -0.458  52.518  1.00  0.00     0.029 A 
HETATM   20  C14 UNL     1      16.838  -0.864  51.931  1.00  0.00     0.004 A 
HETATM   21  C15 UNL     1      16.346  -2.097  52.303  1.00  0.00     0.019 A 
HETATM   22  C16 UNL     1      17.001  -2.919  53.221  1.00  0.00     0.013 A 
HETATM   23 BR1  UNL     1      16.335  -4.624  53.744  1.00  0.00    -0.051 Br
HETATM   24  C17 UNL     1      18.181  -2.496  53.783  1.00  0.00     0.048 A 
ENDBRANCH  16  18
ENDBRANCH  14  16
BRANCH   1  25
HETATM   25  C1  UNL     1      22.289   3.640  51.656  1.00  0.00     0.226 C 
HETATM   26  N1  UNL     1      22.875   4.699  52.118  1.00  0.00    -0.293 NA
HETATM   27  H1  UNL     1      23.124   4.783  53.124  1.00  0.00     0.187 HD
ENDBRANCH   1  25
TORSDOF 3
ENDMDL
MODEL 6
REMARK VINA RESULT:      -8.0      2.817      4.449
REMARK  3 active torsions:
REMARK  status: ('A' for Active; 'I' for Inactive)
REMARK    1  A    between atoms: C1_2  and  N2_3 
REMARK    2  A    between atoms: C11_16  and  N4_17 
REMARK    3  A    between atoms: N4_17  and  C12_18 
ROOT
HETATM    1  N2  UNL     1      23.575   4.256  49.548  1.00  0.00    -0.216 NA
HETATM    2  C2  UNL     1      24.305   3.340  50.110  1.00  0.00     0.199 C 
HETATM    3  O1  UNL     1      23.728   2.131  50.546  1.00  0.00    -0.289 OA
HETATM    4  C3  UNL     1      24.106   1.395  51.662  1.00  0.00     0.086 A 
HETATM    5  C4  UNL     1      23.042   0.784  52.296  1.00  0.00     0.039 A 
HETATM    6  C5  UNL     1      23.227   0.011  53.423  1.00  0.00     0.026 A 
HETATM    7  C6  UNL     1      24.503  -0.159  53.936  1.00  0.00     0.034 A 
HETATM    8 CL1  UNL     1      24.802  -1.123  55.357  1.00  0.00    -0.084 Cl
HETATM    9  C7  UNL     1      25.539   0.467  53.276  1.00  0.00     0.035 A 
HETATM   10  C8  UNL     1      25.393   1.258  52.132  1.00  0.00    -0.005 A 
HETATM   11  C9  UNL     1      26.723   1.761  51.707  1.00  0.00     0.161 C 
HETATM   12  N3  UNL     1      26.664   3.094  51.147  1.00  0.00    -0.381 N 
HETATM   13  C10 UNL     1      25.721   3.659  50.247  1.00  0.00     0.098 C 
HETATM   14  C11 UNL     1      26.188   4.592  49.431  1.00  0.00     0.122 C 
HETATM   15  H8  UNL     1      27.442   3.750  51.452  1.00  0.00     0.160 HD
ENDROOT
BRANCH  14  16
HETATM   16  N4  UNL     1      27.472   5.160  49.264  1.00  0.00    -0.364 N 
HETATM   17  H10 UNL     1      28.241   4.867  49.933  1.00  0.00     0.165 HD
BRANCH  16  18
HETATM   18  C12 UNL     1      28.103   6.088  48.390  1.00  0.00     0.033 A 
HETATM   19  C13 UNL     1      27.178   6.997  47.873  1.00  0.00     0.029 A 
HETATM   20  C14 UNL     1      27.576   8.003  46.988  1.00  0.00     0.004 A 
HETATM   21  C15 UNL     1      28.913   8.051  46.656  1.00  0.00     0.019 A 
HETATM   22  C16 UNL     1      29.845   7.147  47.169  1.00  0.00     0.013 A 
HETATM   23 BR1  UNL     1      31.694   7.201  46.722  1.00  0.00    -0.051 Br
HETATM   24  C17 UNL     1      29.427   6.168  48.037  1.00  0.00     0.048 A 
ENDBRANCH  16  18
ENDBRANCH  14  16
BRANCH   1  25
HETATM   25  C1  UNL     1      22.189   4.021  49.379  1.00  0.00     0.226 C 
HETATM   26  N1  UNL     1      21.448   3.072  48.904  1.00  0.00    -0.293 NA
HETATM   27  H1  UNL     1      21.865   2.204  48.513  1.00  0.00     0.187 HD
ENDBRANCH   1  25
TORSDOF 3
ENDMDL
MODEL 7
REMARK VINA RESULT:      -7.8      4.637      7.444
REMARK  3 active torsions:
REMARK  status: ('A' for Active; 'I' for Inactive)
REMARK    1  A    between atoms: C1_2  and  N2_3 
REMARK    2  A    between atoms: C11_16  and  N4_17 
REMARK    3  A    between atoms: N4_17  and  C12_18 
ROOT
HETATM    1  N2  UNL     1      22.095   3.197  52.070  1.00  0.00    -0.216 NA
HETATM    2  C2  UNL     1      22.659   4.338  51.809  1.00  0.00     0.199 C 
HETATM    3  O1  UNL     1      21.899   5.525  51.789  1.00  0.00    -0.289 OA
HETATM    4  C3  UNL     1      22.102   6.615  50.953  1.00  0.00     0.086 A 
HETATM    5  C4  UNL     1      20.926   7.230  50.568  1.00  0.00     0.039 A 
HETATM    6  C5  UNL     1      20.932   8.331  49.737  1.00  0.00     0.026 A 
HETATM    7  C6  UNL     1      22.137   8.836  49.277  1.00  0.00     0.034 A 
HETATM    8 CL1  UNL     1      22.211  10.224  48.225  1.00  0.00    -0.084 Cl
HETATM    9  C7  UNL     1      23.288   8.196  49.682  1.00  0.00     0.035 A 
HETATM   10  C8  UNL     1      23.325   7.079  50.522  1.00  0.00    -0.005 A 
HETATM   11  C9  UNL     1      24.735   6.669  50.738  1.00  0.00     0.161 C 
HETATM   12  N3  UNL     1      24.890   5.234  50.851  1.00  0.00    -0.381 N 
HETATM   13  C10 UNL     1      24.092   4.288  51.548  1.00  0.00     0.098 C 
HETATM   14  C11 UNL     1      24.732   3.228  52.018  1.00  0.00     0.122 C 
HETATM   15  H8  UNL     1      25.727   4.826  50.338  1.00  0.00     0.160 HD
ENDROOT
BRANCH  14  16
HETATM   16  N4  UNL     1      26.088   2.830  51.970  1.00  0.00    -0.364 N 
HETATM   17  H10 UNL     1      26.769   3.433  51.423  1.00  0.00     0.165 HD
BRANCH  16  18
HETATM   18  C12 UNL     1      26.890   1.772  52.479  1.00  0.00     0.033 A 
HETATM   19  C13 UNL     1      27.951   2.269  53.238  1.00  0.00     0.029 A 
HETATM   20  C14 UNL     1      28.872   1.406  53.839  1.00  0.00     0.004 A 
HETATM   21  C15 UNL     1      28.681   0.055  53.644  1.00  0.00     0.019 A 
HETATM   22  C16 UNL     1      27.623  -0.451  52.887  1.00  0.00     0.013 A 
HETATM   23 BR1  UNL     1      27.346  -2.314  52.611  1.00  0.00    -0.051 Br
HETATM   24  C17 UNL     1      26.733   0.419  52.309  1.00  0.00     0.048 A 
ENDBRANCH  16  18
ENDBRANCH  14  16
BRANCH   1  25
HETATM   25  C1  UNL     1      20.705   3.163  52.334  1.00  0.00     0.226 C 
HETATM   26  N1  UNL     1      19.653   3.791  51.917  1.00  0.00    -0.293 NA
HETATM   27  H1  UNL     1      19.721   4.541  51.199  1.00  0.00     0.187 HD
ENDBRANCH   1  25
TORSDOF 3
ENDMDL
MODEL 8
REMARK VINA RESULT:      -7.7      5.590      9.760
REMARK  3 active torsions:
REMARK  status: ('A' for Active; 'I' for Inactive)
REMARK    1  A    between atoms: C1_2  and  N2_3 
REMARK    2  A    between atoms: C11_16  and  N4_17 
REMARK    3  A    between atoms: N4_17  and  C12_18 
ROOT
HETATM    1  N2  UNL     1      30.306   4.818  47.934  1.00  0.00    -0.216 NA
HETATM    2  C2  UNL     1      29.720   5.977  47.952  1.00  0.00     0.199 C 
HETATM    3  O1  UNL     1      30.362   7.113  47.421  1.00  0.00    -0.289 OA
HETATM    4  C3  UNL     1      30.258   8.414  47.898  1.00  0.00     0.086 A 
HETATM    5  C4  UNL     1      31.434   9.130  47.783  1.00  0.00     0.039 A 
HETATM    6  C5  UNL     1      31.519  10.440  48.205  1.00  0.00     0.026 A 
HETATM    7  C6  UNL     1      30.407  11.056  48.757  1.00  0.00     0.034 A 
HETATM    8 CL1  UNL     1      30.451  12.709  49.310  1.00  0.00    -0.084 Cl
HETATM    9  C7  UNL     1      29.253  10.309  48.856  1.00  0.00     0.035 A 
HETATM   10  C8  UNL     1      29.126   8.980  48.440  1.00  0.00    -0.005 A 
HETATM   11  C9  UNL     1      27.743   8.510  48.704  1.00  0.00     0.161 C 
HETATM   12  N3  UNL     1      27.689   7.115  49.083  1.00  0.00    -0.381 N 
HETATM   13  C10 UNL     1      28.390   6.001  48.548  1.00  0.00     0.098 C 
HETATM   14  C11 UNL     1      27.754   4.840  48.598  1.00  0.00     0.122 C 
HETATM   15  H8  UNL     1      27.025   6.887  49.881  1.00  0.00     0.160 HD
ENDROOT
BRANCH  14  16
HETATM   16  N4  UNL     1      26.481   4.468  49.087  1.00  0.00    -0.364 N 
HETATM   17  H10 UNL     1      25.635   5.014  48.753  1.00  0.00     0.165 HD
BRANCH  16  18
HETATM   18  C12 UNL     1      25.941   3.493  49.972  1.00  0.00     0.033 A 
HETATM   19  C13 UNL     1      24.546   3.478  49.907  1.00  0.00     0.029 A 
HETATM   20  C14 UNL     1      23.800   2.596  50.693  1.00  0.00     0.004 A 
HETATM   21  C15 UNL     1      24.504   1.753  51.527  1.00  0.00     0.019 A 
HETATM   22  C16 UNL     1      25.897   1.761  51.596  1.00  0.00     0.013 A 
HETATM   23 BR1  UNL     1      26.883   0.601  52.740  1.00  0.00    -0.051 Br
HETATM   24  C17 UNL     1      26.607   2.637  50.813  1.00  0.00     0.048 A 
ENDBRANCH  16  18
ENDBRANCH  14  16
BRANCH   1  25
HETATM   25  C1  UNL     1      31.601   4.713  47.372  1.00  0.00     0.226 C 
HETATM   26  N1  UNL     1      32.758   5.259  47.568  1.00  0.00    -0.293 NA
HETATM   27  H1  UNL     1      32.898   5.980  48.305  1.00  0.00     0.187 HD
ENDBRANCH   1  25
TORSDOF 3
ENDMDL
MODEL 9
REMARK VINA RESULT:      -7.6      3.366      4.775
REMARK  3 active torsions:
REMARK  status: ('A' for Active; 'I' for Inactive)
REMARK    1  A    between atoms: C1_2  and  N2_3 
REMARK    2  A    between atoms: C11_16  and  N4_17 
REMARK    3  A    between atoms: N4_17  and  C12_18 
ROOT
HETATM    1  N2  UNL     1      22.616   4.858  51.561  1.00  0.00    -0.216 NA
HETATM    2  C2  UNL     1      23.605   4.069  51.268  1.00  0.00     0.199 C 
HETATM    3  O1  UNL     1      23.600   2.725  51.690  1.00  0.00    -0.289 OA
HETATM    4  C3  UNL     1      24.708   1.977  52.065  1.00  0.00     0.086 A 
HETATM    5  C4  UNL     1      24.441   1.086  53.087  1.00  0.00     0.039 A 
HETATM    6  C5  UNL     1      25.423   0.259  53.591  1.00  0.00     0.026 A 
HETATM    7  C6  UNL     1      26.704   0.317  53.067  1.00  0.00     0.034 A 
HETATM    8 CL1  UNL     1      27.988  -0.702  53.662  1.00  0.00    -0.084 Cl
HETATM    9  C7  UNL     1      26.932   1.218  52.050  1.00  0.00     0.035 A 
HETATM   10  C8  UNL     1      25.965   2.073  51.511  1.00  0.00    -0.005 A 
HETATM   11  C9  UNL     1      26.576   2.895  50.437  1.00  0.00     0.161 C 
HETATM   12  N3  UNL     1      26.031   4.235  50.378  1.00  0.00    -0.381 N 
HETATM   13  C10 UNL     1      24.684   4.672  50.494  1.00  0.00     0.098 C 
HETATM   14  C11 UNL     1      24.371   5.764  49.813  1.00  0.00     0.122 C 
HETATM   15  H8  UNL     1      26.743   5.009  50.225  1.00  0.00     0.160 HD
ENDROOT
BRANCH  14  16
HETATM   16  N4  UNL     1      25.122   6.611  48.967  1.00  0.00    -0.364 N 
HETATM   17  H10 UNL     1      24.758   6.794  47.987  1.00  0.00     0.165 HD
BRANCH  16  18
HETATM   18  C12 UNL     1      26.328   7.363  49.037  1.00  0.00     0.033 A 
HETATM   19  C13 UNL     1      26.246   8.348  50.023  1.00  0.00     0.029 A 
HETATM   20  C14 UNL     1      27.319   9.209  50.270  1.00  0.00     0.004 A 
HETATM   21  C15 UNL     1      28.448   9.039  49.497  1.00  0.00     0.019 A 
HETATM   22  C16 UNL     1      28.538   8.056  48.509  1.00  0.00     0.013 A 
HETATM   23 BR1  UNL     1      30.090   7.807  47.436  1.00  0.00    -0.051 Br
HETATM   24  C17 UNL     1      27.470   7.223  48.288  1.00  0.00     0.048 A 
ENDBRANCH  16  18
ENDBRANCH  14  16
BRANCH   1  25
HETATM   25  C1  UNL     1      21.530   4.347  52.311  1.00  0.00     0.226 C 
HETATM   26  N1  UNL     1      20.799   3.278  52.299  1.00  0.00    -0.293 NA
HETATM   27  H1  UNL     1      20.956   2.525  51.599  1.00  0.00     0.187 HD
ENDBRANCH   1  25
TORSDOF 3
ENDMDL
