MODEL 1
REMARK VINA RESULT:      -7.7      0.000      0.000
REMARK  4 active torsions:
REMARK  status: ('A' for Active; 'I' for Inactive)
REMARK    1  A    between atoms: O1_2  and  C2_3 
REMARK    2  A    between atoms: C6_9  and  N3_10 
REMARK    3  A    between atoms: N3_10  and  C7_11 
REMARK    4  A    between atoms: C15_20  and  O2_21 
ROOT
HETATM    1  C2  UNL     1      19.861  -0.042  52.330  1.00  0.00     0.103 A 
HETATM    2  C3  UNL     1      20.134  -0.674  53.500  1.00  0.00     0.072 A 
HETATM    3  C4  UNL     1      21.404  -0.830  54.019  1.00  0.00     0.075 A 
HETATM    4  N1  UNL     1      21.828  -1.418  55.146  1.00  0.00    -0.241 NA
HETATM    5  C5  UNL     1      23.077  -1.508  55.548  1.00  0.00     0.236 A 
HETATM    6  N2  UNL     1      24.096  -0.986  54.821  1.00  0.00    -0.224 NA
HETATM    7  C6  UNL     1      23.795  -0.363  53.657  1.00  0.00     0.142 A 
HETATM    8  C13 UNL     1      22.450  -0.291  53.267  1.00  0.00     0.042 A 
HETATM    9  C14 UNL     1      22.172   0.349  52.081  1.00  0.00     0.057 A 
HETATM   10  C15 UNL     1      20.899   0.503  51.564  1.00  0.00     0.102 A 
ENDROOT
BRANCH   7  11
HETATM   11  N3  UNL     1      24.828   0.196  52.861  1.00  0.00    -0.340 N 
HETATM   12  H6  UNL     1      24.417   0.190  51.901  1.00  0.00     0.167 HD
BRANCH  11  13
HETATM   13  C7  UNL     1      26.130   0.677  53.091  1.00  0.00     0.035 A 
HETATM   14  C8  UNL     1      26.550   1.971  53.229  1.00  0.00     0.029 A 
HETATM   15  C9  UNL     1      27.877   2.319  53.438  1.00  0.00     0.004 A 
HETATM   16  C10 UNL     1      28.794   1.291  53.503  1.00  0.00     0.019 A 
HETATM   17  C11 UNL     1      28.432  -0.035  53.371  1.00  0.00     0.013 A 
HETATM   18 BR1  UNL     1      29.721  -1.460  53.465  1.00  0.00    -0.051 Br
HETATM   19  C12 UNL     1      27.112  -0.291  53.171  1.00  0.00     0.048 A 
ENDBRANCH  11  13
ENDBRANCH   7  11
BRANCH  10  20
HETATM   20  O2  UNL     1      20.464   1.112  50.402  1.00  0.00    -0.353 OA
HETATM   21  C16 UNL     1      20.474   2.502  50.279  1.00  0.00     0.210 C 
ENDBRANCH  10  20
BRANCH   1  22
HETATM   22  O1  UNL     1      18.534   0.042  51.926  1.00  0.00    -0.353 OA
HETATM   23  C1  UNL     1      17.592  -0.827  52.526  1.00  0.00     0.210 C 
ENDBRANCH   1  22
TORSDOF 4
ENDMDL
MODEL 2
REMARK VINA RESULT:      -7.5      4.183      5.519
REMARK  4 active torsions:
REMARK  status: ('A' for Active; 'I' for Inactive)
REMARK    1  A    between atoms: O1_2  and  C2_3 
REMARK    2  A    between atoms: C6_9  and  N3_10 
REMARK    3  A    between atoms: N3_10  and  C7_11 
REMARK    4  A    between atoms: C15_20  and  O2_21 
ROOT
HETATM    1  C2  UNL     1      23.496  -0.108  53.385  1.00  0.00     0.103 A 
HETATM    2  C3  UNL     1      24.759  -0.028  53.875  1.00  0.00     0.072 A 
HETATM    3  C4  UNL     1      25.761   0.740  53.314  1.00  0.00     0.075 A 
HETATM    4  N1  UNL     1      27.038   0.922  53.677  1.00  0.00    -0.241 NA
HETATM    5  C5  UNL     1      27.914   1.687  53.064  1.00  0.00     0.236 A 
HETATM    6  N2  UNL     1      27.584   2.394  51.954  1.00  0.00    -0.224 NA
HETATM    7  C6  UNL     1      26.318   2.293  51.486  1.00  0.00     0.142 A 
HETATM    8  C13 UNL     1      25.418   1.466  52.171  1.00  0.00     0.042 A 
HETATM    9  C14 UNL     1      24.137   1.382  51.676  1.00  0.00     0.057 A 
HETATM   10  C15 UNL     1      23.136   0.613  52.241  1.00  0.00     0.102 A 
ENDROOT
BRANCH   7  11
HETATM   11  N3  UNL     1      25.928   3.012  50.327  1.00  0.00    -0.340 N 
HETATM   12  H6  UNL     1      25.239   2.373  49.872  1.00  0.00     0.167 HD
BRANCH  11  13
HETATM   13  C7  UNL     1      26.263   4.250  49.747  1.00  0.00     0.035 A 
HETATM   14  C8  UNL     1      27.298   4.546  48.904  1.00  0.00     0.029 A 
HETATM   15  C9  UNL     1      27.534   5.821  48.410  1.00  0.00     0.004 A 
HETATM   16  C10 UNL     1      26.667   6.818  48.806  1.00  0.00     0.019 A 
HETATM   17  C11 UNL     1      25.603   6.583  49.655  1.00  0.00     0.013 A 
HETATM   18 BR1  UNL     1      24.401   7.983  50.198  1.00  0.00    -0.051 Br
HETATM   19  C12 UNL     1      25.442   5.305  50.092  1.00  0.00     0.048 A 
ENDBRANCH  11  13
ENDBRANCH   7  11
BRANCH  10  20
HETATM   20  O2  UNL     1      21.819   0.427  51.865  1.00  0.00    -0.353 OA
HETATM   21  C16 UNL     1      20.960   1.517  51.714  1.00  0.00     0.210 C 
ENDBRANCH  10  20
BRANCH   1  22
HETATM   22  O1  UNL     1      22.587  -0.922  54.051  1.00  0.00    -0.353 OA
HETATM   23  C1  UNL     1      22.917  -1.377  55.350  1.00  0.00     0.210 C 
ENDBRANCH   1  22
TORSDOF 4
ENDMDL
MODEL 3
REMARK VINA RESULT:      -7.5      3.856      7.374
REMARK  4 active torsions:
REMARK  status: ('A' for Active; 'I' for Inactive)
REMARK    1  A    between atoms: O1_2  and  C2_3 
REMARK    2  A    between atoms: C6_9  and  N3_10 
REMARK    3  A    between atoms: N3_10  and  C7_11 
REMARK    4  A    between atoms: C15_20  and  O2_21 
ROOT
HETATM    1  C2  UNL     1      27.353   0.237  53.921  1.00  0.00     0.103 A 
HETATM    2  C3  UNL     1      27.742   1.085  52.935  1.00  0.00     0.072 A 
HETATM    3  C4  UNL     1      26.872   1.845  52.178  1.00  0.00     0.075 A 
HETATM    4  N1  UNL     1      27.099   2.716  51.185  1.00  0.00    -0.241 NA
HETATM    5  C5  UNL     1      26.185   3.394  50.528  1.00  0.00     0.236 A 
HETATM    6  N2  UNL     1      24.865   3.264  50.811  1.00  0.00    -0.224 NA
HETATM    7  C6  UNL     1      24.505   2.410  51.798  1.00  0.00     0.142 A 
HETATM    8  C13 UNL     1      25.514   1.708  52.472  1.00  0.00     0.042 A 
HETATM    9  C14 UNL     1      25.121   0.847  53.472  1.00  0.00     0.057 A 
HETATM   10  C15 UNL     1      25.996   0.088  54.228  1.00  0.00     0.102 A 
ENDROOT
BRANCH   7  11
HETATM   11  N3  UNL     1      23.136   2.238  52.128  1.00  0.00    -0.340 N 
HETATM   12  H6  UNL     1      23.072   2.640  53.090  1.00  0.00     0.167 HD
BRANCH  11  13
HETATM   13  C7  UNL     1      22.007   1.689  51.493  1.00  0.00     0.035 A 
HETATM   14  C8  UNL     1      21.613   1.820  50.190  1.00  0.00     0.029 A 
HETATM   15  C9  UNL     1      20.459   1.238  49.684  1.00  0.00     0.004 A 
HETATM   16  C10 UNL     1      19.692   0.499  50.560  1.00  0.00     0.019 A 
HETATM   17  C11 UNL     1      20.037   0.330  51.887  1.00  0.00     0.013 A 
HETATM   18 BR1  UNL     1      18.958  -0.704  53.099  1.00  0.00    -0.051 Br
HETATM   19  C12 UNL     1      21.183   0.932  52.301  1.00  0.00     0.048 A 
ENDBRANCH  11  13
ENDBRANCH   7  11
BRANCH  10  20
HETATM   20  O2  UNL     1      25.758  -0.810  55.252  1.00  0.00    -0.353 OA
HETATM   21  C16 UNL     1      24.464  -1.256  55.524  1.00  0.00     0.210 C 
ENDBRANCH  10  20
BRANCH   1  22
HETATM   22  O1  UNL     1      28.338  -0.468  54.603  1.00  0.00    -0.353 OA
HETATM   23  C1  UNL     1      29.527  -0.801  53.913  1.00  0.00     0.210 C 
ENDBRANCH   1  22
TORSDOF 4
ENDMDL
MODEL 4
REMARK VINA RESULT:      -7.5      3.839      6.848
REMARK  4 active torsions:
REMARK  status: ('A' for Active; 'I' for Inactive)
REMARK    1  A    between atoms: O1_2  and  C2_3 
REMARK    2  A    between atoms: C6_9  and  N3_10 
REMARK    3  A    between atoms: N3_10  and  C7_11 
REMARK    4  A    between atoms: C15_20  and  O2_21 
ROOT
HETATM    1  C2  UNL     1      27.312   0.750  53.489  1.00  0.00     0.103 A 
HETATM    2  C3  UNL     1      26.805   0.015  54.511  1.00  0.00     0.072 A 
HETATM    3  C4  UNL     1      25.491  -0.403  54.588  1.00  0.00     0.075 A 
HETATM    4  N1  UNL     1      24.850  -1.125  55.517  1.00  0.00    -0.241 NA
HETATM    5  C5  UNL     1      23.582  -1.472  55.488  1.00  0.00     0.236 A 
HETATM    6  N2  UNL     1      22.771  -1.109  54.462  1.00  0.00    -0.224 NA
HETATM    7  C6  UNL     1      23.303  -0.375  53.457  1.00  0.00     0.142 A 
HETATM    8  C13 UNL     1      24.659  -0.028  53.530  1.00  0.00     0.042 A 
HETATM    9  C14 UNL     1      25.175   0.718  52.495  1.00  0.00     0.057 A 
HETATM   10  C15 UNL     1      26.491   1.134  52.421  1.00  0.00     0.102 A 
ENDROOT
BRANCH   7  11
HETATM   11  N3  UNL     1      22.493   0.030  52.365  1.00  0.00    -0.340 N 
HETATM   12  H6  UNL     1      22.903  -0.493  51.559  1.00  0.00     0.167 HD
BRANCH  11  13
HETATM   13  C7  UNL     1      21.399   0.898  52.187  1.00  0.00     0.035 A 
HETATM   14  C8  UNL     1      21.311   2.231  52.482  1.00  0.00     0.029 A 
HETATM   15  C9  UNL     1      20.162   2.979  52.274  1.00  0.00     0.004 A 
HETATM   16  C10 UNL     1      19.071   2.321  51.745  1.00  0.00     0.019 A 
HETATM   17  C11 UNL     1      19.097   0.977  51.426  1.00  0.00     0.013 A 
HETATM   18 BR1  UNL     1      17.569   0.072  50.689  1.00  0.00    -0.051 Br
HETATM   19  C12 UNL     1      20.263   0.318  51.660  1.00  0.00     0.048 A 
ENDBRANCH  11  13
ENDBRANCH   7  11
BRANCH  10  20
HETATM   20  O2  UNL     1      27.150   1.878  51.461  1.00  0.00    -0.353 OA
HETATM   21  C16 UNL     1      26.503   2.924  50.801  1.00  0.00     0.210 C 
ENDBRANCH  10  20
BRANCH   1  22
HETATM   22  O1  UNL     1      28.655   1.103  53.541  1.00  0.00    -0.353 OA
HETATM   23  C1  UNL     1      29.615   0.075  53.698  1.00  0.00     0.210 C 
ENDBRANCH   1  22
TORSDOF 4
ENDMDL
MODEL 5
REMARK VINA RESULT:      -7.3      4.009      6.413
REMARK  4 active torsions:
REMARK  status: ('A' for Active; 'I' for Inactive)
REMARK    1  A    between atoms: O1_2  and  C2_3 
REMARK    2  A    between atoms: C6_9  and  N3_10 
REMARK    3  A    between atoms: N3_10  and  C7_11 
REMARK    4  A    between atoms: C15_20  and  O2_21 
ROOT
HETATM    1  C2  UNL     1      26.588   0.343  54.319  1.00  0.00     0.103 A 
HETATM    2  C3  UNL     1      25.529  -0.471  54.076  1.00  0.00     0.072 A 
HETATM    3  C4  UNL     1      24.356  -0.059  53.476  1.00  0.00     0.075 A 
HETATM    4  N1  UNL     1      23.239  -0.733  53.171  1.00  0.00    -0.241 NA
HETATM    5  C5  UNL     1      22.170  -0.235  52.590  1.00  0.00     0.236 A 
HETATM    6  N2  UNL     1      22.101   1.071  52.231  1.00  0.00    -0.224 NA
HETATM    7  C6  UNL     1      23.170   1.861  52.488  1.00  0.00     0.142 A 
HETATM    8  C13 UNL     1      24.289   1.287  53.108  1.00  0.00     0.042 A 
HETATM    9  C14 UNL     1      25.363   2.111  53.356  1.00  0.00     0.057 A 
HETATM   10  C15 UNL     1      26.536   1.694  53.957  1.00  0.00     0.102 A 
ENDROOT
BRANCH   7  11
HETATM   11  N3  UNL     1      23.143   3.234  52.133  1.00  0.00    -0.340 N 
HETATM   12  H6  UNL     1      22.982   3.712  53.047  1.00  0.00     0.167 HD
BRANCH  11  13
HETATM   13  C7  UNL     1      23.262   3.970  50.939  1.00  0.00     0.035 A 
HETATM   14  C8  UNL     1      22.269   4.444  50.127  1.00  0.00     0.029 A 
HETATM   15  C9  UNL     1      22.517   5.147  48.957  1.00  0.00     0.004 A 
HETATM   16  C10 UNL     1      23.838   5.363  48.622  1.00  0.00     0.019 A 
HETATM   17  C11 UNL     1      24.885   4.910  49.401  1.00  0.00     0.013 A 
HETATM   18 BR1  UNL     1      26.722   5.218  48.922  1.00  0.00    -0.051 Br
HETATM   19  C12 UNL     1      24.555   4.230  50.531  1.00  0.00     0.048 A 
ENDBRANCH  11  13
ENDBRANCH   7  11
BRANCH  10  20
HETATM   20  O2  UNL     1      27.688   2.392  54.270  1.00  0.00    -0.353 OA
HETATM   21  C16 UNL     1      28.687   2.583  53.315  1.00  0.00     0.210 C 
ENDBRANCH  10  20
BRANCH   1  22
HETATM   22  O1  UNL     1      27.708  -0.206  54.933  1.00  0.00    -0.353 OA
HETATM   23  C1  UNL     1      28.686  -0.823  54.118  1.00  0.00     0.210 C 
ENDBRANCH   1  22
TORSDOF 4
ENDMDL
MODEL 6
REMARK VINA RESULT:      -7.2      5.077      6.862
REMARK  4 active torsions:
REMARK  status: ('A' for Active; 'I' for Inactive)
REMARK    1  A    between atoms: O1_2  and  C2_3 
REMARK    2  A    between atoms: C6_9  and  N3_10 
REMARK    3  A    between atoms: N3_10  and  C7_11 
REMARK    4  A    between atoms: C15_20  and  O2_21 
ROOT
HETATM    1  C2  UNL     1      25.881   0.639  53.272  1.00  0.00     0.103 A 
HETATM    2  C3  UNL     1      24.644   0.834  52.747  1.00  0.00     0.072 A 
HETATM    3  C4  UNL     1      24.387   1.620  51.641  1.00  0.00     0.075 A 
HETATM    4  N1  UNL     1      23.239   1.904  51.011  1.00  0.00    -0.241 NA
HETATM    5  C5  UNL     1      23.108   2.672  49.952  1.00  0.00     0.236 A 
HETATM    6  N2  UNL     1      24.179   3.274  49.375  1.00  0.00    -0.224 NA
HETATM    7  C6  UNL     1      25.400   3.064  49.921  1.00  0.00     0.142 A 
HETATM    8  C13 UNL     1      25.492   2.237  51.050  1.00  0.00     0.042 A 
HETATM    9  C14 UNL     1      26.744   2.039  51.585  1.00  0.00     0.057 A 
HETATM   10  C15 UNL     1      26.998   1.251  52.692  1.00  0.00     0.102 A 
ENDROOT
BRANCH   7  11
HETATM   11  N3  UNL     1      26.548   3.674  49.355  1.00  0.00    -0.340 N 
HETATM   12  H6  UNL     1      27.251   2.901  49.353  1.00  0.00     0.167 HD
BRANCH  11  13
HETATM   13  C7  UNL     1      26.876   4.956  48.875  1.00  0.00     0.035 A 
HETATM   14  C8  UNL     1      26.055   6.033  48.689  1.00  0.00     0.029 A 
HETATM   15  C9  UNL     1      26.500   7.249  48.189  1.00  0.00     0.004 A 
HETATM   16  C10 UNL     1      27.838   7.346  47.872  1.00  0.00     0.019 A 
HETATM   17  C11 UNL     1      28.718   6.293  48.038  1.00  0.00     0.013 A 
HETATM   18 BR1  UNL     1      30.584   6.442  47.592  1.00  0.00    -0.051 Br
HETATM   19  C12 UNL     1      28.202   5.138  48.534  1.00  0.00     0.048 A 
ENDBRANCH  11  13
ENDBRANCH   7  11
BRANCH  10  20
HETATM   20  O2  UNL     1      28.184   0.958  53.340  1.00  0.00    -0.353 OA
HETATM   21  C16 UNL     1      28.926   1.965  53.959  1.00  0.00     0.210 C 
ENDBRANCH  10  20
BRANCH   1  22
HETATM   22  O1  UNL     1      25.994  -0.178  54.391  1.00  0.00    -0.353 OA
HETATM   23  C1  UNL     1      24.829  -0.813  54.881  1.00  0.00     0.210 C 
ENDBRANCH   1  22
TORSDOF 4
ENDMDL
MODEL 7
REMARK VINA RESULT:      -7.0      4.382      5.445
REMARK  4 active torsions:
REMARK  status: ('A' for Active; 'I' for Inactive)
REMARK    1  A    between atoms: O1_2  and  C2_3 
REMARK    2  A    between atoms: C6_9  and  N3_10 
REMARK    3  A    between atoms: N3_10  and  C7_11 
REMARK    4  A    between atoms: C15_20  and  O2_21 
ROOT
HETATM    1  C2  UNL     1      22.376   1.805  51.810  1.00  0.00     0.103 A 
HETATM    2  C3  UNL     1      23.374   1.577  52.702  1.00  0.00     0.072 A 
HETATM    3  C4  UNL     1      24.704   1.865  52.467  1.00  0.00     0.075 A 
HETATM    4  N1  UNL     1      25.789   1.703  53.237  1.00  0.00    -0.241 NA
HETATM    5  C5  UNL     1      27.023   2.018  52.910  1.00  0.00     0.236 A 
HETATM    6  N2  UNL     1      27.320   2.563  51.704  1.00  0.00    -0.224 NA
HETATM    7  C6  UNL     1      26.306   2.777  50.833  1.00  0.00     0.142 A 
HETATM    8  C13 UNL     1      25.006   2.426  51.224  1.00  0.00     0.042 A 
HETATM    9  C14 UNL     1      23.993   2.656  50.321  1.00  0.00     0.057 A 
HETATM   10  C15 UNL     1      22.662   2.366  50.560  1.00  0.00     0.102 A 
ENDROOT
BRANCH   7  11
HETATM   11  N3  UNL     1      26.568   3.342  49.559  1.00  0.00    -0.340 N 
HETATM   12  H6  UNL     1      26.635   2.506  48.937  1.00  0.00     0.167 HD
BRANCH  11  13
HETATM   13  C7  UNL     1      26.746   4.642  49.049  1.00  0.00     0.035 A 
HETATM   14  C8  UNL     1      25.813   5.628  48.882  1.00  0.00     0.029 A 
HETATM   15  C9  UNL     1      26.113   6.873  48.348  1.00  0.00     0.004 A 
HETATM   16  C10 UNL     1      27.422   7.099  47.976  1.00  0.00     0.019 A 
HETATM   17  C11 UNL     1      28.410   6.144  48.121  1.00  0.00     0.013 A 
HETATM   18 BR1  UNL     1      30.232   6.472  47.599  1.00  0.00    -0.051 Br
HETATM   19  C12 UNL     1      28.032   4.951  48.653  1.00  0.00     0.048 A 
ENDBRANCH  11  13
ENDBRANCH   7  11
BRANCH  10  20
HETATM   20  O2  UNL     1      21.544   2.536  49.764  1.00  0.00    -0.353 OA
HETATM   21  C16 UNL     1      21.338   1.730  48.645  1.00  0.00     0.210 C 
ENDBRANCH  10  20
BRANCH   1  22
HETATM   22  O1  UNL     1      21.080   1.466  52.179  1.00  0.00    -0.353 OA
HETATM   23  C1  UNL     1      20.894   0.689  53.347  1.00  0.00     0.210 C 
ENDBRANCH   1  22
TORSDOF 4
ENDMDL
MODEL 8
REMARK VINA RESULT:      -7.0      3.587      6.546
REMARK  4 active torsions:
REMARK  status: ('A' for Active; 'I' for Inactive)
REMARK    1  A    between atoms: O1_2  and  C2_3 
REMARK    2  A    between atoms: C6_9  and  N3_10 
REMARK    3  A    between atoms: N3_10  and  C7_11 
REMARK    4  A    between atoms: C15_20  and  O2_21 
ROOT
HETATM    1  C2  UNL     1      26.606   0.241  53.405  1.00  0.00     0.103 A 
HETATM    2  C3  UNL     1      25.914  -0.453  54.345  1.00  0.00     0.072 A 
HETATM    3  C4  UNL     1      24.543  -0.621  54.333  1.00  0.00     0.075 A 
HETATM    4  N1  UNL     1      23.728  -1.270  55.175  1.00  0.00    -0.241 NA
HETATM    5  C5  UNL     1      22.422  -1.369  55.064  1.00  0.00     0.236 A 
HETATM    6  N2  UNL     1      21.751  -0.792  54.035  1.00  0.00    -0.224 NA
HETATM    7  C6  UNL     1      22.466  -0.105  53.114  1.00  0.00     0.142 A 
HETATM    8  C13 UNL     1      23.857  -0.025  53.272  1.00  0.00     0.042 A 
HETATM    9  C14 UNL     1      24.560   0.678  52.320  1.00  0.00     0.057 A 
HETATM   10  C15 UNL     1      25.932   0.843  52.336  1.00  0.00     0.102 A 
ENDROOT
BRANCH   7  11
HETATM   11  N3  UNL     1      21.808   0.517  52.022  1.00  0.00    -0.340 N 
HETATM   12  H6  UNL     1      22.131  -0.041  51.200  1.00  0.00     0.167 HD
BRANCH  11  13
HETATM   13  C7  UNL     1      20.934   1.609  51.860  1.00  0.00     0.035 A 
HETATM   14  C8  UNL     1      19.567   1.610  51.833  1.00  0.00     0.029 A 
HETATM   15  C9  UNL     1      18.813   2.760  51.647  1.00  0.00     0.004 A 
HETATM   16  C10 UNL     1      19.502   3.943  51.485  1.00  0.00     0.019 A 
HETATM   17  C11 UNL     1      20.882   4.007  51.503  1.00  0.00     0.013 A 
HETATM   18 BR1  UNL     1      21.831   5.665  51.276  1.00  0.00    -0.051 Br
HETATM   19  C12 UNL     1      21.544   2.835  51.691  1.00  0.00     0.048 A 
ENDBRANCH  11  13
ENDBRANCH   7  11
BRANCH  10  20
HETATM   20  O2  UNL     1      26.771   1.513  51.465  1.00  0.00    -0.353 OA
HETATM   21  C16 UNL     1      26.352   2.683  50.830  1.00  0.00     0.210 C 
ENDBRANCH  10  20
BRANCH   1  22
HETATM   22  O1  UNL     1      27.985   0.330  53.542  1.00  0.00    -0.353 OA
HETATM   23  C1  UNL     1      28.539   0.257  54.842  1.00  0.00     0.210 C 
ENDBRANCH   1  22
TORSDOF 4
ENDMDL
MODEL 9
REMARK VINA RESULT:      -6.8      4.069      6.804
REMARK  4 active torsions:
REMARK  status: ('A' for Active; 'I' for Inactive)
REMARK    1  A    between atoms: O1_2  and  C2_3 
REMARK    2  A    between atoms: C6_9  and  N3_10 
REMARK    3  A    between atoms: N3_10  and  C7_11 
REMARK    4  A    between atoms: C15_20  and  O2_21 
ROOT
HETATM    1  C2  UNL     1      25.558   4.526  49.513  1.00  0.00     0.103 A 
HETATM    2  C3  UNL     1      26.535   3.752  50.051  1.00  0.00     0.072 A 
HETATM    3  C4  UNL     1      26.311   2.759  50.984  1.00  0.00     0.075 A 
HETATM    4  N1  UNL     1      27.157   1.921  51.598  1.00  0.00    -0.241 NA
HETATM    5  C5  UNL     1      26.832   1.001  52.479  1.00  0.00     0.236 A 
HETATM    6  N2  UNL     1      25.545   0.811  52.863  1.00  0.00    -0.224 NA
HETATM    7  C6  UNL     1      24.591   1.599  52.313  1.00  0.00     0.142 A 
HETATM    8  C13 UNL     1      24.984   2.567  51.378  1.00  0.00     0.042 A 
HETATM    9  C14 UNL     1      23.996   3.354  50.832  1.00  0.00     0.057 A 
HETATM   10  C15 UNL     1      24.224   4.347  49.897  1.00  0.00     0.102 A 
ENDROOT
BRANCH   7  11
HETATM   11  N3  UNL     1      23.232   1.440  52.686  1.00  0.00    -0.340 N 
HETATM   12  H6  UNL     1      22.808   2.362  52.441  1.00  0.00     0.167 HD
BRANCH  11  13
HETATM   13  C7  UNL     1      22.458   0.415  53.261  1.00  0.00     0.035 A 
HETATM   14  C8  UNL     1      22.840  -0.540  54.163  1.00  0.00     0.029 A 
HETATM   15  C9  UNL     1      21.979  -1.516  54.645  1.00  0.00     0.004 A 
HETATM   16  C10 UNL     1      20.683  -1.498  54.174  1.00  0.00     0.019 A 
HETATM   17  C11 UNL     1      20.236  -0.560  53.264  1.00  0.00     0.013 A 
HETATM   18 BR1  UNL     1      18.425  -0.546  52.616  1.00  0.00    -0.051 Br
HETATM   19  C12 UNL     1      21.143   0.361  52.843  1.00  0.00     0.048 A 
ENDBRANCH  11  13
ENDBRANCH   7  11
BRANCH  10  20
HETATM   20  O2  UNL     1      23.348   5.210  49.265  1.00  0.00    -0.353 OA
HETATM   21  C16 UNL     1      22.572   4.776  48.190  1.00  0.00     0.210 C 
ENDBRANCH  10  20
BRANCH   1  22
HETATM   22  O1  UNL     1      25.926   5.491  48.583  1.00  0.00    -0.353 OA
HETATM   23  C1  UNL     1      26.527   6.683  49.051  1.00  0.00     0.210 C 
ENDBRANCH   1  22
TORSDOF 4
ENDMDL
