MODEL 1
REMARK VINA RESULT:      -6.3      0.000      0.000
REMARK  7 active torsions:
REMARK  status: ('A' for Active; 'I' for Inactive)
REMARK    1  A    between atoms: S1_3  and  C3_4 
REMARK    2  A    between atoms: C4_5  and  C5_6 
REMARK    3  A    between atoms: C4_5  and  P1_10 
REMARK    4  A    between atoms: C5_6  and  C6_7 
REMARK    5  A    between atoms: P1_10  and  N1_11 
REMARK    6  A    between atoms: N1_11  and  S2_12 
REMARK    7  A    between atoms: S2_12  and  C9_15 
ROOT
HETATM    1  C1  UNL     1      21.231   7.688  50.110  1.00  0.00     0.025 C 
HETATM    2  C2  UNL     1      21.969   6.885  50.650  1.00  0.00    -0.041 C 
HETATM    3  S1  UNL     1      23.067   5.721  51.419  1.00  0.00    -0.051 SA
ENDROOT
BRANCH   3   4
HETATM    4  C3  UNL     1      22.530   4.044  51.136  1.00  0.00     0.068 C 
HETATM    5  C4  UNL     1      23.038   2.818  51.034  1.00  0.00    -0.033 C 
BRANCH   5   6
HETATM    6  C5  UNL     1      22.293   1.578  50.784  1.00  0.00     0.044 C 
BRANCH   6   7
HETATM    7  C6  UNL     1      21.186   1.697  49.801  1.00  0.00    -0.018 C 
HETATM    8  C7  UNL     1      19.925   1.004  50.188  1.00  0.00     0.010 C 
HETATM    9  C8  UNL     1      21.665   1.322  48.405  1.00  0.00     0.010 C 
ENDBRANCH   6   7
ENDBRANCH   5   6
BRANCH   5  10
HETATM   10  P1  UNL     1      24.860   2.711  51.232  1.00  0.00    -0.010 P 
HETATM   11  H12 UNL     1      25.463   4.052  51.211  1.00  0.00     0.079 HD
BRANCH  10  12
HETATM   12  N1  UNL     1      25.289   1.978  52.799  1.00  0.00    -0.188 NA
HETATM   13  H13 UNL     1      24.774   1.105  53.021  1.00  0.00     0.145 HD
BRANCH  12  14
HETATM   14  S2  UNL     1      26.999   1.821  52.987  1.00  0.00     0.245 S 
HETATM   15  O1  UNL     1      27.459   2.339  54.311  1.00  0.00    -0.206 OA
HETATM   16  O2  UNL     1      27.723   2.584  51.926  1.00  0.00    -0.206 OA
BRANCH  14  17
HETATM   17  C9  UNL     1      27.401   0.122  52.894  1.00  0.00     0.074 A 
HETATM   18  C10 UNL     1      26.583  -0.867  52.402  1.00  0.00     0.025 A 
HETATM   19  C11 UNL     1      27.026  -2.176  52.386  1.00  0.00     0.002 A 
HETATM   20  C12 UNL     1      28.286  -2.532  52.855  1.00  0.00     0.000 A 
HETATM   21  C13 UNL     1      29.138  -1.553  53.359  1.00  0.00     0.002 A 
HETATM   22  C14 UNL     1      28.661  -0.251  53.360  1.00  0.00     0.025 A 
ENDBRANCH  14  17
ENDBRANCH  12  14
ENDBRANCH  10  12
ENDBRANCH   5  10
ENDBRANCH   3   4
TORSDOF 7
ENDMDL
MODEL 2
REMARK VINA RESULT:      -6.3      3.566      6.167
REMARK  7 active torsions:
REMARK  status: ('A' for Active; 'I' for Inactive)
REMARK    1  A    between atoms: S1_3  and  C3_4 
REMARK    2  A    between atoms: C4_5  and  C5_6 
REMARK    3  A    between atoms: C4_5  and  P1_10 
REMARK    4  A    between atoms: C5_6  and  C6_7 
REMARK    5  A    between atoms: P1_10  and  N1_11 
REMARK    6  A    between atoms: N1_11  and  S2_12 
REMARK    7  A    between atoms: S2_12  and  C9_15 
ROOT
HETATM    1  C1  UNL     1      28.308   2.476  53.819  1.00  0.00     0.025 C 
HETATM    2  C2  UNL     1      27.753   1.679  53.085  1.00  0.00    -0.041 C 
HETATM    3  S1  UNL     1      26.941   0.538  51.994  1.00  0.00    -0.051 SA
ENDROOT
BRANCH   3   4
HETATM    4  C3  UNL     1      25.380   0.001  52.668  1.00  0.00     0.068 C 
HETATM    5  C4  UNL     1      24.194   0.500  53.004  1.00  0.00    -0.033 C 
BRANCH   5   6
HETATM    6  C5  UNL     1      23.056  -0.241  53.563  1.00  0.00     0.044 C 
BRANCH   6   7
HETATM    7  C6  UNL     1      21.746   0.451  53.462  1.00  0.00    -0.018 C 
HETATM    8  C7  UNL     1      20.886   0.349  54.675  1.00  0.00     0.010 C 
HETATM    9  C8  UNL     1      21.021   0.045  52.185  1.00  0.00     0.010 C 
ENDBRANCH   6   7
ENDBRANCH   5   6
BRANCH   5  10
HETATM   10  P1  UNL     1      24.000   2.304  52.724  1.00  0.00    -0.010 P 
HETATM   11  H12 UNL     1      25.225   3.022  53.105  1.00  0.00     0.079 HD
BRANCH  10  12
HETATM   12  N1  UNL     1      23.714   2.654  50.999  1.00  0.00    -0.188 NA
HETATM   13  H13 UNL     1      22.943   2.107  50.571  1.00  0.00     0.145 HD
BRANCH  12  14
HETATM   14  S2  UNL     1      23.583   4.351  50.702  1.00  0.00     0.245 S 
HETATM   15  O1  UNL     1      23.472   5.127  51.973  1.00  0.00    -0.206 OA
HETATM   16  O2  UNL     1      22.373   4.654  49.878  1.00  0.00    -0.206 OA
BRANCH  14  17
HETATM   17  C9  UNL     1      25.029   4.869  49.868  1.00  0.00     0.074 A 
HETATM   18  C10 UNL     1      25.264   6.135  49.388  1.00  0.00     0.025 A 
HETATM   19  C11 UNL     1      26.455   6.413  48.745  1.00  0.00     0.002 A 
HETATM   20  C12 UNL     1      27.436   5.444  48.563  1.00  0.00     0.000 A 
HETATM   21  C13 UNL     1      27.228   4.152  49.039  1.00  0.00     0.002 A 
HETATM   22  C14 UNL     1      26.022   3.909  49.679  1.00  0.00     0.025 A 
ENDBRANCH  14  17
ENDBRANCH  12  14
ENDBRANCH  10  12
ENDBRANCH   5  10
ENDBRANCH   3   4
TORSDOF 7
ENDMDL
MODEL 3
REMARK VINA RESULT:      -6.2      3.602      7.244
REMARK  7 active torsions:
REMARK  status: ('A' for Active; 'I' for Inactive)
REMARK    1  A    between atoms: S1_3  and  C3_4 
REMARK    2  A    between atoms: C4_5  and  C5_6 
REMARK    3  A    between atoms: C4_5  and  P1_10 
REMARK    4  A    between atoms: C5_6  and  C6_7 
REMARK    5  A    between atoms: P1_10  and  N1_11 
REMARK    6  A    between atoms: N1_11  and  S2_12 
REMARK    7  A    between atoms: S2_12  and  C9_15 
ROOT
HETATM    1  C1  UNL     1      29.272  -1.681  53.165  1.00  0.00     0.025 C 
HETATM    2  C2  UNL     1      28.514  -0.845  53.621  1.00  0.00    -0.041 C 
HETATM    3  S1  UNL     1      27.397   0.354  54.303  1.00  0.00    -0.051 SA
ENDROOT
BRANCH   3   4
HETATM    4  C3  UNL     1      26.174   0.853  53.105  1.00  0.00     0.068 C 
HETATM    5  C4  UNL     1      24.882   0.683  52.841  1.00  0.00    -0.033 C 
BRANCH   5   6
HETATM    6  C5  UNL     1      24.132   1.258  51.717  1.00  0.00     0.044 C 
BRANCH   6   7
HETATM    7  C6  UNL     1      24.264   2.729  51.562  1.00  0.00    -0.018 C 
HETATM    8  C7  UNL     1      23.724   3.532  52.696  1.00  0.00     0.010 C 
HETATM    9  C8  UNL     1      23.726   3.176  50.209  1.00  0.00     0.010 C 
ENDBRANCH   6   7
ENDBRANCH   5   6
BRANCH   5  10
HETATM   10  P1  UNL     1      23.980  -0.389  54.028  1.00  0.00    -0.010 P 
HETATM   11  H12 UNL     1      23.419   0.413  55.126  1.00  0.00     0.079 HD
BRANCH  10  12
HETATM   12  N1  UNL     1      22.608  -1.205  53.234  1.00  0.00    -0.188 NA
HETATM   13  H13 UNL     1      22.596  -2.237  53.349  1.00  0.00     0.145 HD
BRANCH  12  14
HETATM   14  S2  UNL     1      21.100  -0.464  53.635  1.00  0.00     0.245 S 
HETATM   15  O1  UNL     1      21.177   0.278  54.930  1.00  0.00    -0.206 OA
HETATM   16  O2  UNL     1      20.021  -1.490  53.764  1.00  0.00    -0.206 OA
BRANCH  14  17
HETATM   17  C9  UNL     1      20.703   0.677  52.372  1.00  0.00     0.074 A 
HETATM   18  C10 UNL     1      20.684   0.404  51.025  1.00  0.00     0.025 A 
HETATM   19  C11 UNL     1      20.351   1.401  50.129  1.00  0.00     0.002 A 
HETATM   20  C12 UNL     1      20.032   2.689  50.547  1.00  0.00     0.000 A 
HETATM   21  C13 UNL     1      20.042   2.997  51.905  1.00  0.00     0.002 A 
HETATM   22  C14 UNL     1      20.380   1.972  52.775  1.00  0.00     0.025 A 
ENDBRANCH  14  17
ENDBRANCH  12  14
ENDBRANCH  10  12
ENDBRANCH   5  10
ENDBRANCH   3   4
TORSDOF 7
ENDMDL
MODEL 4
REMARK VINA RESULT:      -6.1      2.958      4.087
REMARK  7 active torsions:
REMARK  status: ('A' for Active; 'I' for Inactive)
REMARK    1  A    between atoms: S1_3  and  C3_4 
REMARK    2  A    between atoms: C4_5  and  C5_6 
REMARK    3  A    between atoms: C4_5  and  P1_10 
REMARK    4  A    between atoms: C5_6  and  C6_7 
REMARK    5  A    between atoms: P1_10  and  N1_11 
REMARK    6  A    between atoms: N1_11  and  S2_12 
REMARK    7  A    between atoms: S2_12  and  C9_15 
ROOT
HETATM    1  C1  UNL     1      28.259   5.376  48.297  1.00  0.00     0.025 C 
HETATM    2  C2  UNL     1      27.247   5.937  48.676  1.00  0.00    -0.041 C 
HETATM    3  S1  UNL     1      25.782   6.756  49.255  1.00  0.00    -0.051 SA
ENDROOT
BRANCH   3   4
HETATM    4  C3  UNL     1      24.374   5.663  49.216  1.00  0.00     0.068 C 
HETATM    5  C4  UNL     1      24.026   4.440  49.608  1.00  0.00    -0.033 C 
BRANCH   5   6
HETATM    6  C5  UNL     1      22.721   3.795  49.417  1.00  0.00     0.044 C 
BRANCH   6   7
HETATM    7  C6  UNL     1      22.669   2.797  48.318  1.00  0.00    -0.018 C 
HETATM    8  C7  UNL     1      22.159   3.320  47.019  1.00  0.00     0.010 C 
HETATM    9  C8  UNL     1      21.949   1.535  48.774  1.00  0.00     0.010 C 
ENDBRANCH   6   7
ENDBRANCH   5   6
BRANCH   5  10
HETATM   10  P1  UNL     1      25.342   3.496  50.473  1.00  0.00    -0.010 P 
HETATM   11  H12 UNL     1      26.635   4.186  50.358  1.00  0.00     0.079 HD
BRANCH  10  12
HETATM   12  N1  UNL     1      24.986   3.355  52.214  1.00  0.00    -0.188 NA
HETATM   13  H13 UNL     1      23.997   3.543  52.468  1.00  0.00     0.145 HD
BRANCH  12  14
HETATM   14  S2  UNL     1      25.583   1.875  52.874  1.00  0.00     0.245 S 
HETATM   15  O1  UNL     1      26.217   2.082  54.211  1.00  0.00    -0.206 OA
HETATM   16  O2  UNL     1      26.611   1.269  51.974  1.00  0.00    -0.206 OA
BRANCH  14  17
HETATM   17  C9  UNL     1      24.231   0.784  53.071  1.00  0.00     0.074 A 
HETATM   18  C10 UNL     1      24.166  -0.252  53.972  1.00  0.00     0.025 A 
HETATM   19  C11 UNL     1      23.034  -1.042  54.025  1.00  0.00     0.002 A 
HETATM   20  C12 UNL     1      21.945  -0.823  53.188  1.00  0.00     0.000 A 
HETATM   21  C13 UNL     1      21.980   0.219  52.266  1.00  0.00     0.002 A 
HETATM   22  C14 UNL     1      23.131   0.992  52.240  1.00  0.00     0.025 A 
ENDBRANCH  14  17
ENDBRANCH  12  14
ENDBRANCH  10  12
ENDBRANCH   5  10
ENDBRANCH   3   4
TORSDOF 7
ENDMDL
MODEL 5
REMARK VINA RESULT:      -5.9      3.902      5.270
REMARK  7 active torsions:
REMARK  status: ('A' for Active; 'I' for Inactive)
REMARK    1  A    between atoms: S1_3  and  C3_4 
REMARK    2  A    between atoms: C4_5  and  C5_6 
REMARK    3  A    between atoms: C4_5  and  P1_10 
REMARK    4  A    between atoms: C5_6  and  C6_7 
REMARK    5  A    between atoms: P1_10  and  N1_11 
REMARK    6  A    between atoms: N1_11  and  S2_12 
REMARK    7  A    between atoms: S2_12  and  C9_15 
ROOT
HETATM    1  C1  UNL     1      21.074   4.342  45.747  1.00  0.00     0.025 C 
HETATM    2  C2  UNL     1      21.304   4.620  46.910  1.00  0.00    -0.041 C 
HETATM    3  S1  UNL     1      21.627   5.052  48.602  1.00  0.00    -0.051 SA
ENDROOT
BRANCH   3   4
HETATM    4  C3  UNL     1      23.374   5.258  48.893  1.00  0.00     0.068 C 
HETATM    5  C4  UNL     1      24.234   5.325  49.905  1.00  0.00    -0.033 C 
BRANCH   5   6
HETATM    6  C5  UNL     1      25.688   5.511  49.812  1.00  0.00     0.044 C 
BRANCH   6   7
HETATM    7  C6  UNL     1      26.411   4.446  49.071  1.00  0.00    -0.018 C 
HETATM    8  C7  UNL     1      26.483   3.132  49.771  1.00  0.00     0.010 C 
HETATM    9  C8  UNL     1      27.772   4.946  48.606  1.00  0.00     0.010 C 
ENDBRANCH   6   7
ENDBRANCH   5   6
BRANCH   5  10
HETATM   10  P1  UNL     1      23.486   5.162  51.574  1.00  0.00    -0.010 P 
HETATM   11  H12 UNL     1      22.025   5.309  51.503  1.00  0.00     0.079 HD
BRANCH  10  12
HETATM   12  N1  UNL     1      23.808   3.550  52.264  1.00  0.00    -0.188 NA
HETATM   13  H13 UNL     1      23.997   3.549  53.284  1.00  0.00     0.145 HD
BRANCH  12  14
HETATM   14  S2  UNL     1      22.606   2.401  51.798  1.00  0.00     0.245 S 
HETATM   15  O1  UNL     1      22.851   1.872  50.422  1.00  0.00    -0.206 OA
HETATM   16  O2  UNL     1      21.246   3.020  51.809  1.00  0.00    -0.206 OA
BRANCH  14  17
HETATM   17  C9  UNL     1      22.672   1.061  52.919  1.00  0.00     0.074 A 
HETATM   18  C10 UNL     1      23.808   0.380  53.284  1.00  0.00     0.025 A 
HETATM   19  C11 UNL     1      23.721  -0.665  54.184  1.00  0.00     0.002 A 
HETATM   20  C12 UNL     1      22.507  -1.055  54.741  1.00  0.00     0.000 A 
HETATM   21  C13 UNL     1      21.338  -0.384  54.392  1.00  0.00     0.002 A 
HETATM   22  C14 UNL     1      21.463   0.659  53.487  1.00  0.00     0.025 A 
ENDBRANCH  14  17
ENDBRANCH  12  14
ENDBRANCH  10  12
ENDBRANCH   5  10
ENDBRANCH   3   4
TORSDOF 7
ENDMDL
MODEL 6
REMARK VINA RESULT:      -5.9      2.902      6.506
REMARK  7 active torsions:
REMARK  status: ('A' for Active; 'I' for Inactive)
REMARK    1  A    between atoms: S1_3  and  C3_4 
REMARK    2  A    between atoms: C4_5  and  C5_6 
REMARK    3  A    between atoms: C4_5  and  P1_10 
REMARK    4  A    between atoms: C5_6  and  C6_7 
REMARK    5  A    between atoms: P1_10  and  N1_11 
REMARK    6  A    between atoms: N1_11  and  S2_12 
REMARK    7  A    between atoms: S2_12  and  C9_15 
ROOT
HETATM    1  C1  UNL     1      25.186   6.035  50.259  1.00  0.00     0.025 C 
HETATM    2  C2  UNL     1      25.623   4.914  50.077  1.00  0.00    -0.041 C 
HETATM    3  S1  UNL     1      26.235   3.270  49.804  1.00  0.00    -0.051 SA
ENDROOT
BRANCH   3   4
HETATM    4  C3  UNL     1      26.784   2.524  51.328  1.00  0.00     0.068 C 
HETATM    5  C4  UNL     1      26.294   1.843  52.359  1.00  0.00    -0.033 C 
BRANCH   5   6
HETATM    6  C5  UNL     1      27.045   1.345  53.519  1.00  0.00     0.044 C 
BRANCH   6   7
HETATM    7  C6  UNL     1      27.979   0.228  53.228  1.00  0.00    -0.018 C 
HETATM    8  C7  UNL     1      27.325  -1.077  52.927  1.00  0.00     0.010 C 
HETATM    9  C8  UNL     1      29.043   0.122  54.313  1.00  0.00     0.010 C 
ENDBRANCH   6   7
ENDBRANCH   5   6
BRANCH   5  10
HETATM   10  P1  UNL     1      24.489   1.513  52.288  1.00  0.00    -0.010 P 
HETATM   11  H12 UNL     1      24.105   0.514  53.296  1.00  0.00     0.079 HD
BRANCH  10  12
HETATM   12  N1  UNL     1      23.557   2.990  52.645  1.00  0.00    -0.188 NA
HETATM   13  H13 UNL     1      24.027   3.873  52.370  1.00  0.00     0.145 HD
BRANCH  12  14
HETATM   14  S2  UNL     1      21.933   2.880  52.067  1.00  0.00     0.245 S 
HETATM   15  O1  UNL     1      21.189   4.160  52.262  1.00  0.00    -0.206 OA
HETATM   16  O2  UNL     1      21.184   1.806  52.787  1.00  0.00    -0.206 OA
BRANCH  14  17
HETATM   17  C9  UNL     1      21.989   2.535  50.354  1.00  0.00     0.074 A 
HETATM   18  C10 UNL     1      21.642   1.342  49.767  1.00  0.00     0.025 A 
HETATM   19  C11 UNL     1      21.733   1.201  48.396  1.00  0.00     0.002 A 
HETATM   20  C12 UNL     1      22.170   2.238  47.578  1.00  0.00     0.000 A 
HETATM   21  C13 UNL     1      22.529   3.460  48.142  1.00  0.00     0.002 A 
HETATM   22  C14 UNL     1      22.425   3.565  49.521  1.00  0.00     0.025 A 
ENDBRANCH  14  17
ENDBRANCH  12  14
ENDBRANCH  10  12
ENDBRANCH   5  10
ENDBRANCH   3   4
TORSDOF 7
ENDMDL
MODEL 7
REMARK VINA RESULT:      -5.8      4.042      7.594
REMARK  7 active torsions:
REMARK  status: ('A' for Active; 'I' for Inactive)
REMARK    1  A    between atoms: S1_3  and  C3_4 
REMARK    2  A    between atoms: C4_5  and  C5_6 
REMARK    3  A    between atoms: C4_5  and  P1_10 
REMARK    4  A    between atoms: C5_6  and  C6_7 
REMARK    5  A    between atoms: P1_10  and  N1_11 
REMARK    6  A    between atoms: N1_11  and  S2_12 
REMARK    7  A    between atoms: S2_12  and  C9_15 
ROOT
HETATM    1  C1  UNL     1      22.768   2.438  48.702  1.00  0.00     0.025 C 
HETATM    2  C2  UNL     1      23.078   2.653  49.859  1.00  0.00    -0.041 C 
HETATM    3  S1  UNL     1      23.549   2.988  51.538  1.00  0.00    -0.051 SA
ENDROOT
BRANCH   3   4
HETATM    4  C3  UNL     1      24.388   1.591  52.263  1.00  0.00     0.068 C 
HETATM    5  C4  UNL     1      24.114   0.487  52.951  1.00  0.00    -0.033 C 
BRANCH   5   6
HETATM    6  C5  UNL     1      25.078  -0.514  53.427  1.00  0.00     0.044 C 
BRANCH   6   7
HETATM    7  C6  UNL     1      26.483  -0.041  53.510  1.00  0.00    -0.018 C 
HETATM    8  C7  UNL     1      27.476  -0.892  52.794  1.00  0.00     0.010 C 
HETATM    9  C8  UNL     1      26.872   0.234  54.956  1.00  0.00     0.010 C 
ENDBRANCH   6   7
ENDBRANCH   5   6
BRANCH   5  10
HETATM   10  P1  UNL     1      22.336   0.223  53.323  1.00  0.00    -0.010 P 
HETATM   11  H12 UNL     1      21.750   1.426  53.933  1.00  0.00     0.079 HD
BRANCH  10  12
HETATM   12  N1  UNL     1      21.413  -0.099  51.832  1.00  0.00    -0.188 NA
HETATM   13  H13 UNL     1      21.228  -1.104  51.648  1.00  0.00     0.145 HD
BRANCH  12  14
HETATM   14  S2  UNL     1      19.992   0.878  51.732  1.00  0.00     0.245 S 
HETATM   15  O1  UNL     1      19.839   1.493  50.379  1.00  0.00    -0.206 OA
HETATM   16  O2  UNL     1      20.040   1.989  52.732  1.00  0.00    -0.206 OA
BRANCH  14  17
HETATM   17  C9  UNL     1      18.607  -0.146  52.029  1.00  0.00     0.074 A 
HETATM   18  C10 UNL     1      17.434  -0.132  51.312  1.00  0.00     0.025 A 
HETATM   19  C11 UNL     1      16.413  -0.997  51.653  1.00  0.00     0.002 A 
HETATM   20  C12 UNL     1      16.531  -1.893  52.711  1.00  0.00     0.000 A 
HETATM   21  C13 UNL     1      17.707  -1.932  53.456  1.00  0.00     0.002 A 
HETATM   22  C14 UNL     1      18.710  -1.050  53.086  1.00  0.00     0.025 A 
ENDBRANCH  14  17
ENDBRANCH  12  14
ENDBRANCH  10  12
ENDBRANCH   5  10
ENDBRANCH   3   4
TORSDOF 7
ENDMDL
MODEL 8
REMARK VINA RESULT:      -5.8      2.680      3.583
REMARK  7 active torsions:
REMARK  status: ('A' for Active; 'I' for Inactive)
REMARK    1  A    between atoms: S1_3  and  C3_4 
REMARK    2  A    between atoms: C4_5  and  C5_6 
REMARK    3  A    between atoms: C4_5  and  P1_10 
REMARK    4  A    between atoms: C5_6  and  C6_7 
REMARK    5  A    between atoms: P1_10  and  N1_11 
REMARK    6  A    between atoms: N1_11  and  S2_12 
REMARK    7  A    between atoms: S2_12  and  C9_15 
ROOT
HETATM    1  C1  UNL     1      20.116   2.739  47.941  1.00  0.00     0.025 C 
HETATM    2  C2  UNL     1      21.059   2.461  48.660  1.00  0.00    -0.041 C 
HETATM    3  S1  UNL     1      22.441   2.034  49.689  1.00  0.00    -0.051 SA
ENDROOT
BRANCH   3   4
HETATM    4  C3  UNL     1      21.900   1.421  51.274  1.00  0.00     0.068 C 
HETATM    5  C4  UNL     1      22.330   1.331  52.529  1.00  0.00    -0.033 C 
BRANCH   5   6
HETATM    6  C5  UNL     1      21.610   0.738  53.664  1.00  0.00     0.044 C 
BRANCH   6   7
HETATM    7  C6  UNL     1      21.064  -0.621  53.420  1.00  0.00    -0.018 C 
HETATM    8  C7  UNL     1      19.576  -0.703  53.381  1.00  0.00     0.010 C 
HETATM    9  C8  UNL     1      21.689  -1.630  54.375  1.00  0.00     0.010 C 
ENDBRANCH   6   7
ENDBRANCH   5   6
BRANCH   5  10
HETATM   10  P1  UNL     1      24.000   2.031  52.832  1.00  0.00    -0.010 P 
HETATM   11  H12 UNL     1      24.279   2.099  54.273  1.00  0.00     0.079 HD
BRANCH  10  12
HETATM   12  N1  UNL     1      25.264   1.001  52.111  1.00  0.00    -0.188 NA
HETATM   13  H13 UNL     1      26.091   1.518  51.758  1.00  0.00     0.145 HD
BRANCH  12  14
HETATM   14  S2  UNL     1      25.681  -0.320  53.143  1.00  0.00     0.245 S 
HETATM   15  O1  UNL     1      25.248  -1.629  52.567  1.00  0.00    -0.206 OA
HETATM   16  O2  UNL     1      25.030  -0.176  54.481  1.00  0.00    -0.206 OA
BRANCH  14  17
HETATM   17  C9  UNL     1      27.421  -0.346  53.315  1.00  0.00     0.074 A 
HETATM   18  C10 UNL     1      28.228  -1.438  53.105  1.00  0.00     0.025 A 
HETATM   19  C11 UNL     1      29.594  -1.322  53.277  1.00  0.00     0.002 A 
HETATM   20  C12 UNL     1      30.188  -0.124  53.659  1.00  0.00     0.000 A 
HETATM   21  C13 UNL     1      29.397   1.001  53.878  1.00  0.00     0.002 A 
HETATM   22  C14 UNL     1      28.031   0.849  53.697  1.00  0.00     0.025 A 
ENDBRANCH  14  17
ENDBRANCH  12  14
ENDBRANCH  10  12
ENDBRANCH   5  10
ENDBRANCH   3   4
TORSDOF 7
ENDMDL
MODEL 9
REMARK VINA RESULT:      -5.8      3.678      6.609
REMARK  7 active torsions:
REMARK  status: ('A' for Active; 'I' for Inactive)
REMARK    1  A    between atoms: S1_3  and  C3_4 
REMARK    2  A    between atoms: C4_5  and  C5_6 
REMARK    3  A    between atoms: C4_5  and  P1_10 
REMARK    4  A    between atoms: C5_6  and  C6_7 
REMARK    5  A    between atoms: P1_10  and  N1_11 
REMARK    6  A    between atoms: N1_11  and  S2_12 
REMARK    7  A    between atoms: S2_12  and  C9_15 
ROOT
HETATM    1  C1  UNL     1      28.668   2.378  53.672  1.00  0.00     0.025 C 
HETATM    2  C2  UNL     1      27.907   1.621  53.097  1.00  0.00    -0.041 C 
HETATM    3  S1  UNL     1      26.804   0.530  52.234  1.00  0.00    -0.051 SA
ENDROOT
BRANCH   3   4
HETATM    4  C3  UNL     1      25.111   0.804  52.724  1.00  0.00     0.068 C 
HETATM    5  C4  UNL     1      24.080   1.588  52.421  1.00  0.00    -0.033 C 
BRANCH   5   6
HETATM    6  C5  UNL     1      22.749   1.565  53.039  1.00  0.00     0.044 C 
BRANCH   6   7
HETATM    7  C6  UNL     1      21.613   1.519  52.083  1.00  0.00    -0.018 C 
HETATM    8  C7  UNL     1      20.316   2.016  52.623  1.00  0.00     0.010 C 
HETATM    9  C8  UNL     1      21.502   0.139  51.449  1.00  0.00     0.010 C 
ENDBRANCH   6   7
ENDBRANCH   5   6
BRANCH   5  10
HETATM   10  P1  UNL     1      24.396   2.810  51.088  1.00  0.00    -0.010 P 
HETATM   11  H12 UNL     1      23.309   2.790  50.099  1.00  0.00     0.079 HD
BRANCH  10  12
HETATM   12  N1  UNL     1      24.466   4.466  51.744  1.00  0.00    -0.188 NA
HETATM   13  H13 UNL     1      25.353   4.700  52.229  1.00  0.00     0.145 HD
BRANCH  12  14
HETATM   14  S2  UNL     1      24.009   5.643  50.566  1.00  0.00     0.245 S 
HETATM   15  O1  UNL     1      23.315   6.809  51.190  1.00  0.00    -0.206 OA
HETATM   16  O2  UNL     1      23.079   5.051  49.556  1.00  0.00    -0.206 OA
BRANCH  14  17
HETATM   17  C9  UNL     1      25.462   6.223  49.786  1.00  0.00     0.074 A 
HETATM   18  C10 UNL     1      26.238   5.506  48.907  1.00  0.00     0.025 A 
HETATM   19  C11 UNL     1      27.366   6.086  48.360  1.00  0.00     0.002 A 
HETATM   20  C12 UNL     1      27.748   7.387  48.671  1.00  0.00     0.000 A 
HETATM   21  C13 UNL     1      26.983   8.139  49.558  1.00  0.00     0.002 A 
HETATM   22  C14 UNL     1      25.858   7.526  50.088  1.00  0.00     0.025 A 
ENDBRANCH  14  17
ENDBRANCH  12  14
ENDBRANCH  10  12
ENDBRANCH   5  10
ENDBRANCH   3   4
TORSDOF 7
ENDMDL
