MODEL 1
REMARK VINA RESULT:      -8.7      0.000      0.000
REMARK  0 active torsions:
REMARK  status: ('A' for Active; 'I' for Inactive)
ROOT
HETATM    1  N1  UNL     1      29.057   2.409  54.225  1.00  0.00    -0.192 NA
HETATM    2  C1  UNL     1      28.203   2.312  53.449  1.00  0.00     0.086 C 
HETATM    3  P1  UNL     1      26.924   2.146  52.257  1.00  0.00     0.011 P 
HETATM    4  C2  UNL     1      26.863   0.622  51.703  1.00  0.00    -0.009 C 
HETATM    5  C3  UNL     1      26.001  -0.147  52.303  1.00  0.00     0.045 C 
HETATM    6  C4  UNL     1      25.623   0.011  53.711  1.00  0.00     0.059 C 
HETATM    7  N2  UNL     1      26.349   0.569  54.633  1.00  0.00    -0.300 NA
HETATM    8  C5  UNL     1      24.293  -0.551  54.080  1.00  0.00    -0.006 A 
HETATM    9  C6  UNL     1      23.882  -0.961  55.327  1.00  0.00     0.014 A 
HETATM   10  C7  UNL     1      22.599  -1.431  55.502  1.00  0.00     0.003 A 
HETATM   11  C8  UNL     1      21.665  -1.527  54.496  1.00  0.00     0.029 A 
HETATM   12  C9  UNL     1      22.026  -1.130  53.229  1.00  0.00     0.035 A 
HETATM   13  C10 UNL     1      23.320  -0.661  53.075  1.00  0.00     0.043 A 
HETATM   14  N3  UNL     1      21.313  -1.068  51.969  1.00  0.00    -0.327 N 
HETATM   15  C11 UNL     1      21.102   0.305  51.610  1.00  0.00     0.223 C 
HETATM   16  O1  UNL     1      21.623   0.919  52.570  1.00  0.00    -0.273 OA
HETATM   17  C12 UNL     1      20.610   1.398  50.726  1.00  0.00     0.133 C 
HETATM   18  C13 UNL     1      20.843   2.695  51.441  1.00  0.00     0.281 C 
HETATM   19  N4  UNL     1      22.206   2.909  51.724  1.00  0.00     0.092 N 
HETATM   20  C14 UNL     1      23.169   2.582  50.736  1.00  0.00     0.302 C 
HETATM   21  C15 UNL     1      24.386   3.428  50.889  1.00  0.00     0.303 C 
HETATM   22  N5  UNL     1      24.857   3.684  52.201  1.00  0.00     0.096 N 
HETATM   23  C16 UNL     1      23.789   4.271  52.980  1.00  0.00     0.303 C 
HETATM   24  C17 UNL     1      22.458   4.213  52.333  1.00  0.00     0.302 C 
HETATM   25  C18 UNL     1      25.298   2.480  52.943  1.00  0.00     0.317 C 
HETATM   26  H1  UNL     1      27.255   2.935  51.141  1.00  0.00     0.074 HD
HETATM   27  H3  UNL     1      25.971   0.621  55.591  1.00  0.00     0.187 HD
HETATM   28  H8  UNL     1      21.008  -1.920  51.422  1.00  0.00     0.169 HD
ENDROOT
TORSDOF 0
ENDMDL
MODEL 2
REMARK VINA RESULT:      -7.7      2.750      5.880
REMARK  0 active torsions:
REMARK  status: ('A' for Active; 'I' for Inactive)
ROOT
HETATM    1  N1  UNL     1      16.984  -0.178  50.458  1.00  0.00    -0.192 NA
HETATM    2  C1  UNL     1      17.731   0.707  50.444  1.00  0.00     0.086 C 
HETATM    3  P1  UNL     1      18.848   2.061  50.447  1.00  0.00     0.011 P 
HETATM    4  C2  UNL     1      19.033   2.639  51.952  1.00  0.00    -0.009 C 
HETATM    5  C3  UNL     1      20.061   2.170  52.598  1.00  0.00     0.045 C 
HETATM    6  C4  UNL     1      20.602   0.824  52.385  1.00  0.00     0.059 C 
HETATM    7  N2  UNL     1      19.939  -0.195  51.924  1.00  0.00    -0.300 NA
HETATM    8  C5  UNL     1      22.031   0.644  52.766  1.00  0.00    -0.006 A 
HETATM    9  C6  UNL     1      22.656  -0.531  53.113  1.00  0.00     0.014 A 
HETATM   10  C7  UNL     1      24.002  -0.526  53.410  1.00  0.00     0.003 A 
HETATM   11  C8  UNL     1      24.796   0.597  53.386  1.00  0.00     0.029 A 
HETATM   12  C9  UNL     1      24.219   1.799  53.045  1.00  0.00     0.035 A 
HETATM   13  C10 UNL     1      22.866   1.771  52.752  1.00  0.00     0.043 A 
HETATM   14  N3  UNL     1      24.742   3.142  52.896  1.00  0.00    -0.327 N 
HETATM   15  C11 UNL     1      24.721   3.508  51.508  1.00  0.00     0.223 C 
HETATM   16  O1  UNL     1      24.258   2.478  50.964  1.00  0.00    -0.273 OA
HETATM   17  C12 UNL     1      24.942   4.435  50.364  1.00  0.00     0.133 C 
HETATM   18  C13 UNL     1      24.640   3.677  49.105  1.00  0.00     0.281 C 
HETATM   19  N4  UNL     1      23.311   3.211  49.072  1.00  0.00     0.092 N 
HETATM   20  C14 UNL     1      22.275   4.066  49.527  1.00  0.00     0.302 C 
HETATM   21  C15 UNL     1      20.989   3.739  48.848  1.00  0.00     0.303 C 
HETATM   22  N5  UNL     1      20.670   2.373  48.650  1.00  0.00     0.096 N 
HETATM   23  C16 UNL     1      21.747   1.736  47.925  1.00  0.00     0.303 C 
HETATM   24  C17 UNL     1      22.975   2.556  47.810  1.00  0.00     0.302 C 
HETATM   25  C18 UNL     1      20.494   1.595  49.899  1.00  0.00     0.317 C 
HETATM   26  H1  UNL     1      18.270   3.112  49.713  1.00  0.00     0.074 HD
HETATM   27  H3  UNL     1      20.433  -1.094  51.819  1.00  0.00     0.187 HD
HETATM   28  H8  UNL     1      25.079   3.736  53.702  1.00  0.00     0.169 HD
ENDROOT
TORSDOF 0
ENDMDL
MODEL 3
REMARK VINA RESULT:      -7.6     10.887     13.242
REMARK  0 active torsions:
REMARK  status: ('A' for Active; 'I' for Inactive)
ROOT
HETATM    1  N1  UNL     1      35.994   8.270  41.221  1.00  0.00    -0.192 NA
HETATM    2  C1  UNL     1      35.009   8.127  41.813  1.00  0.00     0.086 C 
HETATM    3  P1  UNL     1      33.503   7.896  42.685  1.00  0.00     0.011 P 
HETATM    4  C2  UNL     1      32.793   6.509  42.230  1.00  0.00    -0.009 C 
HETATM    5  C3  UNL     1      33.049   5.485  42.992  1.00  0.00     0.045 C 
HETATM    6  C4  UNL     1      34.309   5.320  43.724  1.00  0.00     0.059 C 
HETATM    7  N2  UNL     1      35.448   5.856  43.402  1.00  0.00    -0.300 NA
HETATM    8  C5  UNL     1      34.238   4.435  44.921  1.00  0.00    -0.006 A 
HETATM    9  C6  UNL     1      35.274   3.743  45.504  1.00  0.00     0.014 A 
HETATM   10  C7  UNL     1      35.042   2.989  46.633  1.00  0.00     0.003 A 
HETATM   11  C8  UNL     1      33.815   2.868  47.245  1.00  0.00     0.029 A 
HETATM   12  C9  UNL     1      32.745   3.541  46.701  1.00  0.00     0.035 A 
HETATM   13  C10 UNL     1      33.001   4.292  45.565  1.00  0.00     0.043 A 
HETATM   14  N3  UNL     1      31.352   3.661  47.082  1.00  0.00    -0.327 N 
HETATM   15  C11 UNL     1      31.098   4.999  47.536  1.00  0.00     0.223 C 
HETATM   16  O1  UNL     1      32.224   5.539  47.430  1.00  0.00    -0.273 OA
HETATM   17  C12 UNL     1      30.236   6.096  48.057  1.00  0.00     0.133 C 
HETATM   18  C13 UNL     1      31.122   7.273  48.333  1.00  0.00     0.281 C 
HETATM   19  N4  UNL     1      31.788   7.720  47.175  1.00  0.00     0.092 N 
HETATM   20  C14 UNL     1      31.071   7.776  45.952  1.00  0.00     0.302 C 
HETATM   21  C15 UNL     1      31.640   8.822  45.058  1.00  0.00     0.303 C 
HETATM   22  N5  UNL     1      33.050   8.948  44.994  1.00  0.00     0.096 N 
HETATM   23  C16 UNL     1      33.567   9.155  46.329  1.00  0.00     0.303 C 
HETATM   24  C17 UNL     1      32.579   8.926  47.409  1.00  0.00     0.302 C 
HETATM   25  C18 UNL     1      33.751   7.757  44.459  1.00  0.00     0.317 C 
HETATM   26  H1  UNL     1      32.611   8.914  42.303  1.00  0.00     0.074 HD
HETATM   27  H3  UNL     1      36.267   5.664  44.001  1.00  0.00     0.187 HD
HETATM   28  H8  UNL     1      30.655   2.869  47.025  1.00  0.00     0.169 HD
ENDROOT
TORSDOF 0
ENDMDL
MODEL 4
REMARK VINA RESULT:      -7.5      2.378      5.321
REMARK  0 active torsions:
REMARK  status: ('A' for Active; 'I' for Inactive)
ROOT
HETATM    1  N1  UNL     1      18.631  -2.329  53.457  1.00  0.00    -0.192 NA
HETATM    2  C1  UNL     1      19.065  -1.289  53.191  1.00  0.00     0.086 C 
HETATM    3  P1  UNL     1      19.718   0.297  52.815  1.00  0.00     0.011 P 
HETATM    4  C2  UNL     1      20.417   0.946  54.128  1.00  0.00    -0.009 C 
HETATM    5  C3  UNL     1      21.704   0.762  54.213  1.00  0.00     0.045 C 
HETATM    6  C4  UNL     1      22.386  -0.417  53.670  1.00  0.00     0.059 C 
HETATM    7  N2  UNL     1      21.844  -1.579  53.464  1.00  0.00    -0.300 NA
HETATM    8  C5  UNL     1      23.833  -0.230  53.365  1.00  0.00    -0.006 A 
HETATM    9  C6  UNL     1      24.800  -1.206  53.301  1.00  0.00     0.014 A 
HETATM   10  C7  UNL     1      26.095  -0.863  52.974  1.00  0.00     0.003 A 
HETATM   11  C8  UNL     1      26.510   0.419  52.697  1.00  0.00     0.029 A 
HETATM   12  C9  UNL     1      25.581   1.432  52.749  1.00  0.00     0.035 A 
HETATM   13  C10 UNL     1      24.287   1.066  53.080  1.00  0.00     0.043 A 
HETATM   14  N3  UNL     1      25.654   2.858  52.499  1.00  0.00    -0.327 N 
HETATM   15  C11 UNL     1      24.930   3.167  51.299  1.00  0.00     0.223 C 
HETATM   16  O1  UNL     1      24.525   2.040  50.929  1.00  0.00    -0.273 OA
HETATM   17  C12 UNL     1      24.395   4.087  50.257  1.00  0.00     0.133 C 
HETATM   18  C13 UNL     1      23.745   3.242  49.201  1.00  0.00     0.281 C 
HETATM   19  N4  UNL     1      22.691   2.465  49.717  1.00  0.00     0.092 N 
HETATM   20  C14 UNL     1      21.801   3.052  50.653  1.00  0.00     0.302 C 
HETATM   21  C15 UNL     1      20.463   2.401  50.585  1.00  0.00     0.303 C 
HETATM   22  N5  UNL     1      20.414   0.993  50.433  1.00  0.00     0.096 N 
HETATM   23  C16 UNL     1      21.167   0.619  49.257  1.00  0.00     0.303 C 
HETATM   24  C17 UNL     1      21.987   1.711  48.682  1.00  0.00     0.302 C 
HETATM   25  C18 UNL     1      21.002   0.233  51.561  1.00  0.00     0.317 C 
HETATM   26  H1  UNL     1      18.647   1.153  52.503  1.00  0.00     0.074 HD
HETATM   27  H3  UNL     1      22.431  -2.333  53.076  1.00  0.00     0.187 HD
HETATM   28  H8  UNL     1      26.169   3.540  53.121  1.00  0.00     0.169 HD
ENDROOT
TORSDOF 0
ENDMDL
MODEL 5
REMARK VINA RESULT:      -7.5      2.436      5.164
REMARK  0 active torsions:
REMARK  status: ('A' for Active; 'I' for Inactive)
ROOT
HETATM    1  N1  UNL     1      26.671  -1.708  53.035  1.00  0.00    -0.192 NA
HETATM    2  C1  UNL     1      25.887  -0.866  53.173  1.00  0.00     0.086 C 
HETATM    3  P1  UNL     1      24.715   0.420  53.406  1.00  0.00     0.011 P 
HETATM    4  C2  UNL     1      25.433   1.732  54.036  1.00  0.00    -0.009 C 
HETATM    5  C3  UNL     1      25.802   2.627  53.165  1.00  0.00     0.045 C 
HETATM    6  C4  UNL     1      26.210   2.299  51.795  1.00  0.00     0.059 C 
HETATM    7  N2  UNL     1      26.687   1.157  51.400  1.00  0.00    -0.300 NA
HETATM    8  C5  UNL     1      26.073   3.406  50.808  1.00  0.00    -0.006 A 
HETATM    9  C6  UNL     1      26.767   3.559  49.631  1.00  0.00     0.014 A 
HETATM   10  C7  UNL     1      26.494   4.634  48.812  1.00  0.00     0.003 A 
HETATM   11  C8  UNL     1      25.550   5.597  49.087  1.00  0.00     0.029 A 
HETATM   12  C9  UNL     1      24.828   5.490  50.253  1.00  0.00     0.035 A 
HETATM   13  C10 UNL     1      25.120   4.404  51.062  1.00  0.00     0.043 A 
HETATM   14  N3  UNL     1      23.767   6.285  50.838  1.00  0.00    -0.327 N 
HETATM   15  C11 UNL     1      22.541   5.538  50.804  1.00  0.00     0.223 C 
HETATM   16  O1  UNL     1      22.890   4.470  50.249  1.00  0.00    -0.273 OA
HETATM   17  C12 UNL     1      21.089   5.334  51.066  1.00  0.00     0.133 C 
HETATM   18  C13 UNL     1      20.698   4.028  50.441  1.00  0.00     0.281 C 
HETATM   19  N4  UNL     1      21.421   2.945  50.977  1.00  0.00     0.092 N 
HETATM   20  C14 UNL     1      21.651   2.901  52.375  1.00  0.00     0.302 C 
HETATM   21  C15 UNL     1      21.803   1.492  52.838  1.00  0.00     0.303 C 
HETATM   22  N5  UNL     1      22.546   0.601  52.026  1.00  0.00     0.096 N 
HETATM   23  C16 UNL     1      21.979   0.589  50.696  1.00  0.00     0.303 C 
HETATM   24  C17 UNL     1      20.982   1.656  50.447  1.00  0.00     0.302 C 
HETATM   25  C18 UNL     1      23.974   0.963  51.863  1.00  0.00     0.317 C 
HETATM   26  H1  UNL     1      23.788   0.001  54.378  1.00  0.00     0.074 HD
HETATM   27  H3  UNL     1      26.939   1.048  50.405  1.00  0.00     0.187 HD
HETATM   28  H8  UNL     1      23.904   7.260  51.222  1.00  0.00     0.169 HD
ENDROOT
TORSDOF 0
ENDMDL
MODEL 6
REMARK VINA RESULT:      -7.4      3.133      6.023
REMARK  0 active torsions:
REMARK  status: ('A' for Active; 'I' for Inactive)
ROOT
HETATM    1  N1  UNL     1      23.930  -0.850  53.374  1.00  0.00    -0.192 NA
HETATM    2  C1  UNL     1      23.372   0.078  52.960  1.00  0.00     0.086 C 
HETATM    3  P1  UNL     1      22.529   1.495  52.360  1.00  0.00     0.011 P 
HETATM    4  C2  UNL     1      23.065   2.831  53.109  1.00  0.00    -0.009 C 
HETATM    5  C3  UNL     1      23.998   3.481  52.474  1.00  0.00     0.045 C 
HETATM    6  C4  UNL     1      24.977   2.832  51.597  1.00  0.00     0.059 C 
HETATM    7  N2  UNL     1      25.352   1.590  51.668  1.00  0.00    -0.300 NA
HETATM    8  C5  UNL     1      25.589   3.714  50.563  1.00  0.00    -0.006 A 
HETATM    9  C6  UNL     1      26.804   3.545  49.941  1.00  0.00     0.014 A 
HETATM   10  C7  UNL     1      27.210   4.444  48.979  1.00  0.00     0.003 A 
HETATM   11  C8  UNL     1      26.472   5.534  48.578  1.00  0.00     0.029 A 
HETATM   12  C9  UNL     1      25.249   5.749  49.170  1.00  0.00     0.035 A 
HETATM   13  C10 UNL     1      24.861   4.834  50.135  1.00  0.00     0.043 A 
HETATM   14  N3  UNL     1      24.220   6.752  48.983  1.00  0.00    -0.327 N 
HETATM   15  C11 UNL     1      23.066   6.143  48.383  1.00  0.00     0.223 C 
HETATM   16  O1  UNL     1      23.431   4.952  48.244  1.00  0.00    -0.273 OA
HETATM   17  C12 UNL     1      21.679   6.146  47.841  1.00  0.00     0.133 C 
HETATM   18  C13 UNL     1      21.415   4.784  47.271  1.00  0.00     0.281 C 
HETATM   19  N4  UNL     1      21.529   3.771  48.243  1.00  0.00     0.092 N 
HETATM   20  C14 UNL     1      20.993   4.000  49.536  1.00  0.00     0.302 C 
HETATM   21  C15 UNL     1      20.603   2.713  50.178  1.00  0.00     0.303 C 
HETATM   22  N5  UNL     1      21.464   1.600  50.015  1.00  0.00     0.096 N 
HETATM   23  C16 UNL     1      21.671   1.365  48.603  1.00  0.00     0.303 C 
HETATM   24  C17 UNL     1      21.178   2.451  47.724  1.00  0.00     0.302 C 
HETATM   25  C18 UNL     1      22.811   1.773  50.608  1.00  0.00     0.317 C 
HETATM   26  H1  UNL     1      21.173   1.387  52.718  1.00  0.00     0.074 HD
HETATM   27  H3  UNL     1      26.052   1.249  50.990  1.00  0.00     0.187 HD
HETATM   28  H8  UNL     1      24.330   7.767  49.255  1.00  0.00     0.169 HD
ENDROOT
TORSDOF 0
ENDMDL
MODEL 7
REMARK VINA RESULT:      -7.4     10.503     13.577
REMARK  0 active torsions:
REMARK  status: ('A' for Active; 'I' for Inactive)
ROOT
HETATM    1  N1  UNL     1      35.029   3.812  46.248  1.00  0.00    -0.192 NA
HETATM    2  C1  UNL     1      34.604   4.618  46.965  1.00  0.00     0.086 C 
HETATM    3  P1  UNL     1      33.989   5.843  48.062  1.00  0.00     0.011 P 
HETATM    4  C2  UNL     1      35.108   6.992  48.311  1.00  0.00    -0.009 C 
HETATM    5  C3  UNL     1      34.997   8.041  47.547  1.00  0.00     0.045 C 
HETATM    6  C4  UNL     1      34.456   7.993  46.185  1.00  0.00     0.059 C 
HETATM    7  N2  UNL     1      34.444   6.949  45.411  1.00  0.00    -0.300 NA
HETATM    8  C5  UNL     1      33.904   9.279  45.674  1.00  0.00    -0.006 A 
HETATM    9  C6  UNL     1      33.768   9.660  44.360  1.00  0.00     0.014 A 
HETATM   10  C7  UNL     1      33.205  10.881  44.057  1.00  0.00     0.003 A 
HETATM   11  C8  UNL     1      32.753  11.779  44.997  1.00  0.00     0.029 A 
HETATM   12  C9  UNL     1      32.866  11.446  46.327  1.00  0.00     0.035 A 
HETATM   13  C10 UNL     1      33.436  10.215  46.608  1.00  0.00     0.043 A 
HETATM   14  N3  UNL     1      32.483  12.117  47.553  1.00  0.00    -0.327 N 
HETATM   15  C11 UNL     1      31.396  11.407  48.163  1.00  0.00     0.223 C 
HETATM   16  O1  UNL     1      31.197  10.470  47.355  1.00  0.00    -0.273 OA
HETATM   17  C12 UNL     1      30.378  11.171  49.225  1.00  0.00     0.133 C 
HETATM   18  C13 UNL     1      29.522  10.023  48.780  1.00  0.00     0.281 C 
HETATM   19  N4  UNL     1      30.269   8.846  48.586  1.00  0.00     0.092 N 
HETATM   20  C14 UNL     1      31.283   8.516  49.522  1.00  0.00     0.302 C 
HETATM   21  C15 UNL     1      31.491   7.042  49.572  1.00  0.00     0.303 C 
HETATM   22  N5  UNL     1      31.474   6.325  48.349  1.00  0.00     0.096 N 
HETATM   23  C16 UNL     1      30.228   6.590  47.665  1.00  0.00     0.303 C 
HETATM   24  C17 UNL     1      29.433   7.696  48.247  1.00  0.00     0.302 C 
HETATM   25  C18 UNL     1      32.553   6.696  47.403  1.00  0.00     0.317 C 
HETATM   26  H1  UNL     1      33.783   5.247  49.319  1.00  0.00     0.074 HD
HETATM   27  H3  UNL     1      34.033   7.042  44.469  1.00  0.00     0.187 HD
HETATM   28  H8  UNL     1      32.951  12.993  47.916  1.00  0.00     0.169 HD
ENDROOT
TORSDOF 0
ENDMDL
MODEL 8
REMARK VINA RESULT:      -7.2      9.990     12.556
REMARK  0 active torsions:
REMARK  status: ('A' for Active; 'I' for Inactive)
ROOT
HETATM    1  N1  UNL     1      27.083   9.554  50.124  1.00  0.00    -0.192 NA
HETATM    2  C1  UNL     1      28.051   9.799  49.537  1.00  0.00     0.086 C 
HETATM    3  P1  UNL     1      29.532  10.177  48.673  1.00  0.00     0.011 P 
HETATM    4  C2  UNL     1      30.826   9.743  49.552  1.00  0.00    -0.009 C 
HETATM    5  C3  UNL     1      31.311   8.567  49.273  1.00  0.00     0.045 C 
HETATM    6  C4  UNL     1      30.490   7.451  48.792  1.00  0.00     0.059 C 
HETATM    7  N2  UNL     1      29.216   7.303  48.996  1.00  0.00    -0.300 NA
HETATM    8  C5  UNL     1      31.226   6.404  48.027  1.00  0.00    -0.006 A 
HETATM    9  C6  UNL     1      30.864   5.088  47.863  1.00  0.00     0.014 A 
HETATM   10  C7  UNL     1      31.647   4.255  47.093  1.00  0.00     0.003 A 
HETATM   11  C8  UNL     1      32.800   4.649  46.455  1.00  0.00     0.029 A 
HETATM   12  C9  UNL     1      33.207   5.956  46.587  1.00  0.00     0.035 A 
HETATM   13  C10 UNL     1      32.406   6.776  47.366  1.00  0.00     0.043 A 
HETATM   14  N3  UNL     1      34.325   6.706  46.050  1.00  0.00    -0.327 N 
HETATM   15  C11 UNL     1      33.840   7.661  45.094  1.00  0.00     0.223 C 
HETATM   16  O1  UNL     1      32.606   7.444  45.097  1.00  0.00    -0.273 OA
HETATM   17  C12 UNL     1      33.996   8.765  44.106  1.00  0.00     0.133 C 
HETATM   18  C13 UNL     1      32.651   9.011  43.490  1.00  0.00     0.281 C 
HETATM   19  N4  UNL     1      31.687   9.380  44.448  1.00  0.00     0.092 N 
HETATM   20  C14 UNL     1      32.056  10.286  45.476  1.00  0.00     0.302 C 
HETATM   21  C15 UNL     1      30.869  11.051  45.952  1.00  0.00     0.303 C 
HETATM   22  N5  UNL     1      29.645  10.353  46.104  1.00  0.00     0.096 N 
HETATM   23  C16 UNL     1      29.307   9.714  44.852  1.00  0.00     0.303 C 
HETATM   24  C17 UNL     1      30.398   9.718  43.849  1.00  0.00     0.302 C 
HETATM   25  C18 UNL     1      29.672   9.279  47.124  1.00  0.00     0.317 C 
HETATM   26  H1  UNL     1      29.623  11.574  48.542  1.00  0.00     0.074 HD
HETATM   27  H3  UNL     1      28.749   6.471  48.603  1.00  0.00     0.187 HD
HETATM   28  H8  UNL     1      35.330   6.551  46.336  1.00  0.00     0.169 HD
ENDROOT
TORSDOF 0
ENDMDL
MODEL 9
REMARK VINA RESULT:      -7.1      4.580      7.646
REMARK  0 active torsions:
REMARK  status: ('A' for Active; 'I' for Inactive)
ROOT
HETATM    1  N1  UNL     1      21.515   1.433  51.635  1.00  0.00    -0.192 NA
HETATM    2  C1  UNL     1      21.570   2.553  51.341  1.00  0.00     0.086 C 
HETATM    3  P1  UNL     1      21.655   4.256  50.926  1.00  0.00     0.011 P 
HETATM    4  C2  UNL     1      22.631   5.042  51.957  1.00  0.00    -0.009 C 
HETATM    5  C3  UNL     1      23.860   5.183  51.551  1.00  0.00     0.045 C 
HETATM    6  C4  UNL     1      24.536   4.219  50.677  1.00  0.00     0.059 C 
HETATM    7  N2  UNL     1      24.234   2.961  50.559  1.00  0.00    -0.300 NA
HETATM    8  C5  UNL     1      25.678   4.766  49.891  1.00  0.00    -0.006 A 
HETATM    9  C6  UNL     1      26.744   4.064  49.378  1.00  0.00     0.014 A 
HETATM   10  C7  UNL     1      27.706   4.723  48.643  1.00  0.00     0.003 A 
HETATM   11  C8  UNL     1      27.684   6.072  48.372  1.00  0.00     0.029 A 
HETATM   12  C9  UNL     1      26.639   6.820  48.864  1.00  0.00     0.035 A 
HETATM   13  C10 UNL     1      25.685   6.138  49.600  1.00  0.00     0.043 A 
HETATM   14  N3  UNL     1      26.288   8.222  48.757  1.00  0.00    -0.327 N 
HETATM   15  C11 UNL     1      25.116   8.357  47.940  1.00  0.00     0.223 C 
HETATM   16  O1  UNL     1      24.868   7.170  47.624  1.00  0.00    -0.273 OA
HETATM   17  C12 UNL     1      24.034   9.128  47.267  1.00  0.00     0.133 C 
HETATM   18  C13 UNL     1      23.244   8.162  46.434  1.00  0.00     0.281 C 
HETATM   19  N4  UNL     1      22.668   7.139  47.211  1.00  0.00     0.092 N 
HETATM   20  C14 UNL     1      22.088   7.473  48.462  1.00  0.00     0.302 C 
HETATM   21  C15 UNL     1      21.007   6.509  48.814  1.00  0.00     0.303 C 
HETATM   22  N5  UNL     1      21.225   5.136  48.542  1.00  0.00     0.096 N 
HETATM   23  C16 UNL     1      21.544   4.977  47.140  1.00  0.00     0.303 C 
HETATM   24  C17 UNL     1      21.816   6.247  46.427  1.00  0.00     0.302 C 
HETATM   25  C18 UNL     1      22.351   4.531  49.293  1.00  0.00     0.317 C 
HETATM   26  H1  UNL     1      20.382   4.822  51.115  1.00  0.00     0.074 HD
HETATM   27  H3  UNL     1      24.786   2.383  49.906  1.00  0.00     0.187 HD
HETATM   28  H8  UNL     1      26.831   9.002  49.220  1.00  0.00     0.169 HD
ENDROOT
TORSDOF 0
ENDMDL
