MODEL 1
REMARK VINA RESULT:      -8.1      0.000      0.000
REMARK  5 active torsions:
REMARK  status: ('A' for Active; 'I' for Inactive)
REMARK    1  A    between atoms: N1_1  and  C1_2 
REMARK    2  A    between atoms: C6_7  and  C7_8 
REMARK    3  A    between atoms: S1_11  and  C8_12 
REMARK    4  A    between atoms: C8_12  and  S2_13 
REMARK    5  A    between atoms: S2_13  and  C9_14 
ROOT
HETATM    1  C7  UNL     1      26.162   1.103  52.995  1.00  0.00     0.206 A 
HETATM    2  N2  UNL     1      25.120   0.505  53.310  1.00  0.00    -0.141 NA
HETATM    3  N3  UNL     1      23.873   1.180  53.115  1.00  0.00    -0.023 NA
HETATM    4  S1  UNL     1      24.312   2.660  52.476  1.00  0.00     0.044 SA
HETATM    5  O1  UNL     1      26.130   2.383  52.469  1.00  0.00    -0.250 OA
ENDROOT
BRANCH   1   6
HETATM    6  C6  UNL     1      27.418   0.376  53.210  1.00  0.00     0.045 A 
HETATM    7  C1  UNL     1      28.615   0.918  53.661  1.00  0.00     0.040 A 
HETATM    8  C2  UNL     1      29.764   0.187  53.846  1.00  0.00     0.030 A 
HETATM    9  C3  UNL     1      29.779  -1.148  53.586  1.00  0.00     0.002 A 
HETATM   10  C4  UNL     1      28.607  -1.712  53.138  1.00  0.00     0.001 A 
HETATM   11  C5  UNL     1      27.458  -0.980  52.953  1.00  0.00     0.018 A 
BRANCH   7  12
HETATM   12  N1  UNL     1      28.610   2.315  53.935  1.00  0.00    -0.398 N 
HETATM   13  H1  UNL     1      29.137   2.772  53.156  1.00  0.00     0.156 HD
HETATM   14  H2  UNL     1      28.308   3.075  54.576  1.00  0.00     0.156 HD
ENDBRANCH   7  12
ENDBRANCH   1   6
BRANCH   4  15
HETATM   15  C8  UNL     1      23.365   4.077  51.955  1.00  0.00     0.187 C 
BRANCH  15  16
HETATM   16  S2  UNL     1      23.553   4.386  50.176  1.00  0.00    -0.143 SA
BRANCH  16  17
HETATM   17  C9  UNL     1      25.154   5.201  49.834  1.00  0.00     0.093 C 
HETATM   18  C10 UNL     1      24.999   6.284  48.862  1.00  0.00    -0.008 C 
HETATM   19  C11 UNL     1      25.857   6.959  48.113  1.00  0.00    -0.003 C 
HETATM   20  C12 UNL     1      27.274   6.671  48.164  1.00  0.00    -0.000 C 
HETATM   21  C13 UNL     1      27.982   5.578  48.500  1.00  0.00    -0.000 C 
HETATM   22  C14 UNL     1      27.306   4.349  48.921  1.00  0.00    -0.003 C 
HETATM   23  C15 UNL     1      26.117   4.157  49.485  1.00  0.00    -0.008 C 
ENDBRANCH  16  17
ENDBRANCH  15  16
ENDBRANCH   4  15
TORSDOF 5
ENDMDL
MODEL 2
REMARK VINA RESULT:      -7.9      3.244      4.182
REMARK  5 active torsions:
REMARK  status: ('A' for Active; 'I' for Inactive)
REMARK    1  A    between atoms: N1_1  and  C1_2 
REMARK    2  A    between atoms: C6_7  and  C7_8 
REMARK    3  A    between atoms: S1_11  and  C8_12 
REMARK    4  A    between atoms: C8_12  and  S2_13 
REMARK    5  A    between atoms: S2_13  and  C9_14 
ROOT
HETATM    1  C7  UNL     1      25.786  -0.532  53.803  1.00  0.00     0.206 A 
HETATM    2  N2  UNL     1      25.338  -1.027  54.851  1.00  0.00    -0.141 NA
HETATM    3  N3  UNL     1      23.919  -1.160  54.978  1.00  0.00    -0.023 NA
HETATM    4  S1  UNL     1      23.326  -0.544  53.542  1.00  0.00     0.044 SA
HETATM    5  O1  UNL     1      24.946  -0.117  52.784  1.00  0.00    -0.250 OA
ENDROOT
BRANCH   1   6
HETATM    6  C6  UNL     1      27.245  -0.414  53.713  1.00  0.00     0.045 A 
HETATM    7  C1  UNL     1      28.129  -1.414  53.326  1.00  0.00     0.040 A 
HETATM    8  C2  UNL     1      29.491  -1.245  53.259  1.00  0.00     0.030 A 
HETATM    9  C3  UNL     1      30.054  -0.050  53.580  1.00  0.00     0.002 A 
HETATM   10  C4  UNL     1      29.202   0.959  53.968  1.00  0.00     0.001 A 
HETATM   11  C5  UNL     1      27.839   0.790  54.035  1.00  0.00     0.018 A 
BRANCH   7  12
HETATM   12  N1  UNL     1      27.550  -2.670  52.988  1.00  0.00    -0.398 N 
HETATM   13  H1  UNL     1      27.146  -3.057  53.871  1.00  0.00     0.156 HD
HETATM   14  H2  UNL     1      27.357  -3.366  52.242  1.00  0.00     0.156 HD
ENDBRANCH   7  12
ENDBRANCH   1   6
BRANCH   4  15
HETATM   15  C8  UNL     1      21.673  -0.345  52.906  1.00  0.00     0.187 C 
BRANCH  15  16
HETATM   16  S2  UNL     1      21.200   1.405  52.821  1.00  0.00    -0.143 SA
BRANCH  16  17
HETATM   17  C9  UNL     1      21.505   2.070  51.144  1.00  0.00     0.093 C 
HETATM   18  C10 UNL     1      21.122   1.102  50.115  1.00  0.00    -0.008 C 
HETATM   19  C11 UNL     1      21.393   0.999  48.823  1.00  0.00    -0.003 C 
HETATM   20  C12 UNL     1      22.229   1.977  48.159  1.00  0.00    -0.000 C 
HETATM   21  C13 UNL     1      23.189   2.814  48.589  1.00  0.00    -0.000 C 
HETATM   22  C14 UNL     1      23.573   2.850  50.002  1.00  0.00    -0.003 C 
HETATM   23  C15 UNL     1      22.888   2.543  51.100  1.00  0.00    -0.008 C 
ENDBRANCH  16  17
ENDBRANCH  15  16
ENDBRANCH   4  15
TORSDOF 5
ENDMDL
MODEL 3
REMARK VINA RESULT:      -7.8      1.010      1.574
REMARK  5 active torsions:
REMARK  status: ('A' for Active; 'I' for Inactive)
REMARK    1  A    between atoms: N1_1  and  C1_2 
REMARK    2  A    between atoms: C6_7  and  C7_8 
REMARK    3  A    between atoms: S1_11  and  C8_12 
REMARK    4  A    between atoms: C8_12  and  S2_13 
REMARK    5  A    between atoms: S2_13  and  C9_14 
ROOT
HETATM    1  C7  UNL     1      26.527   1.490  52.684  1.00  0.00     0.206 A 
HETATM    2  N2  UNL     1      25.878   1.953  53.636  1.00  0.00    -0.141 NA
HETATM    3  N3  UNL     1      24.771   2.811  53.340  1.00  0.00    -0.023 NA
HETATM    4  S1  UNL     1      24.753   2.885  51.671  1.00  0.00     0.044 SA
HETATM    5  O1  UNL     1      26.200   1.788  51.373  1.00  0.00    -0.250 OA
ENDROOT
BRANCH   1   6
HETATM    6  C6  UNL     1      27.653   0.616  53.031  1.00  0.00     0.045 A 
HETATM    7  C1  UNL     1      28.887   1.020  53.524  1.00  0.00     0.040 A 
HETATM    8  C2  UNL     1      29.907   0.153  53.833  1.00  0.00     0.030 A 
HETATM    9  C3  UNL     1      29.749  -1.187  53.662  1.00  0.00     0.002 A 
HETATM   10  C4  UNL     1      28.536  -1.616  53.174  1.00  0.00     0.001 A 
HETATM   11  C5  UNL     1      27.515  -0.748  52.865  1.00  0.00     0.018 A 
BRANCH   7  12
HETATM   12  N1  UNL     1      29.064   2.420  53.706  1.00  0.00    -0.398 N 
HETATM   13  H1  UNL     1      30.085   2.570  53.877  1.00  0.00     0.156 HD
HETATM   14  H2  UNL     1      28.617   3.358  53.741  1.00  0.00     0.156 HD
ENDBRANCH   7  12
ENDBRANCH   1   6
BRANCH   4  15
HETATM   15  C8  UNL     1      23.699   3.734  50.512  1.00  0.00     0.187 C 
BRANCH  15  16
HETATM   16  S2  UNL     1      24.003   5.523  50.523  1.00  0.00    -0.143 SA
BRANCH  16  17
HETATM   17  C9  UNL     1      25.335   5.954  49.347  1.00  0.00     0.093 C 
HETATM   18  C10 UNL     1      26.292   4.856  49.207  1.00  0.00    -0.008 C 
HETATM   19  C11 UNL     1      27.520   4.780  48.716  1.00  0.00    -0.003 C 
HETATM   20  C12 UNL     1      28.175   5.951  48.173  1.00  0.00    -0.000 C 
HETATM   21  C13 UNL     1      28.028   7.271  48.381  1.00  0.00    -0.000 C 
HETATM   22  C14 UNL     1      27.033   7.772  49.331  1.00  0.00    -0.003 C 
HETATM   23  C15 UNL     1      25.890   7.243  49.759  1.00  0.00    -0.008 C 
ENDBRANCH  16  17
ENDBRANCH  15  16
ENDBRANCH   4  15
TORSDOF 5
ENDMDL
MODEL 4
REMARK VINA RESULT:      -7.7      3.415      5.771
REMARK  5 active torsions:
REMARK  status: ('A' for Active; 'I' for Inactive)
REMARK    1  A    between atoms: N1_1  and  C1_2 
REMARK    2  A    between atoms: C6_7  and  C7_8 
REMARK    3  A    between atoms: S1_11  and  C8_12 
REMARK    4  A    between atoms: C8_12  and  S2_13 
REMARK    5  A    between atoms: S2_13  and  C9_14 
ROOT
HETATM    1  C7  UNL     1      26.377   1.502  52.002  1.00  0.00     0.206 A 
HETATM    2  N2  UNL     1      26.753   2.469  51.319  1.00  0.00    -0.141 NA
HETATM    3  N3  UNL     1      25.758   3.222  50.618  1.00  0.00    -0.023 NA
HETATM    4  S1  UNL     1      24.324   2.459  51.007  1.00  0.00     0.044 SA
HETATM    5  O1  UNL     1      25.039   1.155  52.089  1.00  0.00    -0.250 OA
ENDROOT
BRANCH   1   6
HETATM    6  C6  UNL     1      27.426   0.757  52.705  1.00  0.00     0.045 A 
HETATM    7  C1  UNL     1      28.390   1.292  53.550  1.00  0.00     0.040 A 
HETATM    8  C2  UNL     1      29.352   0.542  54.184  1.00  0.00     0.030 A 
HETATM    9  C3  UNL     1      29.404  -0.805  54.005  1.00  0.00     0.002 A 
HETATM   10  C4  UNL     1      28.460  -1.363  53.173  1.00  0.00     0.001 A 
HETATM   11  C5  UNL     1      27.499  -0.613  52.539  1.00  0.00     0.018 A 
BRANCH   7  12
HETATM   12  N1  UNL     1      28.346   2.701  53.743  1.00  0.00    -0.398 N 
HETATM   13  H1  UNL     1      27.941   3.107  52.869  1.00  0.00     0.156 HD
HETATM   14  H2  UNL     1      28.543   3.499  54.379  1.00  0.00     0.156 HD
ENDBRANCH   7  12
ENDBRANCH   1   6
BRANCH   4  15
HETATM   15  C8  UNL     1      22.630   2.768  50.549  1.00  0.00     0.187 C 
BRANCH  15  16
HETATM   16  S2  UNL     1      21.518   2.624  51.976  1.00  0.00    -0.143 SA
BRANCH  16  17
HETATM   17  C9  UNL     1      21.278   0.868  52.426  1.00  0.00     0.093 C 
HETATM   18  C10 UNL     1      19.856   0.533  52.507  1.00  0.00    -0.008 C 
HETATM   19  C11 UNL     1      19.193  -0.481  53.042  1.00  0.00    -0.003 C 
HETATM   20  C12 UNL     1      19.893  -1.552  53.719  1.00  0.00    -0.000 C 
HETATM   21  C13 UNL     1      21.086  -1.629  54.336  1.00  0.00    -0.000 C 
HETATM   22  C14 UNL     1      21.965  -0.461  54.415  1.00  0.00    -0.003 C 
HETATM   23  C15 UNL     1      22.070   0.606  53.627  1.00  0.00    -0.008 C 
ENDBRANCH  16  17
ENDBRANCH  15  16
ENDBRANCH   4  15
TORSDOF 5
ENDMDL
MODEL 5
REMARK VINA RESULT:      -7.6      2.258      6.775
REMARK  5 active torsions:
REMARK  status: ('A' for Active; 'I' for Inactive)
REMARK    1  A    between atoms: N1_1  and  C1_2 
REMARK    2  A    between atoms: C6_7  and  C7_8 
REMARK    3  A    between atoms: S1_11  and  C8_12 
REMARK    4  A    between atoms: C8_12  and  S2_13 
REMARK    5  A    between atoms: S2_13  and  C9_14 
ROOT
HETATM    1  C7  UNL     1      24.809   3.534  50.245  1.00  0.00     0.206 A 
HETATM    2  N2  UNL     1      23.919   3.036  49.536  1.00  0.00    -0.141 NA
HETATM    3  N3  UNL     1      23.016   2.108  50.146  1.00  0.00    -0.023 NA
HETATM    4  S1  UNL     1      23.534   2.024  51.732  1.00  0.00     0.044 SA
HETATM    5  O1  UNL     1      24.933   3.208  51.585  1.00  0.00    -0.250 OA
ENDROOT
BRANCH   1   6
HETATM    6  C6  UNL     1      25.713   4.480  49.583  1.00  0.00     0.045 A 
HETATM    7  C1  UNL     1      25.439   5.807  49.281  1.00  0.00     0.040 A 
HETATM    8  C2  UNL     1      26.328   6.649  48.658  1.00  0.00     0.030 A 
HETATM    9  C3  UNL     1      27.560   6.204  48.295  1.00  0.00     0.002 A 
HETATM   10  C4  UNL     1      27.860   4.891  48.581  1.00  0.00     0.001 A 
HETATM   11  C5  UNL     1      26.971   4.049  49.204  1.00  0.00     0.018 A 
BRANCH   7  12
HETATM   12  N1  UNL     1      24.151   6.285  49.656  1.00  0.00    -0.398 N 
HETATM   13  H1  UNL     1      23.707   6.655  48.785  1.00  0.00     0.156 HD
HETATM   14  H2  UNL     1      23.463   6.423  50.422  1.00  0.00     0.156 HD
ENDBRANCH   7  12
ENDBRANCH   1   6
BRANCH   4  15
HETATM   15  C8  UNL     1      22.954   1.103  53.143  1.00  0.00     0.187 C 
BRANCH  15  16
HETATM   16  S2  UNL     1      23.863  -0.456  53.340  1.00  0.00    -0.143 SA
BRANCH  16  17
HETATM   17  C9  UNL     1      25.664  -0.166  53.220  1.00  0.00     0.093 C 
HETATM   18  C10 UNL     1      26.357  -1.346  52.701  1.00  0.00    -0.008 C 
HETATM   19  C11 UNL     1      27.627  -1.721  52.693  1.00  0.00    -0.003 C 
HETATM   20  C12 UNL     1      28.651  -0.887  53.285  1.00  0.00    -0.000 C 
HETATM   21  C13 UNL     1      28.634   0.052  54.246  1.00  0.00    -0.000 C 
HETATM   22  C14 UNL     1      27.386   0.408  54.923  1.00  0.00    -0.003 C 
HETATM   23  C15 UNL     1      26.121   0.328  54.519  1.00  0.00    -0.008 C 
ENDBRANCH  16  17
ENDBRANCH  15  16
ENDBRANCH   4  15
TORSDOF 5
ENDMDL
MODEL 6
REMARK VINA RESULT:      -7.5      3.656      5.997
REMARK  5 active torsions:
REMARK  status: ('A' for Active; 'I' for Inactive)
REMARK    1  A    between atoms: N1_1  and  C1_2 
REMARK    2  A    between atoms: C6_7  and  C7_8 
REMARK    3  A    between atoms: S1_11  and  C8_12 
REMARK    4  A    between atoms: C8_12  and  S2_13 
REMARK    5  A    between atoms: S2_13  and  C9_14 
ROOT
HETATM    1  C7  UNL     1      25.966   0.385  52.856  1.00  0.00     0.206 A 
HETATM    2  N2  UNL     1      25.128  -0.118  53.622  1.00  0.00    -0.141 NA
HETATM    3  N3  UNL     1      23.743   0.132  53.361  1.00  0.00    -0.023 NA
HETATM    4  S1  UNL     1      23.757   1.098  51.998  1.00  0.00     0.044 SA
HETATM    5  O1  UNL     1      25.582   1.167  51.779  1.00  0.00    -0.250 OA
ENDROOT
BRANCH   1   6
HETATM    6  C6  UNL     1      27.373   0.105  53.157  1.00  0.00     0.045 A 
HETATM    7  C1  UNL     1      28.321   1.023  53.591  1.00  0.00     0.040 A 
HETATM    8  C2  UNL     1      29.630   0.702  53.859  1.00  0.00     0.030 A 
HETATM    9  C3  UNL     1      30.071  -0.575  53.707  1.00  0.00     0.002 A 
HETATM   10  C4  UNL     1      29.153  -1.507  53.279  1.00  0.00     0.001 A 
HETATM   11  C5  UNL     1      27.844  -1.185  53.010  1.00  0.00     0.018 A 
BRANCH   7  12
HETATM   12  N1  UNL     1      27.871   2.364  53.752  1.00  0.00    -0.398 N 
HETATM   13  H1  UNL     1      27.264   2.574  52.927  1.00  0.00     0.156 HD
HETATM   14  H2  UNL     1      27.885   3.222  54.338  1.00  0.00     0.156 HD
ENDBRANCH   7  12
ENDBRANCH   1   6
BRANCH   4  15
HETATM   15  C8  UNL     1      22.457   1.843  51.034  1.00  0.00     0.187 C 
BRANCH  15  16
HETATM   16  S2  UNL     1      21.265   2.717  52.087  1.00  0.00    -0.143 SA
BRANCH  16  17
HETATM   17  C9  UNL     1      19.812   1.659  52.423  1.00  0.00     0.093 C 
HETATM   18  C10 UNL     1      20.190   0.467  53.183  1.00  0.00    -0.008 C 
HETATM   19  C11 UNL     1      19.584  -0.687  53.420  1.00  0.00    -0.003 C 
HETATM   20  C12 UNL     1      18.271  -0.961  52.878  1.00  0.00    -0.000 C 
HETATM   21  C13 UNL     1      17.598  -0.496  51.811  1.00  0.00    -0.000 C 
HETATM   22  C14 UNL     1      18.199   0.501  50.923  1.00  0.00    -0.003 C 
HETATM   23  C15 UNL     1      19.132   1.422  51.150  1.00  0.00    -0.008 C 
ENDBRANCH  16  17
ENDBRANCH  15  16
ENDBRANCH   4  15
TORSDOF 5
ENDMDL
MODEL 7
REMARK VINA RESULT:      -7.4      4.620      8.266
REMARK  5 active torsions:
REMARK  status: ('A' for Active; 'I' for Inactive)
REMARK    1  A    between atoms: N1_1  and  C1_2 
REMARK    2  A    between atoms: C6_7  and  C7_8 
REMARK    3  A    between atoms: S1_11  and  C8_12 
REMARK    4  A    between atoms: C8_12  and  S2_13 
REMARK    5  A    between atoms: S2_13  and  C9_14 
ROOT
HETATM    1  C7  UNL     1      20.411   0.577  52.293  1.00  0.00     0.206 A 
HETATM    2  N2  UNL     1      20.324   1.816  52.251  1.00  0.00    -0.141 NA
HETATM    3  N3  UNL     1      21.533   2.569  52.114  1.00  0.00    -0.023 NA
HETATM    4  S1  UNL     1      22.730   1.404  52.056  1.00  0.00     0.044 SA
HETATM    5  O1  UNL     1      21.634  -0.065  52.211  1.00  0.00    -0.250 OA
ENDROOT
BRANCH   1   6
HETATM    6  C6  UNL     1      19.149  -0.157  52.434  1.00  0.00     0.045 A 
HETATM    7  C1  UNL     1      18.888  -1.179  53.337  1.00  0.00     0.040 A 
HETATM    8  C2  UNL     1      17.682  -1.833  53.424  1.00  0.00     0.030 A 
HETATM    9  C3  UNL     1      16.655  -1.496  52.600  1.00  0.00     0.002 A 
HETATM   10  C4  UNL     1      16.885  -0.486  51.694  1.00  0.00     0.001 A 
HETATM   11  C5  UNL     1      18.091   0.168  51.607  1.00  0.00     0.018 A 
BRANCH   7  12
HETATM   12  N1  UNL     1      19.957  -1.541  54.204  1.00  0.00    -0.398 N 
HETATM   13  H1  UNL     1      19.734  -2.496  54.567  1.00  0.00     0.156 HD
HETATM   14  H2  UNL     1      20.864  -1.266  54.630  1.00  0.00     0.156 HD
ENDBRANCH   7  12
ENDBRANCH   1   6
BRANCH   4  15
HETATM   15  C8  UNL     1      24.502   1.502  51.896  1.00  0.00     0.187 C 
BRANCH  15  16
HETATM   16  S2  UNL     1      25.338   0.973  53.418  1.00  0.00    -0.143 SA
BRANCH  16  17
HETATM   17  C9  UNL     1      26.935   0.174  53.025  1.00  0.00     0.093 C 
HETATM   18  C10 UNL     1      26.771  -1.266  52.824  1.00  0.00    -0.008 C 
HETATM   19  C11 UNL     1      27.622  -2.280  52.797  1.00  0.00    -0.003 C 
HETATM   20  C12 UNL     1      29.040  -2.065  52.993  1.00  0.00    -0.000 C 
HETATM   21  C13 UNL     1      29.751  -1.108  53.615  1.00  0.00    -0.000 C 
HETATM   22  C14 UNL     1      29.079   0.011  54.278  1.00  0.00    -0.003 C 
HETATM   23  C15 UNL     1      27.896   0.575  54.054  1.00  0.00    -0.008 C 
ENDBRANCH  16  17
ENDBRANCH  15  16
ENDBRANCH   4  15
TORSDOF 5
ENDMDL
MODEL 8
REMARK VINA RESULT:      -7.3      3.521      5.836
REMARK  5 active torsions:
REMARK  status: ('A' for Active; 'I' for Inactive)
REMARK    1  A    between atoms: N1_1  and  C1_2 
REMARK    2  A    between atoms: C6_7  and  C7_8 
REMARK    3  A    between atoms: S1_11  and  C8_12 
REMARK    4  A    between atoms: C8_12  and  S2_13 
REMARK    5  A    between atoms: S2_13  and  C9_14 
ROOT
HETATM    1  C7  UNL     1      26.477   1.048  53.139  1.00  0.00     0.206 A 
HETATM    2  N2  UNL     1      26.387   1.982  53.954  1.00  0.00    -0.141 NA
HETATM    3  N3  UNL     1      25.235   2.828  53.880  1.00  0.00    -0.023 NA
HETATM    4  S1  UNL     1      24.352   2.198  52.609  1.00  0.00     0.044 SA
HETATM    5  O1  UNL     1      25.500   0.826  52.184  1.00  0.00    -0.250 OA
ENDROOT
BRANCH   1   6
HETATM    6  C6  UNL     1      27.671   0.205  53.249  1.00  0.00     0.045 A 
HETATM    7  C1  UNL     1      27.743  -1.158  52.988  1.00  0.00     0.040 A 
HETATM    8  C2  UNL     1      28.894  -1.899  53.108  1.00  0.00     0.030 A 
HETATM    9  C3  UNL     1      30.055  -1.311  53.502  1.00  0.00     0.002 A 
HETATM   10  C4  UNL     1      30.013   0.038  53.768  1.00  0.00     0.001 A 
HETATM   11  C5  UNL     1      28.862   0.780  53.648  1.00  0.00     0.018 A 
BRANCH   7  12
HETATM   12  N1  UNL     1      26.534  -1.784  52.575  1.00  0.00    -0.398 N 
HETATM   13  H1  UNL     1      25.950  -1.897  53.435  1.00  0.00     0.156 HD
HETATM   14  H2  UNL     1      25.981  -2.177  51.787  1.00  0.00     0.156 HD
ENDBRANCH   7  12
ENDBRANCH   1   6
BRANCH   4  15
HETATM   15  C8  UNL     1      22.800   2.666  51.870  1.00  0.00     0.187 C 
BRANCH  15  16
HETATM   16  S2  UNL     1      22.313   1.513  50.556  1.00  0.00    -0.143 SA
BRANCH  16  17
HETATM   17  C9  UNL     1      21.019   0.368  51.156  1.00  0.00     0.093 C 
HETATM   18  C10 UNL     1      19.714   0.700  50.583  1.00  0.00    -0.008 C 
HETATM   19  C11 UNL     1      18.473   0.365  50.903  1.00  0.00    -0.003 C 
HETATM   20  C12 UNL     1      18.204  -0.503  52.029  1.00  0.00    -0.000 C 
HETATM   21  C13 UNL     1      18.879  -0.785  53.158  1.00  0.00    -0.000 C 
HETATM   22  C14 UNL     1      20.170  -0.154  53.436  1.00  0.00    -0.003 C 
HETATM   23  C15 UNL     1      21.093   0.342  52.617  1.00  0.00    -0.008 C 
ENDBRANCH  16  17
ENDBRANCH  15  16
ENDBRANCH   4  15
TORSDOF 5
ENDMDL
MODEL 9
REMARK VINA RESULT:      -7.3      1.293      2.304
REMARK  5 active torsions:
REMARK  status: ('A' for Active; 'I' for Inactive)
REMARK    1  A    between atoms: N1_1  and  C1_2 
REMARK    2  A    between atoms: C6_7  and  C7_8 
REMARK    3  A    between atoms: S1_11  and  C8_12 
REMARK    4  A    between atoms: C8_12  and  S2_13 
REMARK    5  A    between atoms: S2_13  and  C9_14 
ROOT
HETATM    1  C7  UNL     1      26.530   1.085  53.093  1.00  0.00     0.206 A 
HETATM    2  N2  UNL     1      26.402   1.963  53.962  1.00  0.00    -0.141 NA
HETATM    3  N3  UNL     1      25.274   2.839  53.869  1.00  0.00    -0.023 NA
HETATM    4  S1  UNL     1      24.467   2.316  52.503  1.00  0.00     0.044 SA
HETATM    5  O1  UNL     1      25.616   0.949  52.062  1.00  0.00    -0.250 OA
ENDROOT
BRANCH   1   6
HETATM    6  C6  UNL     1      27.699   0.208  53.224  1.00  0.00     0.045 A 
HETATM    7  C1  UNL     1      27.724  -1.165  53.020  1.00  0.00     0.040 A 
HETATM    8  C2  UNL     1      28.852  -1.938  53.157  1.00  0.00     0.030 A 
HETATM    9  C3  UNL     1      30.036  -1.371  53.512  1.00  0.00     0.002 A 
HETATM   10  C4  UNL     1      30.041  -0.011  53.721  1.00  0.00     0.001 A 
HETATM   11  C5  UNL     1      28.912   0.762  53.584  1.00  0.00     0.018 A 
BRANCH   7  12
HETATM   12  N1  UNL     1      26.490  -1.769  52.649  1.00  0.00    -0.398 N 
HETATM   13  H1  UNL     1      26.327  -2.551  53.324  1.00  0.00     0.156 HD
HETATM   14  H2  UNL     1      25.681  -1.768  51.996  1.00  0.00     0.156 HD
ENDBRANCH   7  12
ENDBRANCH   1   6
BRANCH   4  15
HETATM   15  C8  UNL     1      22.978   2.868  51.696  1.00  0.00     0.187 C 
BRANCH  15  16
HETATM   16  S2  UNL     1      23.035   2.558  49.909  1.00  0.00    -0.143 SA
BRANCH  16  17
HETATM   17  C9  UNL     1      24.250   3.663  49.106  1.00  0.00     0.093 C 
HETATM   18  C10 UNL     1      25.619   3.301  49.474  1.00  0.00    -0.008 C 
HETATM   19  C11 UNL     1      26.779   3.933  49.385  1.00  0.00    -0.003 C 
HETATM   20  C12 UNL     1      26.857   5.267  48.829  1.00  0.00    -0.000 C 
HETATM   21  C13 UNL     1      25.971   6.272  48.713  1.00  0.00    -0.000 C 
HETATM   22  C14 UNL     1      24.603   6.124  49.213  1.00  0.00    -0.003 C 
HETATM   23  C15 UNL     1      23.851   5.042  49.390  1.00  0.00    -0.008 C 
ENDBRANCH  16  17
ENDBRANCH  15  16
ENDBRANCH   4  15
TORSDOF 5
ENDMDL
