MODEL 1
REMARK VINA RESULT:      -7.2      0.000      0.000
REMARK  3 active torsions:
REMARK  status: ('A' for Active; 'I' for Inactive)
REMARK    1  A    between atoms: O1_2  and  S1_3 
REMARK    2  A    between atoms: S1_3  and  C2_4 
REMARK    3  A    between atoms: C14_19  and  O2_20 
ROOT
HETATM    1  C2  UNL     1      25.810   2.033  51.945  1.00  0.00     0.061 C 
HETATM    2  C3  UNL     1      26.858   1.781  52.781  1.00  0.00     0.038 C 
HETATM    3  C4  UNL     1      27.352   0.870  53.803  1.00  0.00     0.117 A 
HETATM    4  C5  UNL     1      28.794   1.317  54.033  1.00  0.00     0.011 A 
HETATM    5  C6  UNL     1      29.899   0.647  53.823  1.00  0.00    -0.022 A 
HETATM    6  C7  UNL     1      29.868  -0.725  53.299  1.00  0.00     0.078 A 
HETATM    7  C8  UNL     1      28.518  -1.284  53.153  1.00  0.00     0.021 A 
HETATM    8 CL1  UNL     1      28.392  -2.964  52.658  1.00  0.00    -0.088 Cl
HETATM    9  C9  UNL     1      27.413  -0.577  53.376  1.00  0.00    -0.019 A 
HETATM   10  C10 UNL     1      26.199  -1.474  53.126  1.00  0.00     0.098 C 
HETATM   11  C11 UNL     1      24.981  -0.605  53.467  1.00  0.00     0.042 C 
HETATM   12  N1  UNL     1      24.645  -0.511  54.764  1.00  0.00    -0.247 NA
HETATM   13  C12 UNL     1      25.700   0.216  55.602  1.00  0.00     0.229 C 
HETATM   14  N2  UNL     1      26.808   0.890  55.151  1.00  0.00    -0.259 NA
HETATM   15  C13 UNL     1      24.027   0.321  52.693  1.00  0.00     0.065 C 
HETATM   16  C14 UNL     1      24.469   1.328  51.815  1.00  0.00     0.088 C 
ENDROOT
BRANCH   1  17
HETATM   17  S1  UNL     1      25.636   3.291  50.740  1.00  0.00     0.030 SA
BRANCH  17  18
HETATM   18  O1  UNL     1      27.159   3.691  50.099  1.00  0.00    -0.320 OA
HETATM   19  C1  UNL     1      27.087   4.532  49.004  1.00  0.00     0.220 C 
ENDBRANCH  17  18
ENDBRANCH   1  17
BRANCH  16  20
HETATM   20  O2  UNL     1      23.436   1.389  51.002  1.00  0.00    -0.354 OA
HETATM   21  C15 UNL     1      22.137   1.001  51.341  1.00  0.00     0.210 C 
ENDBRANCH  16  20
TORSDOF 3
ENDMDL
MODEL 2
REMARK VINA RESULT:      -6.8      3.452      6.172
REMARK  3 active torsions:
REMARK  status: ('A' for Active; 'I' for Inactive)
REMARK    1  A    between atoms: O1_2  and  S1_3 
REMARK    2  A    between atoms: S1_3  and  C2_4 
REMARK    3  A    between atoms: C14_19  and  O2_20 
ROOT
HETATM    1  C2  UNL     1      25.709   2.563  51.736  1.00  0.00     0.061 C 
HETATM    2  C3  UNL     1      24.457   2.274  52.192  1.00  0.00     0.038 C 
HETATM    3  C4  UNL     1      23.039   2.505  51.958  1.00  0.00     0.117 A 
HETATM    4  C5  UNL     1      22.342   1.553  52.927  1.00  0.00     0.011 A 
HETATM    5  C6  UNL     1      21.557   0.541  52.653  1.00  0.00    -0.022 A 
HETATM    6  C7  UNL     1      21.234   0.183  51.267  1.00  0.00     0.078 A 
HETATM    7  C8  UNL     1      21.769   1.114  50.264  1.00  0.00     0.021 A 
HETATM    8 CL1  UNL     1      21.320   0.837  48.588  1.00  0.00    -0.088 Cl
HETATM    9  C9  UNL     1      22.564   2.135  50.574  1.00  0.00    -0.019 A 
HETATM   10  C10 UNL     1      22.924   2.883  49.289  1.00  0.00     0.098 C 
HETATM   11  C11 UNL     1      23.782   4.071  49.744  1.00  0.00     0.042 C 
HETATM   12  N1  UNL     1      23.128   5.156  50.191  1.00  0.00    -0.247 NA
HETATM   13  C12 UNL     1      22.367   4.898  51.494  1.00  0.00     0.229 C 
HETATM   14  N2  UNL     1      22.424   3.781  52.289  1.00  0.00    -0.259 NA
HETATM   15  C13 UNL     1      25.284   4.352  49.923  1.00  0.00     0.065 C 
HETATM   16  C14 UNL     1      26.154   3.491  50.616  1.00  0.00     0.088 C 
ENDROOT
BRANCH   1  17
HETATM   17  S1  UNL     1      27.257   1.979  52.311  1.00  0.00     0.030 SA
BRANCH  17  18
HETATM   18  O1  UNL     1      27.245   1.890  54.008  1.00  0.00    -0.320 OA
HETATM   19  C1  UNL     1      26.970   0.623  54.486  1.00  0.00     0.220 C 
ENDBRANCH  17  18
ENDBRANCH   1  17
BRANCH  16  20
HETATM   20  O2  UNL     1      27.286   3.777  50.010  1.00  0.00    -0.354 OA
HETATM   21  C15 UNL     1      27.393   4.567  48.862  1.00  0.00     0.210 C 
ENDBRANCH  16  20
TORSDOF 3
ENDMDL
MODEL 3
REMARK VINA RESULT:      -6.7      3.511      6.407
REMARK  3 active torsions:
REMARK  status: ('A' for Active; 'I' for Inactive)
REMARK    1  A    between atoms: O1_2  and  S1_3 
REMARK    2  A    between atoms: S1_3  and  C2_4 
REMARK    3  A    between atoms: C14_19  and  O2_20 
ROOT
HETATM    1  C2  UNL     1      25.037   0.745  52.475  1.00  0.00     0.061 C 
HETATM    2  C3  UNL     1      23.698   0.896  52.265  1.00  0.00     0.038 C 
HETATM    3  C4  UNL     1      22.691   1.774  51.686  1.00  0.00     0.117 A 
HETATM    4  C5  UNL     1      21.399   0.965  51.771  1.00  0.00     0.011 A 
HETATM    5  C6  UNL     1      20.644   0.528  50.794  1.00  0.00    -0.022 A 
HETATM    6  C7  UNL     1      20.988   0.794  49.392  1.00  0.00     0.078 A 
HETATM    7  C8  UNL     1      22.156   1.664  49.212  1.00  0.00     0.021 A 
HETATM    8 CL1  UNL     1      22.560   2.142  47.570  1.00  0.00    -0.088 Cl
HETATM    9  C9  UNL     1      22.904   2.093  50.226  1.00  0.00    -0.019 A 
HETATM   10  C10 UNL     1      24.027   2.971  49.670  1.00  0.00     0.098 C 
HETATM   11  C11 UNL     1      24.793   3.469  50.902  1.00  0.00     0.042 C 
HETATM   12  N1  UNL     1      24.283   4.532  51.546  1.00  0.00    -0.247 NA
HETATM   13  C12 UNL     1      22.934   4.236  52.207  1.00  0.00     0.229 C 
HETATM   14  N2  UNL     1      22.316   3.017  52.340  1.00  0.00    -0.259 NA
HETATM   15  C13 UNL     1      26.019   3.008  51.710  1.00  0.00     0.065 C 
HETATM   16  C14 UNL     1      26.189   1.688  52.168  1.00  0.00     0.088 C 
ENDROOT
BRANCH   1  17
HETATM   17  S1  UNL     1      25.896  -0.593  53.209  1.00  0.00     0.030 SA
BRANCH  17  18
HETATM   18  O1  UNL     1      25.806  -0.477  54.903  1.00  0.00    -0.320 OA
HETATM   19  C1  UNL     1      24.706  -1.123  55.436  1.00  0.00     0.220 C 
ENDBRANCH  17  18
ENDBRANCH   1  17
BRANCH  16  20
HETATM   20  O2  UNL     1      27.503   1.633  52.213  1.00  0.00    -0.354 OA
HETATM   21  C15 UNL     1      28.290   2.257  53.185  1.00  0.00     0.210 C 
ENDBRANCH  16  20
TORSDOF 3
ENDMDL
MODEL 4
REMARK VINA RESULT:      -6.4      7.598     10.629
REMARK  3 active torsions:
REMARK  status: ('A' for Active; 'I' for Inactive)
REMARK    1  A    between atoms: O1_2  and  S1_3 
REMARK    2  A    between atoms: S1_3  and  C2_4 
REMARK    3  A    between atoms: C14_19  and  O2_20 
ROOT
HETATM    1  C2  UNL     1      30.586   6.761  47.653  1.00  0.00     0.061 C 
HETATM    2  C3  UNL     1      31.472   5.922  47.043  1.00  0.00     0.038 C 
HETATM    3  C4  UNL     1      32.855   5.788  46.609  1.00  0.00     0.117 A 
HETATM    4  C5  UNL     1      32.966   4.331  46.167  1.00  0.00     0.011 A 
HETATM    5  C6  UNL     1      33.712   3.380  46.671  1.00  0.00    -0.022 A 
HETATM    6  C7  UNL     1      34.601   3.636  47.812  1.00  0.00     0.078 A 
HETATM    7  C8  UNL     1      34.648   5.041  48.236  1.00  0.00     0.021 A 
HETATM    8 CL1  UNL     1      35.784   5.461  49.508  1.00  0.00    -0.088 Cl
HETATM    9  C9  UNL     1      33.876   5.985  47.703  1.00  0.00    -0.019 A 
HETATM   10  C10 UNL     1      34.192   7.318  48.384  1.00  0.00     0.098 C 
HETATM   11  C11 UNL     1      33.311   8.352  47.669  1.00  0.00     0.042 C 
HETATM   12  N1  UNL     1      33.770   8.839  46.505  1.00  0.00    -0.247 NA
HETATM   13  C12 UNL     1      33.838   7.780  45.401  1.00  0.00     0.229 C 
HETATM   14  N2  UNL     1      33.345   6.499  45.439  1.00  0.00    -0.259 NA
HETATM   15  C13 UNL     1      31.916   8.963  47.887  1.00  0.00     0.065 C 
HETATM   16  C14 UNL     1      30.766   8.191  48.137  1.00  0.00     0.088 C 
ENDROOT
BRANCH   1  17
HETATM   17  S1  UNL     1      28.907   6.484  48.068  1.00  0.00     0.030 SA
BRANCH  17  18
HETATM   18  O1  UNL     1      28.661   4.837  48.407  1.00  0.00    -0.320 OA
HETATM   19  C1  UNL     1      27.380   4.555  48.843  1.00  0.00     0.220 C 
ENDBRANCH  17  18
ENDBRANCH   1  17
BRANCH  16  20
HETATM   20  O2  UNL     1      30.055   9.061  48.822  1.00  0.00    -0.354 OA
HETATM   21  C15 UNL     1      30.573  10.215  49.417  1.00  0.00     0.210 C 
ENDBRANCH  16  20
TORSDOF 3
ENDMDL
MODEL 5
REMARK VINA RESULT:      -6.3      3.976      6.077
REMARK  3 active torsions:
REMARK  status: ('A' for Active; 'I' for Inactive)
REMARK    1  A    between atoms: O1_2  and  S1_3 
REMARK    2  A    between atoms: S1_3  and  C2_4 
REMARK    3  A    between atoms: C14_19  and  O2_20 
ROOT
HETATM    1  C2  UNL     1      25.675   2.035  51.813  1.00  0.00     0.061 C 
HETATM    2  C3  UNL     1      25.866   2.859  50.743  1.00  0.00     0.038 C 
HETATM    3  C4  UNL     1      25.193   3.761  49.820  1.00  0.00     0.117 A 
HETATM    4  C5  UNL     1      26.331   4.407  49.034  1.00  0.00     0.011 A 
HETATM    5  C6  UNL     1      26.681   5.668  48.992  1.00  0.00    -0.022 A 
HETATM    6  C7  UNL     1      25.952   6.685  49.760  1.00  0.00     0.078 A 
HETATM    7  C8  UNL     1      24.766   6.175  50.461  1.00  0.00     0.021 A 
HETATM    8 CL1  UNL     1      23.759   7.347  51.297  1.00  0.00    -0.088 Cl
HETATM    9  C9  UNL     1      24.436   4.886  50.485  1.00  0.00    -0.019 A 
HETATM   10  C10 UNL     1      23.154   4.723  51.302  1.00  0.00     0.098 C 
HETATM   11  C11 UNL     1      22.814   3.229  51.223  1.00  0.00     0.042 C 
HETATM   12  N1  UNL     1      22.166   2.811  50.124  1.00  0.00    -0.247 NA
HETATM   13  C12 UNL     1      23.009   2.933  48.852  1.00  0.00     0.229 C 
HETATM   14  N2  UNL     1      24.342   3.249  48.758  1.00  0.00    -0.259 NA
HETATM   15  C13 UNL     1      23.106   1.978  52.069  1.00  0.00     0.065 C 
HETATM   16  C14 UNL     1      24.393   1.636  52.525  1.00  0.00     0.088 C 
ENDROOT
BRANCH   1  17
HETATM   17  S1  UNL     1      26.856   1.120  52.727  1.00  0.00     0.030 SA
BRANCH  17  18
HETATM   18  O1  UNL     1      27.502   2.086  53.966  1.00  0.00    -0.320 OA
HETATM   19  C1  UNL     1      28.805   2.481  53.727  1.00  0.00     0.220 C 
ENDBRANCH  17  18
ENDBRANCH   1  17
BRANCH  16  20
HETATM   20  O2  UNL     1      24.076   0.958  53.608  1.00  0.00    -0.354 OA
HETATM   21  C15 UNL     1      23.383  -0.256  53.608  1.00  0.00     0.210 C 
ENDBRANCH  16  20
TORSDOF 3
ENDMDL
MODEL 6
REMARK VINA RESULT:      -6.2      4.039      6.397
REMARK  3 active torsions:
REMARK  status: ('A' for Active; 'I' for Inactive)
REMARK    1  A    between atoms: O1_2  and  S1_3 
REMARK    2  A    between atoms: S1_3  and  C2_4 
REMARK    3  A    between atoms: C14_19  and  O2_20 
ROOT
HETATM    1  C2  UNL     1      23.709   0.882  52.460  1.00  0.00     0.061 C 
HETATM    2  C3  UNL     1      23.884   1.607  51.318  1.00  0.00     0.038 C 
HETATM    3  C4  UNL     1      23.190   2.390  50.305  1.00  0.00     0.117 A 
HETATM    4  C5  UNL     1      24.315   3.004  49.476  1.00  0.00     0.011 A 
HETATM    5  C6  UNL     1      24.614   4.269  49.318  1.00  0.00    -0.022 A 
HETATM    6  C7  UNL     1      23.832   5.323  49.976  1.00  0.00     0.078 A 
HETATM    7  C8  UNL     1      22.656   4.834  50.708  1.00  0.00     0.021 A 
HETATM    8 CL1  UNL     1      21.590   6.036  51.415  1.00  0.00    -0.088 Cl
HETATM    9  C9  UNL     1      22.378   3.540  50.850  1.00  0.00    -0.019 A 
HETATM   10  C10 UNL     1      21.090   3.402  51.663  1.00  0.00     0.098 C 
HETATM   11  C11 UNL     1      20.812   1.894  51.722  1.00  0.00     0.042 C 
HETATM   12  N1  UNL     1      20.199   1.347  50.660  1.00  0.00    -0.247 NA
HETATM   13  C12 UNL     1      21.058   1.383  49.393  1.00  0.00     0.229 C 
HETATM   14  N2  UNL     1      22.379   1.744  49.286  1.00  0.00    -0.259 NA
HETATM   15  C13 UNL     1      21.140   0.742  52.688  1.00  0.00     0.065 C 
HETATM   16  C14 UNL     1      22.431   0.499  53.191  1.00  0.00     0.088 C 
ENDROOT
BRANCH   1  17
HETATM   17  S1  UNL     1      24.909   0.107  53.472  1.00  0.00     0.030 SA
BRANCH  17  18
HETATM   18  O1  UNL     1      26.222  -0.404  52.521  1.00  0.00    -0.320 OA
HETATM   19  C1  UNL     1      27.392  -0.555  53.242  1.00  0.00     0.220 C 
ENDBRANCH  17  18
ENDBRANCH   1  17
BRANCH  16  20
HETATM   20  O2  UNL     1      22.124  -0.086  54.329  1.00  0.00    -0.354 OA
HETATM   21  C15 UNL     1      21.417  -1.286  54.437  1.00  0.00     0.210 C 
ENDBRANCH  16  20
TORSDOF 3
ENDMDL
MODEL 7
REMARK VINA RESULT:      -5.9      5.509      6.718
REMARK  3 active torsions:
REMARK  status: ('A' for Active; 'I' for Inactive)
REMARK    1  A    between atoms: O1_2  and  S1_3 
REMARK    2  A    between atoms: S1_3  and  C2_4 
REMARK    3  A    between atoms: C14_19  and  O2_20 
ROOT
HETATM    1  C2  UNL     1      22.598   5.445  47.746  1.00  0.00     0.061 C 
HETATM    2  C3  UNL     1      23.836   5.894  48.101  1.00  0.00     0.038 C 
HETATM    3  C4  UNL     1      24.803   5.937  49.189  1.00  0.00     0.117 A 
HETATM    4  C5  UNL     1      26.055   6.530  48.549  1.00  0.00     0.011 A 
HETATM    5  C6  UNL     1      27.231   5.976  48.392  1.00  0.00    -0.022 A 
HETATM    6  C7  UNL     1      27.495   4.608  48.855  1.00  0.00     0.078 A 
HETATM    7  C8  UNL     1      26.380   3.994  49.587  1.00  0.00     0.021 A 
HETATM    8 CL1  UNL     1      26.654   2.409  50.292  1.00  0.00    -0.088 Cl
HETATM    9  C9  UNL     1      25.195   4.584  49.731  1.00  0.00    -0.019 A 
HETATM   10  C10 UNL     1      24.284   3.662  50.543  1.00  0.00     0.098 C 
HETATM   11  C11 UNL     1      22.974   4.442  50.714  1.00  0.00     0.042 C 
HETATM   12  N1  UNL     1      22.933   5.350  51.702  1.00  0.00    -0.247 NA
HETATM   13  C12 UNL     1      23.883   6.528  51.469  1.00  0.00     0.229 C 
HETATM   14  N2  UNL     1      24.603   6.810  50.334  1.00  0.00    -0.259 NA
HETATM   15  C13 UNL     1      21.634   4.540  49.965  1.00  0.00     0.065 C 
HETATM   16  C14 UNL     1      21.539   4.734  48.574  1.00  0.00     0.088 C 
ENDROOT
BRANCH   1  17
HETATM   17  S1  UNL     1      21.782   5.561  46.201  1.00  0.00     0.030 SA
BRANCH  17  18
HETATM   18  O1  UNL     1      21.964   4.106  45.341  1.00  0.00    -0.320 OA
HETATM   19  C1  UNL     1      20.969   3.898  44.404  1.00  0.00     0.220 C 
ENDBRANCH  17  18
ENDBRANCH   1  17
BRANCH  16  20
HETATM   20  O2  UNL     1      20.378   4.160  48.344  1.00  0.00    -0.354 OA
HETATM   21  C15 UNL     1      20.188   2.782  48.204  1.00  0.00     0.210 C 
ENDBRANCH  16  20
TORSDOF 3
ENDMDL
MODEL 8
REMARK VINA RESULT:      -5.8      7.234      9.964
REMARK  3 active torsions:
REMARK  status: ('A' for Active; 'I' for Inactive)
REMARK    1  A    between atoms: O1_2  and  S1_3 
REMARK    2  A    between atoms: S1_3  and  C2_4 
REMARK    3  A    between atoms: C14_19  and  O2_20 
ROOT
HETATM    1  C2  UNL     1      27.977   8.121  48.912  1.00  0.00     0.061 C 
HETATM    2  C3  UNL     1      29.041   8.971  48.984  1.00  0.00     0.038 C 
HETATM    3  C4  UNL     1      30.469   9.091  48.728  1.00  0.00     0.117 A 
HETATM    4  C5  UNL     1      30.764  10.572  48.953  1.00  0.00     0.011 A 
HETATM    5  C6  UNL     1      31.195  11.458  48.091  1.00  0.00    -0.022 A 
HETATM    6  C7  UNL     1      31.465  11.092  46.695  1.00  0.00     0.078 A 
HETATM    7  C8  UNL     1      31.318   9.659  46.409  1.00  0.00     0.021 A 
HETATM    8 CL1  UNL     1      31.749   9.111  44.797  1.00  0.00    -0.088 Cl
HETATM    9  C9  UNL     1      30.878   8.781  47.308  1.00  0.00    -0.019 A 
HETATM   10  C10 UNL     1      30.853   7.393  46.666  1.00  0.00     0.098 C 
HETATM   11  C11 UNL     1      30.400   6.443  47.782  1.00  0.00     0.042 C 
HETATM   12  N1  UNL     1      31.341   6.026  48.645  1.00  0.00    -0.247 NA
HETATM   13  C12 UNL     1      31.902   7.160  49.508  1.00  0.00     0.229 C 
HETATM   14  N2  UNL     1      31.442   8.450  49.598  1.00  0.00    -0.259 NA
HETATM   15  C13 UNL     1      29.061   5.865  48.273  1.00  0.00     0.065 C 
HETATM   16  C14 UNL     1      27.921   6.654  48.515  1.00  0.00     0.088 C 
ENDROOT
BRANCH   1  17
HETATM   17  S1  UNL     1      26.294   8.423  49.288  1.00  0.00     0.030 SA
BRANCH  17  18
HETATM   18  O1  UNL     1      25.830   7.502  50.639  1.00  0.00    -0.320 OA
HETATM   19  C1  UNL     1      24.503   7.116  50.607  1.00  0.00     0.220 C 
ENDBRANCH  17  18
ENDBRANCH   1  17
BRANCH  16  20
HETATM   20  O2  UNL     1      26.979   5.761  48.300  1.00  0.00    -0.354 OA
HETATM   21  C15 UNL     1      26.861   4.550  48.988  1.00  0.00     0.210 C 
ENDBRANCH  16  20
TORSDOF 3
ENDMDL
MODEL 9
REMARK VINA RESULT:      -5.7      7.851     10.456
REMARK  3 active torsions:
REMARK  status: ('A' for Active; 'I' for Inactive)
REMARK    1  A    between atoms: O1_2  and  S1_3 
REMARK    2  A    between atoms: S1_3  and  C2_4 
REMARK    3  A    between atoms: C14_19  and  O2_20 
ROOT
HETATM    1  C2  UNL     1      30.234   8.167  47.935  1.00  0.00     0.061 C 
HETATM    2  C3  UNL     1      31.552   8.498  47.827  1.00  0.00     0.038 C 
HETATM    3  C4  UNL     1      32.885   7.957  47.600  1.00  0.00     0.117 A 
HETATM    4  C5  UNL     1      33.768   9.192  47.454  1.00  0.00     0.011 A 
HETATM    5  C6  UNL     1      34.457   9.585  46.412  1.00  0.00    -0.022 A 
HETATM    6  C7  UNL     1      34.455   8.811  45.165  1.00  0.00     0.078 A 
HETATM    7  C8  UNL     1      33.721   7.541  45.245  1.00  0.00     0.021 A 
HETATM    8 CL1  UNL     1      33.777   6.488  43.839  1.00  0.00    -0.088 Cl
HETATM    9  C9  UNL     1      33.031   7.170  46.320  1.00  0.00    -0.019 A 
HETATM   10  C10 UNL     1      32.400   5.802  46.049  1.00  0.00     0.098 C 
HETATM   11  C11 UNL     1      31.683   5.426  47.352  1.00  0.00     0.042 C 
HETATM   12  N1  UNL     1      32.436   4.885  48.325  1.00  0.00    -0.247 NA
HETATM   13  C12 UNL     1      33.467   5.863  48.893  1.00  0.00     0.229 C 
HETATM   14  N2  UNL     1      33.576   7.208  48.637  1.00  0.00    -0.259 NA
HETATM   15  C13 UNL     1      30.265   5.585  47.925  1.00  0.00     0.065 C 
HETATM   16  C14 UNL     1      29.561   6.804  47.919  1.00  0.00     0.088 C 
ENDROOT
BRANCH   1  17
HETATM   17  S1  UNL     1      28.847   9.213  48.162  1.00  0.00     0.030 SA
BRANCH  17  18
HETATM   18  O1  UNL     1      28.529   9.396  49.821  1.00  0.00    -0.320 OA
HETATM   19  C1  UNL     1      27.223   9.098  50.162  1.00  0.00     0.220 C 
ENDBRANCH  17  18
ENDBRANCH   1  17
BRANCH  16  20
HETATM   20  O2  UNL     1      28.326   6.352  47.903  1.00  0.00    -0.354 OA
HETATM   21  C15 UNL     1      27.897   5.191  48.554  1.00  0.00     0.210 C 
ENDBRANCH  16  20
TORSDOF 3
ENDMDL
