MODEL 1
REMARK VINA RESULT:      -8.7      0.000      0.000
REMARK  9 active torsions:
REMARK  status: ('A' for Active; 'I' for Inactive)
REMARK    1  A    between atoms: C3_4  and  C4_5 
REMARK    2  A    between atoms: C11_14  and  C12_15 
REMARK    3  A    between atoms: C12_15  and  C13_16 
REMARK    4  A    between atoms: C13_16  and  C14_17 
REMARK    5  A    between atoms: C14_17  and  C15_18 
REMARK    6  A    between atoms: C15_18  and  C16_19 
REMARK    7  A    between atoms: C16_19  and  O3_20 
REMARK    8  A    between atoms: C17_21  and  O4_22 
REMARK    9  A    between atoms: C19_24  and  O5_25 
ROOT
HETATM    1  O1  UNL     1      22.944  -1.728  55.743  1.00  0.00    -0.287 OA
HETATM    2  C1  UNL     1      23.530  -1.068  54.838  1.00  0.00     0.190 A 
HETATM    3  C2  UNL     1      24.893  -0.914  54.743  1.00  0.00     0.094 A 
HETATM    4  C3  UNL     1      25.521  -0.192  53.752  1.00  0.00     0.091 A 
HETATM    5  O2  UNL     1      24.735   0.367  52.865  1.00  0.00    -0.308 OA
HETATM    6  C10 UNL     1      23.431   0.251  52.909  1.00  0.00     0.102 A 
HETATM    7  C11 UNL     1      22.617   0.856  51.952  1.00  0.00     0.010 A 
HETATM    8  C17 UNL     1      21.237   0.721  52.016  1.00  0.00     0.077 A 
HETATM    9  C18 UNL     1      20.591   0.005  52.998  1.00  0.00     0.074 A 
HETATM   10  C19 UNL     1      21.380  -0.598  53.949  1.00  0.00     0.085 A 
HETATM   11  C20 UNL     1      22.748  -0.459  53.877  1.00  0.00     0.082 A 
ENDROOT
BRANCH   4  12
HETATM   12  C4  UNL     1      26.961  -0.090  53.741  1.00  0.00     0.020 A 
HETATM   13  C5  UNL     1      27.658   0.962  54.258  1.00  0.00     0.016 A 
HETATM   14  C6  UNL     1      29.031   1.090  54.262  1.00  0.00     0.001 A 
HETATM   15  C7  UNL     1      29.807   0.095  53.710  1.00  0.00     0.002 A 
HETATM   16  C8  UNL     1      29.159  -0.999  53.168  1.00  0.00     0.025 A 
HETATM   17  C9  UNL     1      27.773  -1.061  53.199  1.00  0.00     0.047 A 
HETATM   18 CL1  UNL     1      27.113  -2.494  52.483  1.00  0.00    -0.083 Cl
ENDBRANCH   4  12
BRANCH   7  19
HETATM   19  C12 UNL     1      23.180   1.651  50.851  1.00  0.00     0.044 C 
BRANCH  19  20
HETATM   20  C13 UNL     1      23.209   3.103  51.305  1.00  0.00     0.005 C 
BRANCH  20  21
HETATM   21  C14 UNL     1      24.611   3.585  51.578  1.00  0.00     0.002 C 
BRANCH  21  22
HETATM   22  C15 UNL     1      25.207   4.031  50.260  1.00  0.00     0.026 C 
BRANCH  22  23
HETATM   23  C16 UNL     1      26.549   3.392  49.986  1.00  0.00     0.164 C 
BRANCH  23  24
HETATM   24  O3  UNL     1      27.159   3.148  51.224  1.00  0.00    -0.401 OA
HETATM   25  H16 UNL     1      26.507   2.808  51.889  1.00  0.00     0.209 HD
ENDBRANCH  23  24
ENDBRANCH  22  23
ENDBRANCH  21  22
ENDBRANCH  20  21
ENDBRANCH  19  20
ENDBRANCH   7  19
BRANCH  10  26
HETATM   26  O5  UNL     1      20.755  -1.324  54.948  1.00  0.00    -0.360 OA
HETATM   27  H19 UNL     1      20.417  -0.828  55.766  1.00  0.00     0.217 HD
ENDBRANCH  10  26
BRANCH   8  28
HETATM   28  O4  UNL     1      20.422   1.327  51.057  1.00  0.00    -0.360 OA
HETATM   29  H17 UNL     1      20.070   2.270  51.169  1.00  0.00     0.217 HD
ENDBRANCH   8  28
TORSDOF 9
ENDMDL
MODEL 2
REMARK VINA RESULT:      -8.4      2.273      5.623
REMARK  9 active torsions:
REMARK  status: ('A' for Active; 'I' for Inactive)
REMARK    1  A    between atoms: C3_4  and  C4_5 
REMARK    2  A    between atoms: C11_14  and  C12_15 
REMARK    3  A    between atoms: C12_15  and  C13_16 
REMARK    4  A    between atoms: C13_16  and  C14_17 
REMARK    5  A    between atoms: C14_17  and  C15_18 
REMARK    6  A    between atoms: C15_18  and  C16_19 
REMARK    7  A    between atoms: C16_19  and  O3_20 
REMARK    8  A    between atoms: C17_21  and  O4_22 
REMARK    9  A    between atoms: C19_24  and  O5_25 
ROOT
HETATM    1  O1  UNL     1      19.920  -0.528  53.045  1.00  0.00    -0.287 OA
HETATM    2  C1  UNL     1      21.024  -0.036  52.678  1.00  0.00     0.190 A 
HETATM    3  C2  UNL     1      21.191   0.774  51.580  1.00  0.00     0.094 A 
HETATM    4  C3  UNL     1      22.400   1.305  51.189  1.00  0.00     0.091 A 
HETATM    5  O2  UNL     1      23.431   0.996  51.937  1.00  0.00    -0.308 OA
HETATM    6  C10 UNL     1      23.327   0.229  52.994  1.00  0.00     0.102 A 
HETATM    7  C11 UNL     1      24.439  -0.085  53.774  1.00  0.00     0.010 A 
HETATM    8  C17 UNL     1      24.308  -0.899  54.890  1.00  0.00     0.077 A 
HETATM    9  C18 UNL     1      23.109  -1.440  55.296  1.00  0.00     0.074 A 
HETATM   10  C19 UNL     1      22.003  -1.140  54.538  1.00  0.00     0.085 A 
HETATM   11  C20 UNL     1      22.143  -0.330  53.433  1.00  0.00     0.082 A 
ENDROOT
BRANCH   4  12
HETATM   12  C4  UNL     1      22.470   2.146  50.017  1.00  0.00     0.020 A 
HETATM   13  C5  UNL     1      22.144   1.733  48.758  1.00  0.00     0.016 A 
HETATM   14  C6  UNL     1      22.201   2.510  47.621  1.00  0.00     0.001 A 
HETATM   15  C7  UNL     1      22.615   3.820  47.712  1.00  0.00     0.002 A 
HETATM   16  C8  UNL     1      22.960   4.298  48.963  1.00  0.00     0.025 A 
HETATM   17  C9  UNL     1      22.879   3.459  50.065  1.00  0.00     0.047 A 
HETATM   18 CL1  UNL     1      23.342   4.207  51.558  1.00  0.00    -0.083 Cl
ENDBRANCH   4  12
BRANCH   7  19
HETATM   19  C12 UNL     1      25.779   0.425  53.449  1.00  0.00     0.044 C 
BRANCH  19  20
HETATM   20  C13 UNL     1      26.416  -0.551  52.472  1.00  0.00     0.005 C 
BRANCH  20  21
HETATM   21  C14 UNL     1      27.739  -1.072  52.970  1.00  0.00     0.002 C 
BRANCH  21  22
HETATM   22  C15 UNL     1      28.199  -0.161  54.089  1.00  0.00     0.026 C 
BRANCH  22  23
HETATM   23  C16 UNL     1      29.490   0.552  53.761  1.00  0.00     0.164 C 
BRANCH  23  24
HETATM   24  O3  UNL     1      29.158   1.734  53.086  1.00  0.00    -0.401 OA
HETATM   25  H16 UNL     1      28.481   1.572  52.381  1.00  0.00     0.209 HD
ENDBRANCH  23  24
ENDBRANCH  22  23
ENDBRANCH  21  22
ENDBRANCH  20  21
ENDBRANCH  19  20
ENDBRANCH   7  19
BRANCH  10  26
HETATM   26  O5  UNL     1      20.785  -1.670  54.925  1.00  0.00    -0.360 OA
HETATM   27  H19 UNL     1      20.137  -1.075  55.430  1.00  0.00     0.217 HD
ENDBRANCH  10  26
BRANCH   8  28
HETATM   28  O4  UNL     1      25.423  -1.213  55.671  1.00  0.00    -0.360 OA
HETATM   29  H17 UNL     1      26.369  -1.079  55.335  1.00  0.00     0.217 HD
ENDBRANCH   8  28
TORSDOF 9
ENDMDL
MODEL 3
REMARK VINA RESULT:      -8.3      1.363      2.278
REMARK  9 active torsions:
REMARK  status: ('A' for Active; 'I' for Inactive)
REMARK    1  A    between atoms: C3_4  and  C4_5 
REMARK    2  A    between atoms: C11_14  and  C12_15 
REMARK    3  A    between atoms: C12_15  and  C13_16 
REMARK    4  A    between atoms: C13_16  and  C14_17 
REMARK    5  A    between atoms: C14_17  and  C15_18 
REMARK    6  A    between atoms: C15_18  and  C16_19 
REMARK    7  A    between atoms: C16_19  and  O3_20 
REMARK    8  A    between atoms: C17_21  and  O4_22 
REMARK    9  A    between atoms: C19_24  and  O5_25 
ROOT
HETATM    1  O1  UNL     1      22.391  -1.743  55.369  1.00  0.00    -0.287 OA
HETATM    2  C1  UNL     1      23.101  -0.968  54.666  1.00  0.00     0.190 A 
HETATM    3  C2  UNL     1      24.475  -0.985  54.631  1.00  0.00     0.094 A 
HETATM    4  C3  UNL     1      25.238  -0.135  53.861  1.00  0.00     0.091 A 
HETATM    5  O2  UNL     1      24.575   0.728  53.131  1.00  0.00    -0.308 OA
HETATM    6  C10 UNL     1      23.267   0.787  53.127  1.00  0.00     0.102 A 
HETATM    7  C11 UNL     1      22.585   1.714  52.341  1.00  0.00     0.010 A 
HETATM    8  C17 UNL     1      21.197   1.760  52.351  1.00  0.00     0.077 A 
HETATM    9  C18 UNL     1      20.417   0.920  53.114  1.00  0.00     0.074 A 
HETATM   10  C19 UNL     1      21.075  -0.001  53.894  1.00  0.00     0.085 A 
HETATM   11  C20 UNL     1      22.451  -0.039  53.877  1.00  0.00     0.082 A 
ENDROOT
BRANCH   4  12
HETATM   12  C4  UNL     1      26.678  -0.234  53.895  1.00  0.00     0.020 A 
HETATM   13  C5  UNL     1      27.481   0.550  54.671  1.00  0.00     0.016 A 
HETATM   14  C6  UNL     1      28.857   0.482  54.725  1.00  0.00     0.001 A 
HETATM   15  C7  UNL     1      29.522  -0.441  53.949  1.00  0.00     0.002 A 
HETATM   16  C8  UNL     1      28.764  -1.266  53.139  1.00  0.00     0.025 A 
HETATM   17  C9  UNL     1      27.382  -1.141  53.135  1.00  0.00     0.047 A 
HETATM   18 CL1  UNL     1      26.575  -2.245  52.071  1.00  0.00    -0.083 Cl
ENDBRANCH   4  12
BRANCH   7  19
HETATM   19  C12 UNL     1      23.297   2.671  51.482  1.00  0.00     0.044 C 
BRANCH  19  20
HETATM   20  C13 UNL     1      23.484   2.014  50.123  1.00  0.00     0.005 C 
BRANCH  20  21
HETATM   21  C14 UNL     1      23.087   2.927  48.991  1.00  0.00     0.002 C 
BRANCH  21  22
HETATM   22  C15 UNL     1      22.292   2.106  47.997  1.00  0.00     0.026 C 
BRANCH  22  23
HETATM   23  C16 UNL     1      20.804   2.336  48.116  1.00  0.00     0.164 C 
BRANCH  23  24
HETATM   24  O3  UNL     1      20.279   1.300  48.901  1.00  0.00    -0.401 OA
HETATM   25  H16 UNL     1      20.050   1.616  49.813  1.00  0.00     0.209 HD
ENDBRANCH  23  24
ENDBRANCH  22  23
ENDBRANCH  21  22
ENDBRANCH  20  21
ENDBRANCH  19  20
ENDBRANCH   7  19
BRANCH  10  26
HETATM   26  O5  UNL     1      20.314  -0.857  54.671  1.00  0.00    -0.360 OA
HETATM   27  H19 UNL     1      19.912  -1.679  54.231  1.00  0.00     0.217 HD
ENDBRANCH  10  26
BRANCH   8  28
HETATM   28  O4  UNL     1      20.515   2.690  51.563  1.00  0.00    -0.360 OA
HETATM   29  H17 UNL     1      19.701   2.436  51.017  1.00  0.00     0.217 HD
ENDBRANCH   8  28
TORSDOF 9
ENDMDL
MODEL 4
REMARK VINA RESULT:      -8.3      1.456      1.854
REMARK  9 active torsions:
REMARK  status: ('A' for Active; 'I' for Inactive)
REMARK    1  A    between atoms: C3_4  and  C4_5 
REMARK    2  A    between atoms: C11_14  and  C12_15 
REMARK    3  A    between atoms: C12_15  and  C13_16 
REMARK    4  A    between atoms: C13_16  and  C14_17 
REMARK    5  A    between atoms: C14_17  and  C15_18 
REMARK    6  A    between atoms: C15_18  and  C16_19 
REMARK    7  A    between atoms: C16_19  and  O3_20 
REMARK    8  A    between atoms: C17_21  and  O4_22 
REMARK    9  A    between atoms: C19_24  and  O5_25 
ROOT
HETATM    1  O1  UNL     1      21.662  -1.529  55.126  1.00  0.00    -0.287 OA
HETATM    2  C1  UNL     1      22.322  -0.935  54.225  1.00  0.00     0.190 A 
HETATM    3  C2  UNL     1      23.692  -0.822  54.208  1.00  0.00     0.094 A 
HETATM    4  C3  UNL     1      24.400  -0.172  53.221  1.00  0.00     0.091 A 
HETATM    5  O2  UNL     1      23.687   0.358  52.258  1.00  0.00    -0.308 OA
HETATM    6  C10 UNL     1      22.380   0.278  52.226  1.00  0.00     0.102 A 
HETATM    7  C11 UNL     1      21.643   0.850  51.189  1.00  0.00     0.010 A 
HETATM    8  C17 UNL     1      20.258   0.754  51.174  1.00  0.00     0.077 A 
HETATM    9  C18 UNL     1      19.533   0.110  52.151  1.00  0.00     0.074 A 
HETATM   10  C19 UNL     1      20.244  -0.459  53.180  1.00  0.00     0.085 A 
HETATM   11  C20 UNL     1      21.618  -0.360  53.186  1.00  0.00     0.082 A 
ENDROOT
BRANCH   4  12
HETATM   12  C4  UNL     1      25.840  -0.108  53.295  1.00  0.00     0.020 A 
HETATM   13  C5  UNL     1      26.667  -1.169  53.069  1.00  0.00     0.016 A 
HETATM   14  C6  UNL     1      28.043  -1.141  53.133  1.00  0.00     0.001 A 
HETATM   15  C7  UNL     1      28.685   0.036  53.445  1.00  0.00     0.002 A 
HETATM   16  C8  UNL     1      27.902   1.150  53.686  1.00  0.00     0.025 A 
HETATM   17  C9  UNL     1      26.521   1.048  53.605  1.00  0.00     0.047 A 
HETATM   18 CL1  UNL     1      25.682   2.529  53.932  1.00  0.00    -0.083 Cl
ENDBRANCH   4  12
BRANCH   7  19
HETATM   19  C12 UNL     1      22.295   1.569  50.085  1.00  0.00     0.044 C 
BRANCH  19  20
HETATM   20  C13 UNL     1      22.541   2.996  50.551  1.00  0.00     0.005 C 
BRANCH  20  21
HETATM   21  C14 UNL     1      23.752   3.607  49.894  1.00  0.00     0.002 C 
BRANCH  21  22
HETATM   22  C15 UNL     1      24.970   2.850  50.382  1.00  0.00     0.026 C 
BRANCH  22  23
HETATM   23  C16 UNL     1      26.264   3.470  49.909  1.00  0.00     0.164 C 
BRANCH  23  24
HETATM   24  O3  UNL     1      27.182   3.385  50.964  1.00  0.00    -0.401 OA
HETATM   25  H16 UNL     1      27.967   3.972  50.811  1.00  0.00     0.209 HD
ENDBRANCH  23  24
ENDBRANCH  22  23
ENDBRANCH  21  22
ENDBRANCH  20  21
ENDBRANCH  19  20
ENDBRANCH   7  19
BRANCH  10  26
HETATM   26  O5  UNL     1      19.539  -1.113  54.175  1.00  0.00    -0.360 OA
HETATM   27  H19 UNL     1      19.819  -0.968  55.140  1.00  0.00     0.217 HD
ENDBRANCH  10  26
BRANCH   8  28
HETATM   28  O4  UNL     1      19.522   1.327  50.135  1.00  0.00    -0.360 OA
HETATM   29  H17 UNL     1      19.834   2.160  49.651  1.00  0.00     0.217 HD
ENDBRANCH   8  28
TORSDOF 9
ENDMDL
MODEL 5
REMARK VINA RESULT:      -8.2      2.226      5.577
REMARK  9 active torsions:
REMARK  status: ('A' for Active; 'I' for Inactive)
REMARK    1  A    between atoms: C3_4  and  C4_5 
REMARK    2  A    between atoms: C11_14  and  C12_15 
REMARK    3  A    between atoms: C12_15  and  C13_16 
REMARK    4  A    between atoms: C13_16  and  C14_17 
REMARK    5  A    between atoms: C14_17  and  C15_18 
REMARK    6  A    between atoms: C15_18  and  C16_19 
REMARK    7  A    between atoms: C16_19  and  O3_20 
REMARK    8  A    between atoms: C17_21  and  O4_22 
REMARK    9  A    between atoms: C19_24  and  O5_25 
ROOT
HETATM    1  O1  UNL     1      24.970  -1.268  55.326  1.00  0.00    -0.287 OA
HETATM    2  C1  UNL     1      24.419  -0.605  54.401  1.00  0.00     0.190 A 
HETATM    3  C2  UNL     1      23.090  -0.698  54.059  1.00  0.00     0.094 A 
HETATM    4  C3  UNL     1      22.501   0.029  53.049  1.00  0.00     0.091 A 
HETATM    5  O2  UNL     1      23.289   0.849  52.397  1.00  0.00    -0.308 OA
HETATM    6  C10 UNL     1      24.561   0.976  52.682  1.00  0.00     0.102 A 
HETATM    7  C11 UNL     1      25.378   1.856  51.974  1.00  0.00     0.010 A 
HETATM    8  C17 UNL     1      26.724   1.976  52.292  1.00  0.00     0.077 A 
HETATM    9  C18 UNL     1      27.332   1.258  53.298  1.00  0.00     0.074 A 
HETATM   10  C19 UNL     1      26.539   0.386  54.006  1.00  0.00     0.085 A 
HETATM   11  C20 UNL     1      25.205   0.274  53.683  1.00  0.00     0.082 A 
ENDROOT
BRANCH   4  12
HETATM   12  C4  UNL     1      21.095  -0.142  52.767  1.00  0.00     0.020 A 
HETATM   13  C5  UNL     1      20.206  -0.715  53.629  1.00  0.00     0.016 A 
HETATM   14  C6  UNL     1      18.860  -0.893  53.390  1.00  0.00     0.001 A 
HETATM   15  C7  UNL     1      18.320  -0.473  52.195  1.00  0.00     0.002 A 
HETATM   16  C8  UNL     1      19.171   0.116  51.278  1.00  0.00     0.025 A 
HETATM   17  C9  UNL     1      20.516   0.263  51.586  1.00  0.00     0.047 A 
HETATM   18 CL1  UNL     1      21.448   1.020  50.337  1.00  0.00    -0.083 Cl
ENDBRANCH   4  12
BRANCH   7  19
HETATM   19  C12 UNL     1      24.856   2.680  50.875  1.00  0.00     0.044 C 
BRANCH  19  20
HETATM   20  C13 UNL     1      24.334   3.974  51.482  1.00  0.00     0.005 C 
BRANCH  20  21
HETATM   21  C14 UNL     1      24.637   5.170  50.616  1.00  0.00     0.002 C 
BRANCH  21  22
HETATM   22  C15 UNL     1      25.237   4.660  49.323  1.00  0.00     0.026 C 
BRANCH  22  23
HETATM   23  C16 UNL     1      26.526   5.362  48.967  1.00  0.00     0.164 C 
BRANCH  23  24
HETATM   24  O3  UNL     1      27.581   4.515  49.333  1.00  0.00    -0.401 OA
HETATM   25  H16 UNL     1      28.133   4.264  48.548  1.00  0.00     0.209 HD
ENDBRANCH  23  24
ENDBRANCH  22  23
ENDBRANCH  21  22
ENDBRANCH  20  21
ENDBRANCH  19  20
ENDBRANCH   7  19
BRANCH  10  26
HETATM   26  O5  UNL     1      27.125  -0.348  55.021  1.00  0.00    -0.360 OA
HETATM   27  H19 UNL     1      27.511  -1.260  54.798  1.00  0.00     0.217 HD
ENDBRANCH  10  26
BRANCH   8  28
HETATM   28  O4  UNL     1      27.542   2.858  51.583  1.00  0.00    -0.360 OA
HETATM   29  H17 UNL     1      28.014   3.633  52.032  1.00  0.00     0.217 HD
ENDBRANCH   8  28
TORSDOF 9
ENDMDL
MODEL 6
REMARK VINA RESULT:      -8.2      2.570      5.432
REMARK  9 active torsions:
REMARK  status: ('A' for Active; 'I' for Inactive)
REMARK    1  A    between atoms: C3_4  and  C4_5 
REMARK    2  A    between atoms: C11_14  and  C12_15 
REMARK    3  A    between atoms: C12_15  and  C13_16 
REMARK    4  A    between atoms: C13_16  and  C14_17 
REMARK    5  A    between atoms: C14_17  and  C15_18 
REMARK    6  A    between atoms: C15_18  and  C16_19 
REMARK    7  A    between atoms: C16_19  and  O3_20 
REMARK    8  A    between atoms: C17_21  and  O4_22 
REMARK    9  A    between atoms: C19_24  and  O5_25 
ROOT
HETATM    1  O1  UNL     1      26.605  -0.327  54.510  1.00  0.00    -0.287 OA
HETATM    2  C1  UNL     1      25.710   0.271  53.848  1.00  0.00     0.190 A 
HETATM    3  C2  UNL     1      25.954   1.237  52.901  1.00  0.00     0.094 A 
HETATM    4  C3  UNL     1      24.970   1.883  52.186  1.00  0.00     0.091 A 
HETATM    5  O2  UNL     1      23.738   1.527  52.455  1.00  0.00    -0.308 OA
HETATM    6  C10 UNL     1      23.450   0.612  53.348  1.00  0.00     0.102 A 
HETATM    7  C11 UNL     1      22.131   0.250  53.616  1.00  0.00     0.010 A 
HETATM    8  C17 UNL     1      21.847  -0.722  54.566  1.00  0.00     0.077 A 
HETATM    9  C18 UNL     1      22.816  -1.378  55.290  1.00  0.00     0.074 A 
HETATM   10  C19 UNL     1      24.122  -1.033  55.038  1.00  0.00     0.085 A 
HETATM   11  C20 UNL     1      24.394  -0.068  54.093  1.00  0.00     0.082 A 
ENDROOT
BRANCH   4  12
HETATM   12  C4  UNL     1      25.331   2.885  51.211  1.00  0.00     0.020 A 
HETATM   13  C5  UNL     1      26.366   2.760  50.331  1.00  0.00     0.016 A 
HETATM   14  C6  UNL     1      26.737   3.697  49.391  1.00  0.00     0.001 A 
HETATM   15  C7  UNL     1      26.031   4.875  49.292  1.00  0.00     0.002 A 
HETATM   16  C8  UNL     1      24.970   5.063  50.157  1.00  0.00     0.025 A 
HETATM   17  C9  UNL     1      24.653   4.076  51.080  1.00  0.00     0.047 A 
HETATM   18 CL1  UNL     1      23.298   4.460  52.089  1.00  0.00    -0.083 Cl
ENDBRANCH   4  12
BRANCH   7  19
HETATM   19  C12 UNL     1      21.001   0.875  52.914  1.00  0.00     0.044 C 
BRANCH  19  20
HETATM   20  C13 UNL     1      20.746   0.070  51.648  1.00  0.00     0.005 C 
BRANCH  20  21
HETATM   21  C14 UNL     1      19.342   0.251  51.133  1.00  0.00     0.002 C 
BRANCH  21  22
HETATM   22  C15 UNL     1      18.411   0.252  52.327  1.00  0.00     0.026 C 
BRANCH  22  23
HETATM   23  C16 UNL     1      17.807  -1.108  52.591  1.00  0.00     0.164 C 
BRANCH  23  24
HETATM   24  O3  UNL     1      17.632  -1.229  53.976  1.00  0.00    -0.401 OA
HETATM   25  H16 UNL     1      17.270  -0.394  54.371  1.00  0.00     0.209 HD
ENDBRANCH  23  24
ENDBRANCH  22  23
ENDBRANCH  21  22
ENDBRANCH  20  21
ENDBRANCH  19  20
ENDBRANCH   7  19
BRANCH  10  26
HETATM   26  O5  UNL     1      25.116  -1.677  55.753  1.00  0.00    -0.360 OA
HETATM   27  H19 UNL     1      25.999  -1.196  55.894  1.00  0.00     0.217 HD
ENDBRANCH  10  26
BRANCH   8  28
HETATM   28  O4  UNL     1      20.525  -1.084  54.833  1.00  0.00    -0.360 OA
HETATM   29  H17 UNL     1      19.761  -0.818  54.224  1.00  0.00     0.217 HD
ENDBRANCH   8  28
TORSDOF 9
ENDMDL
MODEL 7
REMARK VINA RESULT:      -8.1      2.479      4.495
REMARK  9 active torsions:
REMARK  status: ('A' for Active; 'I' for Inactive)
REMARK    1  A    between atoms: C3_4  and  C4_5 
REMARK    2  A    between atoms: C11_14  and  C12_15 
REMARK    3  A    between atoms: C12_15  and  C13_16 
REMARK    4  A    between atoms: C13_16  and  C14_17 
REMARK    5  A    between atoms: C14_17  and  C15_18 
REMARK    6  A    between atoms: C15_18  and  C16_19 
REMARK    7  A    between atoms: C16_19  and  O3_20 
REMARK    8  A    between atoms: C17_21  and  O4_22 
REMARK    9  A    between atoms: C19_24  and  O5_25 
ROOT
HETATM    1  O1  UNL     1      26.598  -0.171  55.017  1.00  0.00    -0.287 OA
HETATM    2  C1  UNL     1      25.726   0.250  54.205  1.00  0.00     0.190 A 
HETATM    3  C2  UNL     1      25.961   1.179  53.220  1.00  0.00     0.094 A 
HETATM    4  C3  UNL     1      25.002   1.632  52.341  1.00  0.00     0.091 A 
HETATM    5  O2  UNL     1      23.804   1.120  52.485  1.00  0.00    -0.308 OA
HETATM    6  C10 UNL     1      23.527   0.232  53.407  1.00  0.00     0.102 A 
HETATM    7  C11 UNL     1      22.244  -0.298  53.541  1.00  0.00     0.010 A 
HETATM    8  C17 UNL     1      21.970  -1.239  54.524  1.00  0.00     0.077 A 
HETATM    9  C18 UNL     1      22.914  -1.703  55.413  1.00  0.00     0.074 A 
HETATM   10  C19 UNL     1      24.184  -1.190  55.294  1.00  0.00     0.085 A 
HETATM   11  C20 UNL     1      24.446  -0.258  54.315  1.00  0.00     0.082 A 
ENDROOT
BRANCH   4  12
HETATM   12  C4  UNL     1      25.351   2.612  51.339  1.00  0.00     0.020 A 
HETATM   13  C5  UNL     1      26.309   2.425  50.386  1.00  0.00     0.016 A 
HETATM   14  C6  UNL     1      26.666   3.340  49.419  1.00  0.00     0.001 A 
HETATM   15  C7  UNL     1      26.029   4.559  49.369  1.00  0.00     0.002 A 
HETATM   16  C8  UNL     1      25.047   4.809  50.309  1.00  0.00     0.025 A 
HETATM   17  C9  UNL     1      24.740   3.842  51.255  1.00  0.00     0.047 A 
HETATM   18 CL1  UNL     1      23.488   4.306  52.360  1.00  0.00    -0.083 Cl
ENDBRANCH   4  12
BRANCH   7  19
HETATM   19  C12 UNL     1      21.143   0.113  52.658  1.00  0.00     0.044 C 
BRANCH  19  20
HETATM   20  C13 UNL     1      20.520   1.365  53.257  1.00  0.00     0.005 C 
BRANCH  20  21
HETATM   21  C14 UNL     1      20.447   2.496  52.263  1.00  0.00     0.002 C 
BRANCH  21  22
HETATM   22  C15 UNL     1      20.419   1.886  50.877  1.00  0.00     0.026 C 
BRANCH  22  23
HETATM   23  C16 UNL     1      21.435   2.512  49.950  1.00  0.00     0.164 C 
BRANCH  23  24
HETATM   24  O3  UNL     1      22.469   1.583  49.770  1.00  0.00    -0.401 OA
HETATM   25  H16 UNL     1      22.314   1.018  48.970  1.00  0.00     0.209 HD
ENDBRANCH  23  24
ENDBRANCH  22  23
ENDBRANCH  21  22
ENDBRANCH  20  21
ENDBRANCH  19  20
ENDBRANCH   7  19
BRANCH  10  26
HETATM   26  O5  UNL     1      25.152  -1.640  56.174  1.00  0.00    -0.360 OA
HETATM   27  H19 UNL     1      25.753  -0.955  56.622  1.00  0.00     0.217 HD
ENDBRANCH  10  26
BRANCH   8  28
HETATM   28  O4  UNL     1      20.685  -1.769  54.657  1.00  0.00    -0.360 OA
HETATM   29  H17 UNL     1      19.895  -1.199  54.933  1.00  0.00     0.217 HD
ENDBRANCH   8  28
TORSDOF 9
ENDMDL
MODEL 8
REMARK VINA RESULT:      -8.1      2.339      5.922
REMARK  9 active torsions:
REMARK  status: ('A' for Active; 'I' for Inactive)
REMARK    1  A    between atoms: C3_4  and  C4_5 
REMARK    2  A    between atoms: C11_14  and  C12_15 
REMARK    3  A    between atoms: C12_15  and  C13_16 
REMARK    4  A    between atoms: C13_16  and  C14_17 
REMARK    5  A    between atoms: C14_17  and  C15_18 
REMARK    6  A    between atoms: C15_18  and  C16_19 
REMARK    7  A    between atoms: C16_19  and  O3_20 
REMARK    8  A    between atoms: C17_21  and  O4_22 
REMARK    9  A    between atoms: C19_24  and  O5_25 
ROOT
HETATM    1  O1  UNL     1      22.678  -2.006  55.788  1.00  0.00    -0.287 OA
HETATM    2  C1  UNL     1      22.393  -1.325  54.762  1.00  0.00     0.190 A 
HETATM    3  C2  UNL     1      21.135  -1.228  54.215  1.00  0.00     0.094 A 
HETATM    4  C3  UNL     1      20.836  -0.483  53.096  1.00  0.00     0.091 A 
HETATM    5  O2  UNL     1      21.840   0.157  52.548  1.00  0.00    -0.308 OA
HETATM    6  C10 UNL     1      23.057   0.098  53.029  1.00  0.00     0.102 A 
HETATM    7  C11 UNL     1      24.108   0.790  52.428  1.00  0.00     0.010 A 
HETATM    8  C17 UNL     1      25.391   0.715  52.954  1.00  0.00     0.077 A 
HETATM    9  C18 UNL     1      25.709  -0.024  54.070  1.00  0.00     0.074 A 
HETATM   10  C19 UNL     1      24.684  -0.711  54.675  1.00  0.00     0.085 A 
HETATM   11  C20 UNL     1      23.415  -0.630  54.147  1.00  0.00     0.082 A 
ENDROOT
BRANCH   4  12
HETATM   12  C4  UNL     1      19.481  -0.447  52.599  1.00  0.00     0.020 A 
HETATM   13  C5  UNL     1      18.410  -0.981  53.254  1.00  0.00     0.016 A 
HETATM   14  C6  UNL     1      17.107  -0.963  52.807  1.00  0.00     0.001 A 
HETATM   15  C7  UNL     1      16.810  -0.366  51.602  1.00  0.00     0.002 A 
HETATM   16  C8  UNL     1      17.853   0.194  50.889  1.00  0.00     0.025 A 
HETATM   17  C9  UNL     1      19.142   0.139  51.400  1.00  0.00     0.047 A 
HETATM   18 CL1  UNL     1      20.336   0.887  50.391  1.00  0.00    -0.083 Cl
ENDBRANCH   4  12
BRANCH   7  19
HETATM   19  C12 UNL     1      23.904   1.614  51.228  1.00  0.00     0.044 C 
BRANCH  19  20
HETATM   20  C13 UNL     1      23.482   3.000  51.692  1.00  0.00     0.005 C 
BRANCH  20  21
HETATM   21  C14 UNL     1      24.397   4.077  51.169  1.00  0.00     0.002 C 
BRANCH  21  22
HETATM   22  C15 UNL     1      24.951   3.604  49.841  1.00  0.00     0.026 C 
BRANCH  22  23
HETATM   23  C16 UNL     1      26.373   4.061  49.612  1.00  0.00     0.164 C 
BRANCH  23  24
HETATM   24  O3  UNL     1      27.146   3.579  50.677  1.00  0.00    -0.401 OA
HETATM   25  H16 UNL     1      26.852   2.676  50.960  1.00  0.00     0.209 HD
ENDBRANCH  23  24
ENDBRANCH  22  23
ENDBRANCH  21  22
ENDBRANCH  20  21
ENDBRANCH  19  20
ENDBRANCH   7  19
BRANCH  10  26
HETATM   26  O5  UNL     1      24.978  -1.462  55.799  1.00  0.00    -0.360 OA
HETATM   27  H19 UNL     1      25.952  -1.598  56.049  1.00  0.00     0.217 HD
ENDBRANCH  10  26
BRANCH   8  28
HETATM   28  O4  UNL     1      26.443   1.408  52.351  1.00  0.00    -0.360 OA
HETATM   29  H17 UNL     1      26.811   1.144  51.446  1.00  0.00     0.217 HD
ENDBRANCH   8  28
TORSDOF 9
ENDMDL
MODEL 9
REMARK VINA RESULT:      -8.0      2.229      5.902
REMARK  9 active torsions:
REMARK  status: ('A' for Active; 'I' for Inactive)
REMARK    1  A    between atoms: C3_4  and  C4_5 
REMARK    2  A    between atoms: C11_14  and  C12_15 
REMARK    3  A    between atoms: C12_15  and  C13_16 
REMARK    4  A    between atoms: C13_16  and  C14_17 
REMARK    5  A    between atoms: C14_17  and  C15_18 
REMARK    6  A    between atoms: C15_18  and  C16_19 
REMARK    7  A    between atoms: C16_19  and  O3_20 
REMARK    8  A    between atoms: C17_21  and  O4_22 
REMARK    9  A    between atoms: C19_24  and  O5_25 
ROOT
HETATM    1  O1  UNL     1      25.203  -1.283  54.982  1.00  0.00    -0.287 OA
HETATM    2  C1  UNL     1      24.600  -0.575  54.126  1.00  0.00     0.190 A 
HETATM    3  C2  UNL     1      23.261  -0.678  53.832  1.00  0.00     0.094 A 
HETATM    4  C3  UNL     1      22.615   0.099  52.896  1.00  0.00     0.091 A 
HETATM    5  O2  UNL     1      23.357   0.977  52.268  1.00  0.00    -0.308 OA
HETATM    6  C10 UNL     1      24.637   1.116  52.510  1.00  0.00     0.102 A 
HETATM    7  C11 UNL     1      25.406   2.058  51.828  1.00  0.00     0.010 A 
HETATM    8  C17 UNL     1      26.762   2.190  52.099  1.00  0.00     0.077 A 
HETATM    9  C18 UNL     1      27.425   1.423  53.030  1.00  0.00     0.074 A 
HETATM   10  C19 UNL     1      26.681   0.489  53.711  1.00  0.00     0.085 A 
HETATM   11  C20 UNL     1      25.337   0.367  53.436  1.00  0.00     0.082 A 
ENDROOT
BRANCH   4  12
HETATM   12  C4  UNL     1      21.202  -0.087  52.660  1.00  0.00     0.020 A 
HETATM   13  C5  UNL     1      20.330  -0.582  53.586  1.00  0.00     0.016 A 
HETATM   14  C6  UNL     1      18.979  -0.772  53.392  1.00  0.00     0.001 A 
HETATM   15  C7  UNL     1      18.414  -0.448  52.179  1.00  0.00     0.002 A 
HETATM   16  C8  UNL     1      19.247   0.059  51.198  1.00  0.00     0.025 A 
HETATM   17  C9  UNL     1      20.599   0.223  51.463  1.00  0.00     0.047 A 
HETATM   18 CL1  UNL     1      21.506   0.869  50.135  1.00  0.00    -0.083 Cl
ENDBRANCH   4  12
BRANCH   7  19
HETATM   19  C12 UNL     1      24.821   2.939  50.807  1.00  0.00     0.044 C 
BRANCH  19  20
HETATM   20  C13 UNL     1      24.100   4.065  51.533  1.00  0.00     0.005 C 
BRANCH  20  21
HETATM   21  C14 UNL     1      22.802   4.433  50.862  1.00  0.00     0.002 C 
BRANCH  21  22
HETATM   22  C15 UNL     1      21.770   4.652  51.949  1.00  0.00     0.026 C 
BRANCH  22  23
HETATM   23  C16 UNL     1      20.470   3.936  51.665  1.00  0.00     0.164 C 
BRANCH  23  24
HETATM   24  O3  UNL     1      20.103   3.252  52.832  1.00  0.00    -0.401 OA
HETATM   25  H16 UNL     1      20.885   2.816  53.258  1.00  0.00     0.209 HD
ENDBRANCH  23  24
ENDBRANCH  22  23
ENDBRANCH  21  22
ENDBRANCH  20  21
ENDBRANCH  19  20
ENDBRANCH   7  19
BRANCH  10  26
HETATM   26  O5  UNL     1      27.324  -0.295  54.653  1.00  0.00    -0.360 OA
HETATM   27  H19 UNL     1      26.820  -0.546  55.497  1.00  0.00     0.217 HD
ENDBRANCH  10  26
BRANCH   8  28
HETATM   28  O4  UNL     1      27.531   3.134  51.416  1.00  0.00    -0.360 OA
HETATM   29  H17 UNL     1      28.343   3.570  51.835  1.00  0.00     0.217 HD
ENDBRANCH   8  28
TORSDOF 9
ENDMDL
