MODEL 1
REMARK VINA RESULT:      -8.3      0.000      0.000
REMARK  8 active torsions:
REMARK  status: ('A' for Active; 'I' for Inactive)
REMARK    1  A    between atoms: C1_2  and  N1_3 
REMARK    2  A    between atoms: C1_2  and  N3_12 
REMARK    3  A    between atoms: N1_3  and  C2_4 
REMARK    4  A    between atoms: C2_4  and  C3_5 
REMARK    5  A    between atoms: C3_5  and  N2_6 
REMARK    6  A    between atoms: N3_12  and  C8_13 
REMARK    7  A    between atoms: C14_19  and  N4_20 
REMARK    8  A    between atoms: N4_20  and  C15_21 
ROOT
HETATM    1  C8  UNL     1      26.987   5.142  48.820  1.00  0.00     0.035 A 
HETATM    2  C9  UNL     1      25.841   5.894  48.767  1.00  0.00     0.032 A 
HETATM    3  C10 UNL     1      24.638   5.610  49.358  1.00  0.00     0.032 A 
HETATM    4  C11 UNL     1      24.621   4.443  50.067  1.00  0.00     0.040 A 
HETATM    5  C12 UNL     1      25.692   3.620  50.189  1.00  0.00     0.012 A 
HETATM    6  C13 UNL     1      26.854   3.986  49.562  1.00  0.00     0.043 A 
HETATM    7  C14 UNL     1      25.005   2.621  51.034  1.00  0.00     0.218 A 
HETATM    8  N5  UNL     1      23.871   3.515  50.882  1.00  0.00    -0.364 N 
HETATM    9  H24 UNL     1      22.876   3.515  51.224  1.00  0.00     0.162 HD
ENDROOT
BRANCH   1  10
HETATM   10  N3  UNL     1      28.218   5.435  48.208  1.00  0.00    -0.333 N 
HETATM   11  H14 UNL     1      28.494   4.745  47.443  1.00  0.00     0.168 HD
BRANCH  10  12
HETATM   12  C1  UNL     1      29.268   6.336  48.223  1.00  0.00     0.172 C 
HETATM   13  S1  UNL     1      29.513   7.478  47.053  1.00  0.00    -0.041 SA
BRANCH  12  14
HETATM   14  N1  UNL     1      30.335   6.554  49.118  1.00  0.00    -0.365 N 
HETATM   15  H1  UNL     1      30.270   7.416  49.654  1.00  0.00     0.161 HD
BRANCH  14  16
HETATM   16  C2  UNL     1      31.534   5.814  49.457  1.00  0.00     0.152 C 
BRANCH  16  17
HETATM   17  C3  UNL     1      32.741   6.316  48.744  1.00  0.00     0.292 C 
BRANCH  17  18
HETATM   18  N2  UNL     1      33.155   5.480  47.662  1.00  0.00     0.094 N 
HETATM   19  C4  UNL     1      32.401   4.228  47.637  1.00  0.00     0.298 C 
HETATM   20  C5  UNL     1      32.939   3.339  46.539  1.00  0.00     0.198 C 
HETATM   21  O1  UNL     1      34.230   2.912  46.844  1.00  0.00    -0.388 OA
HETATM   22  C6  UNL     1      34.816   3.672  47.832  1.00  0.00     0.198 C 
HETATM   23  C7  UNL     1      34.573   5.162  47.688  1.00  0.00     0.298 C 
ENDBRANCH  17  18
ENDBRANCH  16  17
ENDBRANCH  14  16
ENDBRANCH  12  14
ENDBRANCH  10  12
ENDBRANCH   1  10
BRANCH   7  24
HETATM   24  N4  UNL     1      25.594   2.627  52.358  1.00  0.00    -0.365 N 
HETATM   25  H19 UNL     1      25.303   3.296  53.119  1.00  0.00     0.162 HD
BRANCH  24  26
HETATM   26  C15 UNL     1      26.631   1.695  52.697  1.00  0.00     0.029 A 
HETATM   27  C16 UNL     1      27.828   2.114  53.272  1.00  0.00     0.031 A 
HETATM   28  C17 UNL     1      28.866   1.285  53.626  1.00  0.00     0.026 A 
HETATM   29  C18 UNL     1      28.674  -0.075  53.376  1.00  0.00     0.034 A 
HETATM   30 CL1  UNL     1      30.001  -1.138  53.829  1.00  0.00    -0.084 Cl
HETATM   31  C19 UNL     1      27.494  -0.547  52.801  1.00  0.00     0.026 A 
HETATM   32  C20 UNL     1      26.481   0.344  52.466  1.00  0.00     0.031 A 
ENDBRANCH  24  26
ENDBRANCH   7  24
TORSDOF 8
ENDMDL
MODEL 2
REMARK VINA RESULT:      -8.0      6.158      7.925
REMARK  8 active torsions:
REMARK  status: ('A' for Active; 'I' for Inactive)
REMARK    1  A    between atoms: C1_2  and  N1_3 
REMARK    2  A    between atoms: C1_2  and  N3_12 
REMARK    3  A    between atoms: N1_3  and  C2_4 
REMARK    4  A    between atoms: C2_4  and  C3_5 
REMARK    5  A    between atoms: C3_5  and  N2_6 
REMARK    6  A    between atoms: N3_12  and  C8_13 
REMARK    7  A    between atoms: C14_19  and  N4_20 
REMARK    8  A    between atoms: N4_20  and  C15_21 
ROOT
HETATM    1  C8  UNL     1      20.496   0.684  51.341  1.00  0.00     0.035 A 
HETATM    2  C9  UNL     1      19.586   0.352  52.312  1.00  0.00     0.032 A 
HETATM    3  C10 UNL     1      19.831  -0.319  53.481  1.00  0.00     0.032 A 
HETATM    4  C11 UNL     1      21.136  -0.679  53.660  1.00  0.00     0.040 A 
HETATM    5  C12 UNL     1      22.121  -0.405  52.770  1.00  0.00     0.012 A 
HETATM    6  C13 UNL     1      21.781   0.271  51.627  1.00  0.00     0.043 A 
HETATM    7  C14 UNL     1      23.201  -1.038  53.556  1.00  0.00     0.218 A 
HETATM    8  N5  UNL     1      22.126  -1.326  54.490  1.00  0.00    -0.364 N 
HETATM    9  H24 UNL     1      22.063  -1.813  55.420  1.00  0.00     0.162 HD
ENDROOT
BRANCH   1  10
HETATM   10  N3  UNL     1      20.238   1.369  50.141  1.00  0.00    -0.333 N 
HETATM   11  H14 UNL     1      19.988   0.729  49.325  1.00  0.00     0.168 HD
BRANCH  10  12
HETATM   12  C1  UNL     1      20.183   2.635  49.586  1.00  0.00     0.172 C 
HETATM   13  S1  UNL     1      18.936   3.692  49.838  1.00  0.00    -0.041 SA
BRANCH  12  14
HETATM   14  N1  UNL     1      21.049   3.353  48.737  1.00  0.00    -0.365 N 
HETATM   15  H1  UNL     1      20.603   4.097  48.206  1.00  0.00     0.161 HD
BRANCH  14  16
HETATM   16  C2  UNL     1      22.466   3.272  48.441  1.00  0.00     0.152 C 
BRANCH  16  17
HETATM   17  C3  UNL     1      23.221   4.466  48.910  1.00  0.00     0.292 C 
BRANCH  17  18
HETATM   18  N2  UNL     1      23.906   4.259  50.147  1.00  0.00     0.094 N 
HETATM   19  C4  UNL     1      24.185   2.843  50.373  1.00  0.00     0.298 C 
HETATM   20  C5  UNL     1      24.820   2.665  51.733  1.00  0.00     0.198 C 
HETATM   21  O1  UNL     1      23.905   2.960  52.741  1.00  0.00    -0.388 OA
HETATM   22  C6  UNL     1      22.823   3.675  52.278  1.00  0.00     0.198 C 
HETATM   23  C7  UNL     1      23.184   4.774  51.298  1.00  0.00     0.298 C 
ENDBRANCH  17  18
ENDBRANCH  16  17
ENDBRANCH  14  16
ENDBRANCH  12  14
ENDBRANCH  10  12
ENDBRANCH   1  10
BRANCH   7  24
HETATM   24  N4  UNL     1      24.125  -0.018  54.009  1.00  0.00    -0.365 N 
HETATM   25  H19 UNL     1      23.817   0.890  54.447  1.00  0.00     0.162 HD
BRANCH  24  26
HETATM   26  C15 UNL     1      25.541  -0.209  53.874  1.00  0.00     0.029 A 
HETATM   27  C16 UNL     1      26.444   0.403  54.740  1.00  0.00     0.031 A 
HETATM   28  C17 UNL     1      27.811   0.269  54.677  1.00  0.00     0.026 A 
HETATM   29  C18 UNL     1      28.298  -0.551  53.658  1.00  0.00     0.034 A 
HETATM   30 CL1  UNL     1      30.048  -0.725  53.577  1.00  0.00    -0.084 Cl
HETATM   31  C19 UNL     1      27.436  -1.187  52.764  1.00  0.00     0.026 A 
HETATM   32  C20 UNL     1      26.063  -1.010  52.880  1.00  0.00     0.031 A 
ENDBRANCH  24  26
ENDBRANCH   7  24
TORSDOF 8
ENDMDL
MODEL 3
REMARK VINA RESULT:      -7.8      1.978      2.529
REMARK  8 active torsions:
REMARK  status: ('A' for Active; 'I' for Inactive)
REMARK    1  A    between atoms: C1_2  and  N1_3 
REMARK    2  A    between atoms: C1_2  and  N3_12 
REMARK    3  A    between atoms: N1_3  and  C2_4 
REMARK    4  A    between atoms: C2_4  and  C3_5 
REMARK    5  A    between atoms: C3_5  and  N2_6 
REMARK    6  A    between atoms: N3_12  and  C8_13 
REMARK    7  A    between atoms: C14_19  and  N4_20 
REMARK    8  A    between atoms: N4_20  and  C15_21 
ROOT
HETATM    1  C8  UNL     1      27.812   6.775  48.129  1.00  0.00     0.035 A 
HETATM    2  C9  UNL     1      26.537   7.277  48.057  1.00  0.00     0.032 A 
HETATM    3  C10 UNL     1      25.376   6.640  48.408  1.00  0.00     0.032 A 
HETATM    4  C11 UNL     1      25.552   5.369  48.876  1.00  0.00     0.040 A 
HETATM    5  C12 UNL     1      26.762   4.769  48.992  1.00  0.00     0.012 A 
HETATM    6  C13 UNL     1      27.868   5.485  48.615  1.00  0.00     0.043 A 
HETATM    7  C14 UNL     1      26.237   3.496  49.529  1.00  0.00     0.218 A 
HETATM    8  N5  UNL     1      24.952   4.158  49.389  1.00  0.00    -0.364 N 
HETATM    9  H24 UNL     1      23.954   3.887  49.580  1.00  0.00     0.162 HD
ENDROOT
BRANCH   1  10
HETATM   10  N3  UNL     1      28.999   7.431  47.763  1.00  0.00    -0.333 N 
HETATM   11  H14 UNL     1      29.271   7.291  46.741  1.00  0.00     0.168 HD
BRANCH  10  12
HETATM   12  C1  UNL     1      30.008   8.239  48.257  1.00  0.00     0.172 C 
HETATM   13  S1  UNL     1      30.564   9.590  47.481  1.00  0.00    -0.041 SA
BRANCH  12  14
HETATM   14  N1  UNL     1      30.793   8.192  49.427  1.00  0.00    -0.365 N 
HETATM   15  H1  UNL     1      30.498   8.829  50.163  1.00  0.00     0.161 HD
BRANCH  14  16
HETATM   16  C2  UNL     1      31.954   7.424  49.832  1.00  0.00     0.152 C 
BRANCH  16  17
HETATM   17  C3  UNL     1      31.729   5.954  49.749  1.00  0.00     0.292 C 
BRANCH  17  18
HETATM   18  N2  UNL     1      32.507   5.313  48.735  1.00  0.00     0.094 N 
HETATM   19  C4  UNL     1      33.701   6.089  48.408  1.00  0.00     0.298 C 
HETATM   20  C5  UNL     1      34.437   5.424  47.268  1.00  0.00     0.198 C 
HETATM   21  O1  UNL     1      33.691   5.503  46.093  1.00  0.00    -0.388 OA
HETATM   22  C6  UNL     1      32.369   5.809  46.328  1.00  0.00     0.198 C 
HETATM   23  C7  UNL     1      31.766   5.071  47.508  1.00  0.00     0.298 C 
ENDBRANCH  17  18
ENDBRANCH  16  17
ENDBRANCH  14  16
ENDBRANCH  12  14
ENDBRANCH  10  12
ENDBRANCH   1  10
BRANCH   7  24
HETATM   24  N4  UNL     1      26.678   3.337  50.901  1.00  0.00    -0.365 N 
HETATM   25  H19 UNL     1      27.407   3.952  51.350  1.00  0.00     0.162 HD
BRANCH  24  26
HETATM   26  C15 UNL     1      26.122   2.305  51.727  1.00  0.00     0.029 A 
HETATM   27  C16 UNL     1      24.997   2.529  52.516  1.00  0.00     0.031 A 
HETATM   28  C17 UNL     1      24.405   1.594  53.331  1.00  0.00     0.026 A 
HETATM   29  C18 UNL     1      25.002   0.332  53.346  1.00  0.00     0.034 A 
HETATM   30 CL1  UNL     1      24.246  -0.868  54.388  1.00  0.00    -0.084 Cl
HETATM   31  C19 UNL     1      26.132   0.055  52.575  1.00  0.00     0.026 A 
HETATM   32  C20 UNL     1      26.682   1.045  51.771  1.00  0.00     0.031 A 
ENDBRANCH  24  26
ENDBRANCH   7  24
TORSDOF 8
ENDMDL
MODEL 4
REMARK VINA RESULT:      -7.8      2.323      2.780
REMARK  8 active torsions:
REMARK  status: ('A' for Active; 'I' for Inactive)
REMARK    1  A    between atoms: C1_2  and  N1_3 
REMARK    2  A    between atoms: C1_2  and  N3_12 
REMARK    3  A    between atoms: N1_3  and  C2_4 
REMARK    4  A    between atoms: C2_4  and  C3_5 
REMARK    5  A    between atoms: C3_5  and  N2_6 
REMARK    6  A    between atoms: N3_12  and  C8_13 
REMARK    7  A    between atoms: C14_19  and  N4_20 
REMARK    8  A    between atoms: N4_20  and  C15_21 
ROOT
HETATM    1  C8  UNL     1      27.214   5.166  48.778  1.00  0.00     0.035 A 
HETATM    2  C9  UNL     1      26.273   6.137  48.544  1.00  0.00     0.032 A 
HETATM    3  C10 UNL     1      24.930   6.068  48.803  1.00  0.00     0.032 A 
HETATM    4  C11 UNL     1      24.524   4.887  49.355  1.00  0.00     0.040 A 
HETATM    5  C12 UNL     1      25.362   3.857  49.632  1.00  0.00     0.012 A 
HETATM    6  C13 UNL     1      26.691   4.018  49.337  1.00  0.00     0.043 A 
HETATM    7  C14 UNL     1      24.316   2.968  50.179  1.00  0.00     0.218 A 
HETATM    8  N5  UNL     1      23.438   4.082  49.866  1.00  0.00    -0.364 N 
HETATM    9  H24 UNL     1      22.407   4.263  49.964  1.00  0.00     0.162 HD
ENDROOT
BRANCH   1  10
HETATM   10  N3  UNL     1      28.590   5.240  48.506  1.00  0.00    -0.333 N 
HETATM   11  H14 UNL     1      29.044   4.293  48.321  1.00  0.00     0.168 HD
BRANCH  10  12
HETATM   12  C1  UNL     1      29.641   6.131  48.378  1.00  0.00     0.172 C 
HETATM   13  S1  UNL     1      29.734   7.273  47.185  1.00  0.00    -0.041 SA
BRANCH  12  14
HETATM   14  N1  UNL     1      30.822   6.340  49.119  1.00  0.00    -0.365 N 
HETATM   15  H1  UNL     1      30.784   7.124  49.766  1.00  0.00     0.161 HD
BRANCH  14  16
HETATM   16  C2  UNL     1      32.109   5.676  49.172  1.00  0.00     0.152 C 
BRANCH  16  17
HETATM   17  C3  UNL     1      33.223   6.542  48.696  1.00  0.00     0.292 C 
BRANCH  17  18
HETATM   18  N2  UNL     1      34.103   5.888  47.780  1.00  0.00     0.094 N 
HETATM   19  C4  UNL     1      33.362   5.198  46.726  1.00  0.00     0.298 C 
HETATM   20  C5  UNL     1      34.328   4.443  45.842  1.00  0.00     0.198 C 
HETATM   21  O1  UNL     1      34.911   3.389  46.544  1.00  0.00    -0.388 OA
HETATM   22  C6  UNL     1      34.765   3.520  47.908  1.00  0.00     0.198 C 
HETATM   23  C7  UNL     1      34.991   4.930  48.419  1.00  0.00     0.298 C 
ENDBRANCH  17  18
ENDBRANCH  16  17
ENDBRANCH  14  16
ENDBRANCH  12  14
ENDBRANCH  10  12
ENDBRANCH   1  10
BRANCH   7  24
HETATM   24  N4  UNL     1      24.546   2.772  51.596  1.00  0.00    -0.365 N 
HETATM   25  H19 UNL     1      25.191   3.379  52.168  1.00  0.00     0.162 HD
BRANCH  24  26
HETATM   26  C15 UNL     1      23.886   1.709  52.299  1.00  0.00     0.029 A 
HETATM   27  C16 UNL     1      24.603   0.677  52.898  1.00  0.00     0.031 A 
HETATM   28  C17 UNL     1      24.046  -0.373  53.589  1.00  0.00     0.026 A 
HETATM   29  C18 UNL     1      22.654  -0.375  53.679  1.00  0.00     0.034 A 
HETATM   30 CL1  UNL     1      21.938  -1.717  54.564  1.00  0.00    -0.084 Cl
HETATM   31  C19 UNL     1      21.888   0.636  53.096  1.00  0.00     0.026 A 
HETATM   32  C20 UNL     1      22.513   1.671  52.410  1.00  0.00     0.031 A 
ENDBRANCH  24  26
ENDBRANCH   7  24
TORSDOF 8
ENDMDL
MODEL 5
REMARK VINA RESULT:      -7.6      5.635      8.530
REMARK  8 active torsions:
REMARK  status: ('A' for Active; 'I' for Inactive)
REMARK    1  A    between atoms: C1_2  and  N1_3 
REMARK    2  A    between atoms: C1_2  and  N3_12 
REMARK    3  A    between atoms: N1_3  and  C2_4 
REMARK    4  A    between atoms: C2_4  and  C3_5 
REMARK    5  A    between atoms: C3_5  and  N2_6 
REMARK    6  A    between atoms: N3_12  and  C8_13 
REMARK    7  A    between atoms: C14_19  and  N4_20 
REMARK    8  A    between atoms: N4_20  and  C15_21 
ROOT
HETATM    1  C8  UNL     1      26.764   2.103  52.154  1.00  0.00     0.035 A 
HETATM    2  C9  UNL     1      27.768   1.400  52.771  1.00  0.00     0.032 A 
HETATM    3  C10 UNL     1      27.629   0.392  53.688  1.00  0.00     0.032 A 
HETATM    4  C11 UNL     1      26.334   0.084  53.993  1.00  0.00     0.040 A 
HETATM    5  C12 UNL     1      25.262   0.708  53.446  1.00  0.00     0.012 A 
HETATM    6  C13 UNL     1      25.499   1.706  52.537  1.00  0.00     0.043 A 
HETATM    7  C14 UNL     1      24.250  -0.082  54.178  1.00  0.00     0.218 A 
HETATM    8  N5  UNL     1      25.415  -0.731  54.755  1.00  0.00    -0.364 N 
HETATM    9  H24 UNL     1      25.563  -1.500  55.456  1.00  0.00     0.162 HD
ENDROOT
BRANCH   1  10
HETATM   10  N3  UNL     1      26.912   3.140  51.216  1.00  0.00    -0.333 N 
HETATM   11  H14 UNL     1      27.759   3.762  51.394  1.00  0.00     0.168 HD
BRANCH  10  12
HETATM   12  C1  UNL     1      26.340   3.689  50.083  1.00  0.00     0.172 C 
HETATM   13  S1  UNL     1      27.176   4.597  48.982  1.00  0.00    -0.041 SA
BRANCH  12  14
HETATM   14  N1  UNL     1      25.033   3.664  49.556  1.00  0.00    -0.365 N 
HETATM   15  H1  UNL     1      24.799   2.819  49.041  1.00  0.00     0.161 HD
BRANCH  14  16
HETATM   16  C2  UNL     1      23.918   4.590  49.581  1.00  0.00     0.152 C 
BRANCH  16  17
HETATM   17  C3  UNL     1      23.777   5.286  50.889  1.00  0.00     0.292 C 
BRANCH  17  18
HETATM   18  N2  UNL     1      22.463   5.195  51.446  1.00  0.00     0.094 N 
HETATM   19  C4  UNL     1      21.892   3.865  51.251  1.00  0.00     0.298 C 
HETATM   20  C5  UNL     1      20.471   3.847  51.767  1.00  0.00     0.198 C 
HETATM   21  O1  UNL     1      19.653   4.649  50.974  1.00  0.00    -0.388 OA
HETATM   22  C6  UNL     1      20.373   5.520  50.187  1.00  0.00     0.198 C 
HETATM   23  C7  UNL     1      21.538   6.176  50.902  1.00  0.00     0.298 C 
ENDBRANCH  17  18
ENDBRANCH  16  17
ENDBRANCH  14  16
ENDBRANCH  12  14
ENDBRANCH  10  12
ENDBRANCH   1  10
BRANCH   7  24
HETATM   24  N4  UNL     1      23.515  -0.906  53.239  1.00  0.00    -0.365 N 
HETATM   25  H19 UNL     1      23.941  -1.724  52.729  1.00  0.00     0.162 HD
BRANCH  24  26
HETATM   26  C15 UNL     1      22.135  -0.631  52.958  1.00  0.00     0.029 A 
HETATM   27  C16 UNL     1      21.749   0.064  51.814  1.00  0.00     0.031 A 
HETATM   28  C17 UNL     1      20.452   0.364  51.474  1.00  0.00     0.026 A 
HETATM   29  C18 UNL     1      19.470  -0.075  52.363  1.00  0.00     0.034 A 
HETATM   30 CL1  UNL     1      17.807   0.307  51.929  1.00  0.00    -0.084 Cl
HETATM   31  C19 UNL     1      19.803  -0.775  53.524  1.00  0.00     0.026 A 
HETATM   32  C20 UNL     1      21.135  -1.047  53.811  1.00  0.00     0.031 A 
ENDBRANCH  24  26
ENDBRANCH   7  24
TORSDOF 8
ENDMDL
MODEL 6
REMARK VINA RESULT:      -7.4      5.637      8.330
REMARK  8 active torsions:
REMARK  status: ('A' for Active; 'I' for Inactive)
REMARK    1  A    between atoms: C1_2  and  N1_3 
REMARK    2  A    between atoms: C1_2  and  N3_12 
REMARK    3  A    between atoms: N1_3  and  C2_4 
REMARK    4  A    between atoms: C2_4  and  C3_5 
REMARK    5  A    between atoms: C3_5  and  N2_6 
REMARK    6  A    between atoms: N3_12  and  C8_13 
REMARK    7  A    between atoms: C14_19  and  N4_20 
REMARK    8  A    between atoms: N4_20  and  C15_21 
ROOT
HETATM    1  C8  UNL     1      26.672   2.109  52.132  1.00  0.00     0.035 A 
HETATM    2  C9  UNL     1      27.696   1.365  52.662  1.00  0.00     0.032 A 
HETATM    3  C10 UNL     1      27.588   0.299  53.515  1.00  0.00     0.032 A 
HETATM    4  C11 UNL     1      26.304  -0.026  53.850  1.00  0.00     0.040 A 
HETATM    5  C12 UNL     1      25.215   0.637  53.388  1.00  0.00     0.012 A 
HETATM    6  C13 UNL     1      25.421   1.691  52.538  1.00  0.00     0.043 A 
HETATM    7  C14 UNL     1      24.229  -0.198  54.106  1.00  0.00     0.218 A 
HETATM    8  N5  UNL     1      25.412  -0.886  54.592  1.00  0.00    -0.364 N 
HETATM    9  H24 UNL     1      25.583  -1.700  55.235  1.00  0.00     0.162 HD
ENDROOT
BRANCH   1  10
HETATM   10  N3  UNL     1      26.788   3.205  51.260  1.00  0.00    -0.333 N 
HETATM   11  H14 UNL     1      27.784   3.576  51.165  1.00  0.00     0.168 HD
BRANCH  10  12
HETATM   12  C1  UNL     1      26.055   4.034  50.429  1.00  0.00     0.172 C 
HETATM   13  S1  UNL     1      26.676   4.757  49.078  1.00  0.00    -0.041 SA
BRANCH  12  14
HETATM   14  N1  UNL     1      24.718   4.478  50.449  1.00  0.00    -0.365 N 
HETATM   15  H1  UNL     1      24.599   5.456  50.704  1.00  0.00     0.161 HD
BRANCH  14  16
HETATM   16  C2  UNL     1      23.441   3.846  50.183  1.00  0.00     0.152 C 
BRANCH  16  17
HETATM   17  C3  UNL     1      23.576   2.581  49.410  1.00  0.00     0.292 C 
BRANCH  17  18
HETATM   18  N2  UNL     1      22.793   2.556  48.214  1.00  0.00     0.094 N 
HETATM   19  C4  UNL     1      22.349   3.897  47.839  1.00  0.00     0.298 C 
HETATM   20  C5  UNL     1      21.448   3.808  46.628  1.00  0.00     0.198 C 
HETATM   21  O1  UNL     1      20.252   3.172  46.956  1.00  0.00    -0.388 OA
HETATM   22  C6  UNL     1      20.334   2.472  48.139  1.00  0.00     0.198 C 
HETATM   23  C7  UNL     1      21.626   1.695  48.307  1.00  0.00     0.298 C 
ENDBRANCH  17  18
ENDBRANCH  16  17
ENDBRANCH  14  16
ENDBRANCH  12  14
ENDBRANCH  10  12
ENDBRANCH   1  10
BRANCH   7  24
HETATM   24  N4  UNL     1      23.453  -0.956  53.145  1.00  0.00    -0.365 N 
HETATM   25  H19 UNL     1      23.837  -1.780  52.611  1.00  0.00     0.162 HD
BRANCH  24  26
HETATM   26  C15 UNL     1      22.089  -0.604  52.873  1.00  0.00     0.029 A 
HETATM   27  C16 UNL     1      21.063  -0.923  53.759  1.00  0.00     0.031 A 
HETATM   28  C17 UNL     1      19.736  -0.619  53.572  1.00  0.00     0.026 A 
HETATM   29  C18 UNL     1      19.425   0.061  52.394  1.00  0.00     0.034 A 
HETATM   30 CL1  UNL     1      17.726   0.451  52.152  1.00  0.00    -0.084 Cl
HETATM   31  C19 UNL     1      20.415   0.403  51.471  1.00  0.00     0.026 A 
HETATM   32  C20 UNL     1      21.740   0.067  51.720  1.00  0.00     0.031 A 
ENDBRANCH  24  26
ENDBRANCH   7  24
TORSDOF 8
ENDMDL
MODEL 7
REMARK VINA RESULT:      -7.3      2.682      3.382
REMARK  8 active torsions:
REMARK  status: ('A' for Active; 'I' for Inactive)
REMARK    1  A    between atoms: C1_2  and  N1_3 
REMARK    2  A    between atoms: C1_2  and  N3_12 
REMARK    3  A    between atoms: N1_3  and  C2_4 
REMARK    4  A    between atoms: C2_4  and  C3_5 
REMARK    5  A    between atoms: C3_5  and  N2_6 
REMARK    6  A    between atoms: N3_12  and  C8_13 
REMARK    7  A    between atoms: C14_19  and  N4_20 
REMARK    8  A    between atoms: N4_20  and  C15_21 
ROOT
HETATM    1  C8  UNL     1      28.874   6.303  47.935  1.00  0.00     0.035 A 
HETATM    2  C9  UNL     1      27.831   7.190  47.850  1.00  0.00     0.032 A 
HETATM    3  C10 UNL     1      26.531   6.976  48.224  1.00  0.00     0.032 A 
HETATM    4  C11 UNL     1      26.289   5.732  48.731  1.00  0.00     0.040 A 
HETATM    5  C12 UNL     1      27.240   4.774  48.863  1.00  0.00     0.012 A 
HETATM    6  C13 UNL     1      28.514   5.079  48.462  1.00  0.00     0.043 A 
HETATM    7  C14 UNL     1      26.336   3.758  49.442  1.00  0.00     0.218 A 
HETATM    8  N5  UNL     1      25.334   4.798  49.284  1.00  0.00    -0.364 N 
HETATM    9  H24 UNL     1      24.305   4.872  49.486  1.00  0.00     0.162 HD
ENDROOT
BRANCH   1  10
HETATM   10  N3  UNL     1      30.206   6.526  47.546  1.00  0.00    -0.333 N 
HETATM   11  H14 UNL     1      30.326   6.699  46.501  1.00  0.00     0.168 HD
BRANCH  10  12
HETATM   12  C1  UNL     1      31.497   6.611  48.037  1.00  0.00     0.172 C 
HETATM   13  S1  UNL     1      32.146   7.993  48.672  1.00  0.00    -0.041 SA
BRANCH  12  14
HETATM   14  N1  UNL     1      32.549   5.679  48.147  1.00  0.00    -0.365 N 
HETATM   15  H1  UNL     1      32.824   5.460  49.101  1.00  0.00     0.161 HD
BRANCH  14  16
HETATM   16  C2  UNL     1      33.347   4.942  47.188  1.00  0.00     0.152 C 
BRANCH  16  17
HETATM   17  C3  UNL     1      32.738   4.918  45.829  1.00  0.00     0.292 C 
BRANCH  17  18
HETATM   18  N2  UNL     1      33.530   5.574  44.836  1.00  0.00     0.094 N 
HETATM   19  C4  UNL     1      32.697   6.326  43.900  1.00  0.00     0.298 C 
HETATM   20  C5  UNL     1      33.567   6.919  42.816  1.00  0.00     0.198 C 
HETATM   21  O1  UNL     1      34.099   5.913  42.011  1.00  0.00    -0.388 OA
HETATM   22  C6  UNL     1      34.019   4.671  42.600  1.00  0.00     0.198 C 
HETATM   23  C7  UNL     1      34.369   4.664  44.075  1.00  0.00     0.298 C 
ENDBRANCH  17  18
ENDBRANCH  16  17
ENDBRANCH  14  16
ENDBRANCH  12  14
ENDBRANCH  10  12
ENDBRANCH   1  10
BRANCH   7  24
HETATM   24  N4  UNL     1      26.718   3.505  50.817  1.00  0.00    -0.365 N 
HETATM   25  H19 UNL     1      27.473   4.044  51.318  1.00  0.00     0.162 HD
BRANCH  24  26
HETATM   26  C15 UNL     1      26.064   2.477  51.575  1.00  0.00     0.029 A 
HETATM   27  C16 UNL     1      24.871   2.718  52.252  1.00  0.00     0.031 A 
HETATM   28  C17 UNL     1      24.184   1.789  52.996  1.00  0.00     0.026 A 
HETATM   29  C18 UNL     1      24.752   0.515  53.057  1.00  0.00     0.034 A 
HETATM   30 CL1  UNL     1      23.874  -0.677  54.008  1.00  0.00    -0.084 Cl
HETATM   31  C19 UNL     1      25.946   0.221  52.398  1.00  0.00     0.026 A 
HETATM   32  C20 UNL     1      26.593   1.206  51.661  1.00  0.00     0.031 A 
ENDBRANCH  24  26
ENDBRANCH   7  24
TORSDOF 8
ENDMDL
MODEL 8
REMARK VINA RESULT:      -7.2      8.023     11.804
REMARK  8 active torsions:
REMARK  status: ('A' for Active; 'I' for Inactive)
REMARK    1  A    between atoms: C1_2  and  N1_3 
REMARK    2  A    between atoms: C1_2  and  N3_12 
REMARK    3  A    between atoms: N1_3  and  C2_4 
REMARK    4  A    between atoms: C2_4  and  C3_5 
REMARK    5  A    between atoms: C3_5  and  N2_6 
REMARK    6  A    between atoms: N3_12  and  C8_13 
REMARK    7  A    between atoms: C14_19  and  N4_20 
REMARK    8  A    between atoms: N4_20  and  C15_21 
ROOT
HETATM    1  C8  UNL     1      20.193   0.445  51.338  1.00  0.00     0.035 A 
HETATM    2  C9  UNL     1      19.375   0.131  52.393  1.00  0.00     0.032 A 
HETATM    3  C10 UNL     1      19.741  -0.451  53.578  1.00  0.00     0.032 A 
HETATM    4  C11 UNL     1      21.073  -0.732  53.679  1.00  0.00     0.040 A 
HETATM    5  C12 UNL     1      21.975  -0.466  52.703  1.00  0.00     0.012 A 
HETATM    6  C13 UNL     1      21.516   0.117  51.551  1.00  0.00     0.043 A 
HETATM    7  C14 UNL     1      23.142  -0.992  53.442  1.00  0.00     0.218 A 
HETATM    8  N5  UNL     1      22.155  -1.274  54.470  1.00  0.00    -0.364 N 
HETATM    9  H24 UNL     1      22.186  -1.703  55.429  1.00  0.00     0.162 HD
ENDROOT
BRANCH   1  10
HETATM   10  N3  UNL     1      19.812   1.038  50.122  1.00  0.00    -0.333 N 
HETATM   11  H14 UNL     1      20.243   0.575  49.263  1.00  0.00     0.168 HD
BRANCH  10  12
HETATM   12  C1  UNL     1      19.043   2.056  49.587  1.00  0.00     0.172 C 
HETATM   13  S1  UNL     1      19.191   3.644  50.024  1.00  0.00    -0.041 SA
BRANCH  12  14
HETATM   14  N1  UNL     1      18.016   2.081  48.622  1.00  0.00    -0.365 N 
HETATM   15  H1  UNL     1      18.339   2.104  47.657  1.00  0.00     0.161 HD
BRANCH  14  16
HETATM   16  C2  UNL     1      16.568   2.081  48.690  1.00  0.00     0.152 C 
BRANCH  16  17
HETATM   17  C3  UNL     1      16.044   1.236  49.798  1.00  0.00     0.292 C 
BRANCH  17  18
HETATM   18  N2  UNL     1      14.994   1.857  50.542  1.00  0.00     0.094 N 
HETATM   19  C4  UNL     1      15.491   2.982  51.331  1.00  0.00     0.298 C 
HETATM   20  C5  UNL     1      14.367   3.542  52.173  1.00  0.00     0.198 C 
HETATM   21  O1  UNL     1      13.988   2.627  53.153  1.00  0.00    -0.388 OA
HETATM   22  C6  UNL     1      14.440   1.353  52.887  1.00  0.00     0.198 C 
HETATM   23  C7  UNL     1      14.301   0.942  51.434  1.00  0.00     0.298 C 
ENDBRANCH  17  18
ENDBRANCH  16  17
ENDBRANCH  14  16
ENDBRANCH  12  14
ENDBRANCH  10  12
ENDBRANCH   1  10
BRANCH   7  24
HETATM   24  N4  UNL     1      24.039   0.100  53.762  1.00  0.00    -0.365 N 
HETATM   25  H19 UNL     1      23.705   1.060  54.044  1.00  0.00     0.162 HD
BRANCH  24  26
HETATM   26  C15 UNL     1      25.460  -0.087  53.706  1.00  0.00     0.029 A 
HETATM   27  C16 UNL     1      26.292   0.335  54.740  1.00  0.00     0.031 A 
HETATM   28  C17 UNL     1      27.658   0.191  54.762  1.00  0.00     0.026 A 
HETATM   29  C18 UNL     1      28.225  -0.429  53.647  1.00  0.00     0.034 A 
HETATM   30 CL1  UNL     1      29.975  -0.615  53.673  1.00  0.00    -0.084 Cl
HETATM   31  C19 UNL     1      27.437  -0.870  52.583  1.00  0.00     0.026 A 
HETATM   32  C20 UNL     1      26.059  -0.694  52.622  1.00  0.00     0.031 A 
ENDBRANCH  24  26
ENDBRANCH   7  24
TORSDOF 8
ENDMDL
MODEL 9
REMARK VINA RESULT:      -7.2      1.708      2.290
REMARK  8 active torsions:
REMARK  status: ('A' for Active; 'I' for Inactive)
REMARK    1  A    between atoms: C1_2  and  N1_3 
REMARK    2  A    between atoms: C1_2  and  N3_12 
REMARK    3  A    between atoms: N1_3  and  C2_4 
REMARK    4  A    between atoms: C2_4  and  C3_5 
REMARK    5  A    between atoms: C3_5  and  N2_6 
REMARK    6  A    between atoms: N3_12  and  C8_13 
REMARK    7  A    between atoms: C14_19  and  N4_20 
REMARK    8  A    between atoms: N4_20  and  C15_21 
ROOT
HETATM    1  C8  UNL     1      26.156   6.553  49.060  1.00  0.00     0.035 A 
HETATM    2  C9  UNL     1      25.072   7.150  48.467  1.00  0.00     0.032 A 
HETATM    3  C10 UNL     1      23.856   6.577  48.200  1.00  0.00     0.032 A 
HETATM    4  C11 UNL     1      23.754   5.270  48.580  1.00  0.00     0.040 A 
HETATM    5  C12 UNL     1      24.757   4.578  49.174  1.00  0.00     0.012 A 
HETATM    6  C13 UNL     1      25.939   5.234  49.401  1.00  0.00     0.043 A 
HETATM    7  C14 UNL     1      24.001   3.315  49.301  1.00  0.00     0.218 A 
HETATM    8  N5  UNL     1      22.944   4.076  48.657  1.00  0.00    -0.364 N 
HETATM    9  H24 UNL     1      21.959   3.866  48.354  1.00  0.00     0.162 HD
ENDROOT
BRANCH   1  10
HETATM   10  N3  UNL     1      27.403   7.143  49.328  1.00  0.00    -0.333 N 
HETATM   11  H14 UNL     1      27.648   7.179  50.365  1.00  0.00     0.168 HD
BRANCH  10  12
HETATM   12  C1  UNL     1      28.497   7.730  48.717  1.00  0.00     0.172 C 
HETATM   13  S1  UNL     1      28.444   9.197  47.956  1.00  0.00    -0.041 SA
BRANCH  12  14
HETATM   14  N1  UNL     1      29.840   7.332  48.561  1.00  0.00    -0.365 N 
HETATM   15  H1  UNL     1      29.984   6.578  47.893  1.00  0.00     0.161 HD
BRANCH  14  16
HETATM   16  C2  UNL     1      31.094   7.761  49.147  1.00  0.00     0.152 C 
BRANCH  16  17
HETATM   17  C3  UNL     1      32.270   7.429  48.296  1.00  0.00     0.292 C 
BRANCH  17  18
HETATM   18  N2  UNL     1      33.084   6.382  48.830  1.00  0.00     0.094 N 
HETATM   19  C4  UNL     1      34.501   6.621  48.567  1.00  0.00     0.298 C 
HETATM   20  C5  UNL     1      35.310   5.444  49.062  1.00  0.00     0.198 C 
HETATM   21  O1  UNL     1      35.044   4.311  48.295  1.00  0.00    -0.388 OA
HETATM   22  C6  UNL     1      33.886   4.433  47.559  1.00  0.00     0.198 C 
HETATM   23  C7  UNL     1      32.737   5.066  48.319  1.00  0.00     0.298 C 
ENDBRANCH  17  18
ENDBRANCH  16  17
ENDBRANCH  14  16
ENDBRANCH  12  14
ENDBRANCH  10  12
ENDBRANCH   1  10
BRANCH   7  24
HETATM   24  N4  UNL     1      23.764   3.037  50.704  1.00  0.00    -0.365 N 
HETATM   25  H19 UNL     1      23.044   3.548  51.282  1.00  0.00     0.162 HD
BRANCH  24  26
HETATM   26  C15 UNL     1      24.523   2.027  51.383  1.00  0.00     0.029 A 
HETATM   27  C16 UNL     1      25.903   1.928  51.231  1.00  0.00     0.031 A 
HETATM   28  C17 UNL     1      26.699   0.992  51.847  1.00  0.00     0.026 A 
HETATM   29  C18 UNL     1      26.043   0.085  52.681  1.00  0.00     0.034 A 
HETATM   30 CL1  UNL     1      27.060  -1.114  53.472  1.00  0.00    -0.084 Cl
HETATM   31  C19 UNL     1      24.661   0.140  52.867  1.00  0.00     0.026 A 
HETATM   32  C20 UNL     1      23.912   1.113  52.215  1.00  0.00     0.031 A 
ENDBRANCH  24  26
ENDBRANCH   7  24
TORSDOF 8
ENDMDL
