MODEL 1
REMARK VINA RESULT:      -9.6      0.000      0.000
REMARK  2 active torsions:
REMARK  status: ('A' for Active; 'I' for Inactive)
REMARK    1  A    between atoms: C7_7  and  C8_8 
REMARK    2  A    between atoms: C13_15  and  N3_16 
REMARK       I    between atoms: N3_16  and  C14_17 
REMARK       I    between atoms: C14_17  and  N4_18 
ROOT
HETATM    1  C1  UNL     1      17.803  -0.567  52.434  1.00  0.00     0.018 C 
HETATM    2  C2  UNL     1      18.932  -0.612  52.857  1.00  0.00    -0.078 C 
HETATM    3  C3  UNL     1      20.281  -0.658  53.343  1.00  0.00     0.017 A 
HETATM    4  C4  UNL     1      20.613  -1.613  54.265  1.00  0.00     0.020 A 
HETATM    5  C5  UNL     1      21.913  -1.643  54.721  1.00  0.00     0.002 A 
HETATM    6  C6  UNL     1      22.861  -0.749  54.274  1.00  0.00     0.014 A 
HETATM    7  C7  UNL     1      22.574   0.214  53.359  1.00  0.00    -0.005 A 
HETATM    8  C17 UNL     1      21.247   0.225  52.910  1.00  0.00     0.034 A 
ENDROOT
BRANCH   7   9
HETATM    9  C8  UNL     1      23.409   1.229  52.738  1.00  0.00     0.081 A 
HETATM   10  N1  UNL     1      22.721   2.297  52.234  1.00  0.00    -0.240 NA
HETATM   11  C9  UNL     1      23.324   3.331  51.621  1.00  0.00     0.234 A 
HETATM   12  N2  UNL     1      24.663   3.391  51.460  1.00  0.00    -0.241 NA
HETATM   13  C10 UNL     1      25.377   2.359  51.942  1.00  0.00     0.070 A 
HETATM   14  C11 UNL     1      26.751   2.270  51.845  1.00  0.00     0.035 A 
HETATM   15  C16 UNL     1      24.775   1.291  52.572  1.00  0.00     0.025 A 
HETATM   16  C12 UNL     1      27.484   1.202  52.334  1.00  0.00     0.032 A 
HETATM   17  C13 UNL     1      26.818   0.145  52.962  1.00  0.00     0.037 A 
HETATM   18  C15 UNL     1      25.446   0.200  53.078  1.00  0.00     0.045 A 
BRANCH  17  19
HETATM   19  N3  UNL     1      27.626  -0.921  53.442  1.00  0.00    -0.309 N 
HETATM   20  C14 UNL     1      27.522  -2.183  52.769  1.00  0.00     0.318 C 
HETATM   21  N4  UNL     1      28.290  -3.299  53.180  1.00  0.00    -0.352 N 
HETATM   22  O1  UNL     1      26.848  -2.611  51.795  1.00  0.00    -0.247 OA
HETATM   23  H9  UNL     1      28.240  -3.678  54.160  1.00  0.00     0.160 HD
HETATM   24  H10 UNL     1      28.991  -3.943  52.726  1.00  0.00     0.160 HD
HETATM   25  H8  UNL     1      28.301  -0.906  54.236  1.00  0.00     0.170 HD
ENDBRANCH  17  19
ENDBRANCH   7   9
TORSDOF 2
ENDMDL
MODEL 2
REMARK VINA RESULT:      -9.0      3.499      6.735
REMARK  2 active torsions:
REMARK  status: ('A' for Active; 'I' for Inactive)
REMARK    1  A    between atoms: C7_7  and  C8_8 
REMARK    2  A    between atoms: C13_15  and  N3_16 
REMARK       I    between atoms: N3_16  and  C14_17 
REMARK       I    between atoms: C14_17  and  N4_18 
ROOT
HETATM    1  C1  UNL     1      25.011   9.198  49.073  1.00  0.00     0.018 C 
HETATM    2  C2  UNL     1      25.480   8.087  49.041  1.00  0.00    -0.078 C 
HETATM    3  C3  UNL     1      26.025   6.760  49.019  1.00  0.00     0.017 A 
HETATM    4  C4  UNL     1      27.305   6.586  48.568  1.00  0.00     0.020 A 
HETATM    5  C5  UNL     1      27.813   5.304  48.553  1.00  0.00     0.002 A 
HETATM    6  C6  UNL     1      27.071   4.224  48.974  1.00  0.00     0.014 A 
HETATM    7  C7  UNL     1      25.797   4.352  49.430  1.00  0.00    -0.005 A 
HETATM    8  C17 UNL     1      25.302   5.663  49.436  1.00  0.00     0.034 A 
ENDROOT
BRANCH   7   9
HETATM    9  C8  UNL     1      24.855   3.369  49.938  1.00  0.00     0.081 A 
HETATM   10  N1  UNL     1      23.793   3.124  49.113  1.00  0.00    -0.240 NA
HETATM   11  C9  UNL     1      22.818   2.249  49.418  1.00  0.00     0.234 A 
HETATM   12  N2  UNL     1      22.818   1.544  50.569  1.00  0.00    -0.241 NA
HETATM   13  C10 UNL     1      23.846   1.757  51.409  1.00  0.00     0.070 A 
HETATM   14  C11 UNL     1      23.980   1.121  52.626  1.00  0.00     0.035 A 
HETATM   15  C16 UNL     1      24.852   2.650  51.113  1.00  0.00     0.025 A 
HETATM   16  C12 UNL     1      25.034   1.348  53.495  1.00  0.00     0.032 A 
HETATM   17  C13 UNL     1      26.026   2.268  53.141  1.00  0.00     0.037 A 
HETATM   18  C15 UNL     1      25.925   2.922  51.933  1.00  0.00     0.045 A 
BRANCH  17  19
HETATM   19  N3  UNL     1      27.081   2.457  54.075  1.00  0.00    -0.309 N 
HETATM   20  C14 UNL     1      28.378   1.965  53.716  1.00  0.00     0.318 C 
HETATM   21  N4  UNL     1      29.485   2.111  54.587  1.00  0.00    -0.352 N 
HETATM   22  O1  UNL     1      28.848   1.365  52.713  1.00  0.00    -0.247 OA
HETATM   23  H9  UNL     1      29.476   1.728  55.567  1.00  0.00     0.160 HD
HETATM   24  H10 UNL     1      30.441   2.551  54.526  1.00  0.00     0.160 HD
HETATM   25  H8  UNL     1      27.033   2.919  55.009  1.00  0.00     0.170 HD
ENDBRANCH  17  19
ENDBRANCH   7   9
TORSDOF 2
ENDMDL
MODEL 3
REMARK VINA RESULT:      -8.9      2.662      5.786
REMARK  2 active torsions:
REMARK  status: ('A' for Active; 'I' for Inactive)
REMARK    1  A    between atoms: C7_7  and  C8_8 
REMARK    2  A    between atoms: C13_15  and  N3_16 
REMARK       I    between atoms: N3_16  and  C14_17 
REMARK       I    between atoms: C14_17  and  N4_18 
ROOT
HETATM    1  C1  UNL     1      27.632   4.894  48.556  1.00  0.00     0.018 C 
HETATM    2  C2  UNL     1      26.655   4.931  49.263  1.00  0.00    -0.078 C 
HETATM    3  C3  UNL     1      25.488   4.956  50.097  1.00  0.00     0.017 A 
HETATM    4  C4  UNL     1      24.918   6.165  50.388  1.00  0.00     0.020 A 
HETATM    5  C5  UNL     1      23.797   6.171  51.192  1.00  0.00     0.002 A 
HETATM    6  C6  UNL     1      23.257   5.007  51.693  1.00  0.00     0.014 A 
HETATM    7  C7  UNL     1      23.791   3.787  51.429  1.00  0.00    -0.005 A 
HETATM    8  C17 UNL     1      24.929   3.806  50.611  1.00  0.00     0.034 A 
ENDROOT
BRANCH   7   9
HETATM    9  C8  UNL     1      23.379   2.451  51.825  1.00  0.00     0.081 A 
HETATM   10  N1  UNL     1      22.173   2.056  51.317  1.00  0.00    -0.240 NA
HETATM   11  C9  UNL     1      21.628   0.855  51.578  1.00  0.00     0.234 A 
HETATM   12  N2  UNL     1      22.238  -0.056  52.366  1.00  0.00    -0.241 NA
HETATM   13  C10 UNL     1      23.428   0.294  52.886  1.00  0.00     0.070 A 
HETATM   14  C11 UNL     1      24.167  -0.524  53.717  1.00  0.00     0.035 A 
HETATM   15  C16 UNL     1      23.999   1.520  52.630  1.00  0.00     0.025 A 
HETATM   16  C12 UNL     1      25.387  -0.158  54.260  1.00  0.00     0.032 A 
HETATM   17  C13 UNL     1      25.918   1.102  53.965  1.00  0.00     0.037 A 
HETATM   18  C15 UNL     1      25.207   1.944  53.139  1.00  0.00     0.045 A 
BRANCH  17  19
HETATM   19  N3  UNL     1      27.172   1.417  54.553  1.00  0.00    -0.309 N 
HETATM   20  C14 UNL     1      28.165   2.018  53.711  1.00  0.00     0.318 C 
HETATM   21  N4  UNL     1      29.442   2.365  54.214  1.00  0.00    -0.352 N 
HETATM   22  O1  UNL     1      28.205   2.358  52.499  1.00  0.00    -0.247 OA
HETATM   23  H9  UNL     1      30.075   1.654  54.662  1.00  0.00     0.160 HD
HETATM   24  H10 UNL     1      30.015   3.248  54.278  1.00  0.00     0.160 HD
HETATM   25  H8  UNL     1      27.473   1.266  55.540  1.00  0.00     0.170 HD
ENDBRANCH  17  19
ENDBRANCH   7   9
TORSDOF 2
ENDMDL
MODEL 4
REMARK VINA RESULT:      -8.9      2.423      4.934
REMARK  2 active torsions:
REMARK  status: ('A' for Active; 'I' for Inactive)
REMARK    1  A    between atoms: C7_7  and  C8_8 
REMARK    2  A    between atoms: C13_15  and  N3_16 
REMARK       I    between atoms: N3_16  and  C14_17 
REMARK       I    between atoms: C14_17  and  N4_18 
ROOT
HETATM    1  C1  UNL     1      21.947   3.201  46.685  1.00  0.00     0.018 C 
HETATM    2  C2  UNL     1      22.511   3.100  47.747  1.00  0.00    -0.078 C 
HETATM    3  C3  UNL     1      23.164   2.979  49.019  1.00  0.00     0.017 A 
HETATM    4  C4  UNL     1      24.395   3.555  49.180  1.00  0.00     0.020 A 
HETATM    5  C5  UNL     1      25.007   3.428  50.409  1.00  0.00     0.002 A 
HETATM    6  C6  UNL     1      24.416   2.748  51.449  1.00  0.00     0.014 A 
HETATM    7  C7  UNL     1      23.196   2.162  51.332  1.00  0.00    -0.005 A 
HETATM    8  C17 UNL     1      22.592   2.303  50.075  1.00  0.00     0.034 A 
ENDROOT
BRANCH   7   9
HETATM    9  C8  UNL     1      22.386   1.428  52.290  1.00  0.00     0.081 A 
HETATM   10  N1  UNL     1      21.047   1.703  52.228  1.00  0.00    -0.240 NA
HETATM   11  C9  UNL     1      20.145   1.123  53.038  1.00  0.00     0.234 A 
HETATM   12  N2  UNL     1      20.497   0.219  53.978  1.00  0.00    -0.241 NA
HETATM   13  C10 UNL     1      21.804  -0.079  54.071  1.00  0.00     0.070 A 
HETATM   14  C11 UNL     1      22.320  -0.974  54.987  1.00  0.00     0.035 A 
HETATM   15  C16 UNL     1      22.743   0.507  53.250  1.00  0.00     0.025 A 
HETATM   16  C12 UNL     1      23.668  -1.272  55.088  1.00  0.00     0.032 A 
HETATM   17  C13 UNL     1      24.574  -0.645  54.228  1.00  0.00     0.037 A 
HETATM   18  C15 UNL     1      24.096   0.254  53.301  1.00  0.00     0.045 A 
BRANCH  17  19
HETATM   19  N3  UNL     1      25.943  -0.993  54.383  1.00  0.00    -0.309 N 
HETATM   20  C14 UNL     1      26.849   0.047  54.775  1.00  0.00     0.318 C 
HETATM   21  N4  UNL     1      28.230  -0.212  54.952  1.00  0.00    -0.352 N 
HETATM   22  O1  UNL     1      26.727   1.273  55.033  1.00  0.00    -0.247 OA
HETATM   23  H9  UNL     1      28.825  -0.608  54.180  1.00  0.00     0.160 HD
HETATM   24  H10 UNL     1      28.924  -0.108  55.739  1.00  0.00     0.160 HD
HETATM   25  H8  UNL     1      26.386  -1.927  54.246  1.00  0.00     0.170 HD
ENDBRANCH  17  19
ENDBRANCH   7   9
TORSDOF 2
ENDMDL
MODEL 5
REMARK VINA RESULT:      -8.8      2.766      6.300
REMARK  2 active torsions:
REMARK  status: ('A' for Active; 'I' for Inactive)
REMARK    1  A    between atoms: C7_7  and  C8_8 
REMARK    2  A    between atoms: C13_15  and  N3_16 
REMARK       I    between atoms: N3_16  and  C14_17 
REMARK       I    between atoms: C14_17  and  N4_18 
ROOT
HETATM    1  C1  UNL     1      27.419   4.725  48.802  1.00  0.00     0.018 C 
HETATM    2  C2  UNL     1      26.557   4.059  49.321  1.00  0.00    -0.078 C 
HETATM    3  C3  UNL     1      25.548   3.254  49.946  1.00  0.00     0.017 A 
HETATM    4  C4  UNL     1      24.299   3.219  49.387  1.00  0.00     0.020 A 
HETATM    5  C5  UNL     1      23.342   2.440  50.000  1.00  0.00     0.002 A 
HETATM    6  C6  UNL     1      23.615   1.715  51.139  1.00  0.00     0.014 A 
HETATM    7  C7  UNL     1      24.840   1.721  51.726  1.00  0.00    -0.005 A 
HETATM    8  C17 UNL     1      25.797   2.519  51.085  1.00  0.00     0.034 A 
ENDROOT
BRANCH   7   9
HETATM    9  C8  UNL     1      25.348   1.024  52.896  1.00  0.00     0.081 A 
HETATM   10  N1  UNL     1      26.660   1.282  53.183  1.00  0.00    -0.240 NA
HETATM   11  C9  UNL     1      27.302   0.726  54.224  1.00  0.00     0.234 A 
HETATM   12  N2  UNL     1      26.695  -0.133  55.070  1.00  0.00    -0.241 NA
HETATM   13  C10 UNL     1      25.403  -0.414  54.822  1.00  0.00     0.070 A 
HETATM   14  C11 UNL     1      24.650  -1.279  55.589  1.00  0.00     0.035 A 
HETATM   15  C16 UNL     1      24.730   0.146  53.759  1.00  0.00     0.025 A 
HETATM   16  C12 UNL     1      23.323  -1.575  55.327  1.00  0.00     0.032 A 
HETATM   17  C13 UNL     1      22.692  -0.977  54.232  1.00  0.00     0.037 A 
HETATM   18  C15 UNL     1      23.413  -0.107  53.444  1.00  0.00     0.045 A 
BRANCH  17  19
HETATM   19  N3  UNL     1      21.330  -1.321  54.016  1.00  0.00    -0.309 N 
HETATM   20  C14 UNL     1      20.403  -0.249  53.804  1.00  0.00     0.318 C 
HETATM   21  N4  UNL     1      19.027  -0.501  53.581  1.00  0.00    -0.352 N 
HETATM   22  O1  UNL     1      20.500   1.006  53.760  1.00  0.00    -0.247 OA
HETATM   23  H9  UNL     1      18.441  -1.036  54.272  1.00  0.00     0.160 HD
HETATM   24  H10 UNL     1      18.331  -0.279  52.821  1.00  0.00     0.160 HD
HETATM   25  H8  UNL     1      20.907  -2.274  53.990  1.00  0.00     0.170 HD
ENDBRANCH  17  19
ENDBRANCH   7   9
TORSDOF 2
ENDMDL
MODEL 6
REMARK VINA RESULT:      -8.5      2.610      6.108
REMARK  2 active torsions:
REMARK  status: ('A' for Active; 'I' for Inactive)
REMARK    1  A    between atoms: C7_7  and  C8_8 
REMARK    2  A    between atoms: C13_15  and  N3_16 
REMARK       I    between atoms: N3_16  and  C14_17 
REMARK       I    between atoms: C14_17  and  N4_18 
ROOT
HETATM    1  C1  UNL     1      29.758   2.129  54.629  1.00  0.00     0.018 C 
HETATM    2  C2  UNL     1      29.026   1.269  54.202  1.00  0.00    -0.078 C 
HETATM    3  C3  UNL     1      28.142   0.254  53.708  1.00  0.00     0.017 A 
HETATM    4  C4  UNL     1      28.676  -0.938  53.299  1.00  0.00     0.020 A 
HETATM    5  C5  UNL     1      27.812  -1.902  52.826  1.00  0.00     0.002 A 
HETATM    6  C6  UNL     1      26.452  -1.689  52.760  1.00  0.00     0.014 A 
HETATM    7  C7  UNL     1      25.881  -0.523  53.156  1.00  0.00    -0.005 A 
HETATM    8  C17 UNL     1      26.778   0.443  53.632  1.00  0.00     0.034 A 
ENDROOT
BRANCH   7   9
HETATM    9  C8  UNL     1      24.491  -0.098  53.196  1.00  0.00     0.081 A 
HETATM   10  N1  UNL     1      23.702  -0.824  54.044  1.00  0.00    -0.240 NA
HETATM   11  C9  UNL     1      22.390  -0.579  54.209  1.00  0.00     0.234 A 
HETATM   12  N2  UNL     1      21.753   0.410  53.546  1.00  0.00    -0.241 NA
HETATM   13  C10 UNL     1      22.495   1.147  52.702  1.00  0.00     0.070 A 
HETATM   14  C11 UNL     1      21.986   2.185  51.947  1.00  0.00     0.035 A 
HETATM   15  C16 UNL     1      23.839   0.910  52.519  1.00  0.00     0.025 A 
HETATM   16  C12 UNL     1      22.749   2.938  51.070  1.00  0.00     0.032 A 
HETATM   17  C13 UNL     1      24.110   2.648  50.925  1.00  0.00     0.037 A 
HETATM   18  C15 UNL     1      24.652   1.620  51.663  1.00  0.00     0.045 A 
BRANCH  17  19
HETATM   19  N3  UNL     1      24.838   3.456  50.010  1.00  0.00    -0.309 N 
HETATM   20  C14 UNL     1      26.258   3.541  50.188  1.00  0.00     0.318 C 
HETATM   21  N4  UNL     1      27.060   4.323  49.322  1.00  0.00    -0.352 N 
HETATM   22  O1  UNL     1      27.075   3.047  51.009  1.00  0.00    -0.247 OA
HETATM   23  H9  UNL     1      26.891   5.352  49.186  1.00  0.00     0.160 HD
HETATM   24  H10 UNL     1      27.886   4.145  48.691  1.00  0.00     0.160 HD
HETATM   25  H8  UNL     1      24.466   4.007  49.206  1.00  0.00     0.170 HD
ENDBRANCH  17  19
ENDBRANCH   7   9
TORSDOF 2
ENDMDL
MODEL 7
REMARK VINA RESULT:      -8.5      2.345      4.479
REMARK  2 active torsions:
REMARK  status: ('A' for Active; 'I' for Inactive)
REMARK    1  A    between atoms: C7_7  and  C8_8 
REMARK    2  A    between atoms: C13_15  and  N3_16 
REMARK       I    between atoms: N3_16  and  C14_17 
REMARK       I    between atoms: C14_17  and  N4_18 
ROOT
HETATM    1  C1  UNL     1      19.013   0.572  50.863  1.00  0.00     0.018 C 
HETATM    2  C2  UNL     1      19.827   0.246  51.692  1.00  0.00    -0.078 C 
HETATM    3  C3  UNL     1      20.809  -0.145  52.663  1.00  0.00     0.017 A 
HETATM    4  C4  UNL     1      20.382  -0.712  53.833  1.00  0.00     0.020 A 
HETATM    5  C5  UNL     1      21.339  -1.082  54.754  1.00  0.00     0.002 A 
HETATM    6  C6  UNL     1      22.683  -0.893  54.522  1.00  0.00     0.014 A 
HETATM    7  C7  UNL     1      23.149  -0.335  53.374  1.00  0.00    -0.005 A 
HETATM    8  C17 UNL     1      22.160   0.033  52.453  1.00  0.00     0.034 A 
ENDROOT
BRANCH   7   9
HETATM    9  C8  UNL     1      24.502  -0.067  52.916  1.00  0.00     0.081 A 
HETATM   10  N1  UNL     1      25.410  -1.040  53.232  1.00  0.00    -0.240 NA
HETATM   11  C9  UNL     1      26.709  -0.964  52.894  1.00  0.00     0.234 A 
HETATM   12  N2  UNL     1      27.215   0.085  52.212  1.00  0.00    -0.241 NA
HETATM   13  C10 UNL     1      26.355   1.064  51.881  1.00  0.00     0.070 A 
HETATM   14  C11 UNL     1      26.722   2.203  51.194  1.00  0.00     0.035 A 
HETATM   15  C16 UNL     1      25.021   1.003  52.220  1.00  0.00     0.025 A 
HETATM   16  C12 UNL     1      25.837   3.214  50.863  1.00  0.00     0.032 A 
HETATM   17  C13 UNL     1      24.494   3.098  51.235  1.00  0.00     0.037 A 
HETATM   18  C15 UNL     1      24.091   1.974  51.922  1.00  0.00     0.045 A 
BRANCH  17  19
HETATM   19  N3  UNL     1      23.637   4.170  50.867  1.00  0.00    -0.309 N 
HETATM   20  C14 UNL     1      23.233   5.078  51.900  1.00  0.00     0.318 C 
HETATM   21  N4  UNL     1      22.380   6.173  51.621  1.00  0.00    -0.352 N 
HETATM   22  O1  UNL     1      23.464   5.169  53.134  1.00  0.00    -0.247 OA
HETATM   23  H9  UNL     1      21.427   6.042  51.195  1.00  0.00     0.160 HD
HETATM   24  H10 UNL     1      22.434   7.221  51.733  1.00  0.00     0.160 HD
HETATM   25  H8  UNL     1      23.254   4.387  49.922  1.00  0.00     0.170 HD
ENDBRANCH  17  19
ENDBRANCH   7   9
TORSDOF 2
ENDMDL
MODEL 8
REMARK VINA RESULT:      -8.3      4.540      7.041
REMARK  2 active torsions:
REMARK  status: ('A' for Active; 'I' for Inactive)
REMARK    1  A    between atoms: C7_7  and  C8_8 
REMARK    2  A    between atoms: C13_15  and  N3_16 
REMARK       I    between atoms: N3_16  and  C14_17 
REMARK       I    between atoms: C14_17  and  N4_18 
ROOT
HETATM    1  C1  UNL     1      23.182  -0.476  53.651  1.00  0.00     0.018 C 
HETATM    2  C2  UNL     1      23.904   0.261  53.023  1.00  0.00    -0.078 C 
HETATM    3  C3  UNL     1      24.748   1.135  52.261  1.00  0.00     0.017 A 
HETATM    4  C4  UNL     1      26.099   1.088  52.471  1.00  0.00     0.020 A 
HETATM    5  C5  UNL     1      26.895   1.935  51.730  1.00  0.00     0.002 A 
HETATM    6  C6  UNL     1      26.365   2.808  50.806  1.00  0.00     0.014 A 
HETATM    7  C7  UNL     1      25.030   2.887  50.566  1.00  0.00    -0.005 A 
HETATM    8  C17 UNL     1      24.241   2.016  51.330  1.00  0.00     0.034 A 
ENDROOT
BRANCH   7   9
HETATM    9  C8  UNL     1      24.267   3.702  49.636  1.00  0.00     0.081 A 
HETATM   10  N1  UNL     1      23.113   3.122  49.189  1.00  0.00    -0.240 NA
HETATM   11  C9  UNL     1      22.281   3.724  48.322  1.00  0.00     0.234 A 
HETATM   12  N2  UNL     1      22.527   4.956  47.825  1.00  0.00    -0.241 NA
HETATM   13  C10 UNL     1      23.653   5.561  48.240  1.00  0.00     0.070 A 
HETATM   14  C11 UNL     1      24.046   6.814  47.816  1.00  0.00     0.035 A 
HETATM   15  C16 UNL     1      24.517   4.958  49.128  1.00  0.00     0.025 A 
HETATM   16  C12 UNL     1      25.211   7.433  48.236  1.00  0.00     0.032 A 
HETATM   17  C13 UNL     1      26.051   6.771  49.138  1.00  0.00     0.037 A 
HETATM   18  C15 UNL     1      25.690   5.518  49.583  1.00  0.00     0.045 A 
BRANCH  17  19
HETATM   19  N3  UNL     1      27.231   7.457  49.530  1.00  0.00    -0.309 N 
HETATM   20  C14 UNL     1      27.079   8.773  50.080  1.00  0.00     0.318 C 
HETATM   21  N4  UNL     1      28.202   9.528  50.496  1.00  0.00    -0.352 N 
HETATM   22  O1  UNL     1      26.094   9.521  50.317  1.00  0.00    -0.247 OA
HETATM   23  H9  UNL     1      28.990   9.760  49.840  1.00  0.00     0.160 HD
HETATM   24  H10 UNL     1      28.515   9.984  51.394  1.00  0.00     0.160 HD
HETATM   25  H8  UNL     1      28.217   7.122  49.469  1.00  0.00     0.170 HD
ENDBRANCH  17  19
ENDBRANCH   7   9
TORSDOF 2
ENDMDL
MODEL 9
REMARK VINA RESULT:      -8.2      2.492      4.836
REMARK  2 active torsions:
REMARK  status: ('A' for Active; 'I' for Inactive)
REMARK    1  A    between atoms: C7_7  and  C8_8 
REMARK    2  A    between atoms: C13_15  and  N3_16 
REMARK       I    between atoms: N3_16  and  C14_17 
REMARK       I    between atoms: C14_17  and  N4_18 
ROOT
HETATM    1  C1  UNL     1      22.720   5.770  50.890  1.00  0.00     0.018 C 
HETATM    2  C2  UNL     1      22.449   4.612  50.688  1.00  0.00    -0.078 C 
HETATM    3  C3  UNL     1      22.138   3.229  50.464  1.00  0.00     0.017 A 
HETATM    4  C4  UNL     1      21.890   2.813  49.184  1.00  0.00     0.020 A 
HETATM    5  C5  UNL     1      21.593   1.481  48.987  1.00  0.00     0.002 A 
HETATM    6  C6  UNL     1      21.542   0.586  50.032  1.00  0.00     0.014 A 
HETATM    7  C7  UNL     1      21.782   0.956  51.316  1.00  0.00    -0.005 A 
HETATM    8  C17 UNL     1      22.082   2.314  51.493  1.00  0.00     0.034 A 
ENDROOT
BRANCH   7   9
HETATM    9  C8  UNL     1      21.806   0.188  52.550  1.00  0.00     0.081 A 
HETATM   10  N1  UNL     1      20.574  -0.196  53.002  1.00  0.00    -0.240 NA
HETATM   11  C9  UNL     1      20.399  -0.909  54.128  1.00  0.00     0.234 A 
HETATM   12  N2  UNL     1      21.435  -1.302  54.900  1.00  0.00    -0.241 NA
HETATM   13  C10 UNL     1      22.665  -0.945  54.489  1.00  0.00     0.070 A 
HETATM   14  C11 UNL     1      23.820  -1.262  55.174  1.00  0.00     0.035 A 
HETATM   15  C16 UNL     1      22.862  -0.213  53.339  1.00  0.00     0.025 A 
HETATM   16  C12 UNL     1      25.085  -0.885  54.756  1.00  0.00     0.032 A 
HETATM   17  C13 UNL     1      25.223  -0.141  53.580  1.00  0.00     0.037 A 
HETATM   18  C15 UNL     1      24.091   0.194  52.870  1.00  0.00     0.045 A 
BRANCH  17  19
HETATM   19  N3  UNL     1      26.546   0.216  53.204  1.00  0.00    -0.309 N 
HETATM   20  C14 UNL     1      27.030   1.498  53.625  1.00  0.00     0.318 C 
HETATM   21  N4  UNL     1      28.336   1.934  53.295  1.00  0.00    -0.352 N 
HETATM   22  O1  UNL     1      26.541   2.451  54.288  1.00  0.00    -0.247 OA
HETATM   23  H9  UNL     1      28.665   2.000  52.298  1.00  0.00     0.160 HD
HETATM   24  H10 UNL     1      29.185   2.252  53.834  1.00  0.00     0.160 HD
HETATM   25  H8  UNL     1      27.228  -0.347  52.651  1.00  0.00     0.170 HD
ENDBRANCH  17  19
ENDBRANCH   7   9
TORSDOF 2
ENDMDL
