MODEL 1
REMARK VINA RESULT:      -8.2      0.000      0.000
REMARK  2 active torsions:
REMARK  status: ('A' for Active; 'I' for Inactive)
REMARK    1  A    between atoms: O1_2  and  C2_3 
REMARK    2  A    between atoms: C11_16  and  O4_17 
ROOT
HETATM    1  C2  UNL     1      27.322   0.211  54.253  1.00  0.00     0.083 C 
HETATM    2  C3  UNL     1      25.979   0.060  54.078  1.00  0.00     0.140 C 
HETATM    3  C4  UNL     1      25.113  -0.818  54.912  1.00  0.00     0.010 C 
HETATM    4  C5  UNL     1      23.887  -0.686  54.435  1.00  0.00     0.040 C 
HETATM    5  C6  UNL     1      23.755   0.239  53.277  1.00  0.00     0.145 C 
HETATM    6  C7  UNL     1      22.339   0.601  53.032  1.00  0.00     0.149 C 
HETATM    7  N1  UNL     1      21.309   0.144  53.645  1.00  0.00    -0.222 NA
HETATM    8  C8  UNL     1      21.490  -0.873  54.615  1.00  0.00     0.235 C 
HETATM    9  N2  UNL     1      22.679  -1.285  54.825  1.00  0.00    -0.246 NA
HETATM   10  O2  UNL     1      22.078   1.517  52.049  1.00  0.00    -0.312 OA
HETATM   11  C9  UNL     1      21.004   2.437  52.025  1.00  0.00     0.346 C 
HETATM   12  O3  UNL     1      20.999   3.185  50.926  1.00  0.00    -0.360 OA
HETATM   13  C10 UNL     1      21.948   4.047  50.537  1.00  0.00     0.234 C 
HETATM   14  C11 UNL     1      23.337   3.634  50.464  1.00  0.00     0.069 C 
HETATM   15  C13 UNL     1      24.560   3.311  50.211  1.00  0.00     0.036 C 
HETATM   16  C14 UNL     1      25.847   2.839  50.586  1.00  0.00     0.022 C 
HETATM   17  C15 UNL     1      26.610   2.418  51.520  1.00  0.00     0.116 C 
HETATM   18  N3  UNL     1      27.602   1.964  52.254  1.00  0.00    -0.275 NA
HETATM   19  C16 UNL     1      27.767   1.175  53.218  1.00  0.00     0.122 C 
ENDROOT
BRANCH   1  20
HETATM   20  O1  UNL     1      28.663   0.062  54.793  1.00  0.00    -0.384 OA
HETATM   21  C1  UNL     1      29.561  -0.607  53.890  1.00  0.00     0.202 C 
ENDBRANCH   1  20
BRANCH  14  22
HETATM   22  O4  UNL     1      23.550   3.322  51.790  1.00  0.00    -0.358 OA
HETATM   23  C12 UNL     1      23.688   4.346  52.774  1.00  0.00     0.209 C 
ENDBRANCH  14  22
TORSDOF 2
ENDMDL
MODEL 2
REMARK VINA RESULT:      -7.6      2.307      5.289
REMARK  2 active torsions:
REMARK  status: ('A' for Active; 'I' for Inactive)
REMARK    1  A    between atoms: O1_2  and  C2_3 
REMARK    2  A    between atoms: C11_16  and  O4_17 
ROOT
HETATM    1  C2  UNL     1      20.915   0.319  53.398  1.00  0.00     0.083 C 
HETATM    2  C3  UNL     1      22.251   0.446  53.161  1.00  0.00     0.140 C 
HETATM    3  C4  UNL     1      23.251  -0.638  53.367  1.00  0.00     0.010 C 
HETATM    4  C5  UNL     1      24.421  -0.129  53.024  1.00  0.00     0.040 C 
HETATM    5  C6  UNL     1      24.387   1.288  52.569  1.00  0.00     0.145 C 
HETATM    6  C7  UNL     1      25.643   1.667  51.881  1.00  0.00     0.149 C 
HETATM    7  N1  UNL     1      26.693   0.944  51.740  1.00  0.00    -0.222 NA
HETATM    8  C8  UNL     1      26.729  -0.331  52.357  1.00  0.00     0.235 C 
HETATM    9  N2  UNL     1      25.707  -0.693  53.028  1.00  0.00    -0.246 NA
HETATM   10  O2  UNL     1      25.714   2.918  51.333  1.00  0.00    -0.312 OA
HETATM   11  C9  UNL     1      26.455   3.290  50.186  1.00  0.00     0.346 C 
HETATM   12  O3  UNL     1      26.347   4.585  49.907  1.00  0.00    -0.360 OA
HETATM   13  C10 UNL     1      25.228   5.247  49.588  1.00  0.00     0.234 C 
HETATM   14  C11 UNL     1      24.045   5.147  50.423  1.00  0.00     0.069 C 
HETATM   15  C13 UNL     1      23.011   5.248  51.188  1.00  0.00     0.036 C 
HETATM   16  C14 UNL     1      21.896   4.710  51.886  1.00  0.00     0.022 C 
HETATM   17  C15 UNL     1      21.204   3.676  52.176  1.00  0.00     0.116 C 
HETATM   18  N3  UNL     1      20.326   2.814  52.638  1.00  0.00    -0.275 NA
HETATM   19  C16 UNL     1      20.309   1.627  53.052  1.00  0.00     0.122 C 
ENDROOT
BRANCH   1  20
HETATM   20  O1  UNL     1      19.633  -0.256  53.771  1.00  0.00    -0.384 OA
HETATM   21  C1  UNL     1      18.764  -0.470  52.646  1.00  0.00     0.202 C 
ENDBRANCH   1  20
BRANCH  14  22
HETATM   22  O4  UNL     1      23.799   3.794  50.304  1.00  0.00    -0.358 OA
HETATM   23  C12 UNL     1      23.215   3.254  49.120  1.00  0.00     0.209 C 
ENDBRANCH  14  22
TORSDOF 2
ENDMDL
MODEL 3
REMARK VINA RESULT:      -7.6      2.300      4.836
REMARK  2 active torsions:
REMARK  status: ('A' for Active; 'I' for Inactive)
REMARK    1  A    between atoms: O1_2  and  C2_3 
REMARK    2  A    between atoms: C11_16  and  O4_17 
ROOT
HETATM    1  C2  UNL     1      25.824   3.693  49.967  1.00  0.00     0.083 C 
HETATM    2  C3  UNL     1      25.827   2.708  50.909  1.00  0.00     0.140 C 
HETATM    3  C4  UNL     1      26.959   2.431  51.835  1.00  0.00     0.010 C 
HETATM    4  C5  UNL     1      26.576   1.415  52.590  1.00  0.00     0.040 C 
HETATM    5  C6  UNL     1      25.216   0.886  52.298  1.00  0.00     0.145 C 
HETATM    6  C7  UNL     1      24.731   0.009  53.389  1.00  0.00     0.149 C 
HETATM    7  N1  UNL     1      25.381  -0.356  54.432  1.00  0.00    -0.222 NA
HETATM    8  C8  UNL     1      26.737   0.034  54.559  1.00  0.00     0.235 C 
HETATM    9  N2  UNL     1      27.243   0.731  53.620  1.00  0.00    -0.246 NA
HETATM   10  O2  UNL     1      23.455  -0.477  53.292  1.00  0.00    -0.312 OA
HETATM   11  C9  UNL     1      22.589  -0.778  54.370  1.00  0.00     0.346 C 
HETATM   12  O3  UNL     1      21.418  -1.258  53.964  1.00  0.00    -0.360 OA
HETATM   13  C10 UNL     1      20.510  -0.626  53.209  1.00  0.00     0.234 C 
HETATM   14  C11 UNL     1      20.892  -0.008  51.953  1.00  0.00     0.069 C 
HETATM   15  C13 UNL     1      21.107   0.421  50.755  1.00  0.00     0.036 C 
HETATM   16  C14 UNL     1      21.745   1.269  49.811  1.00  0.00     0.022 C 
HETATM   17  C15 UNL     1      22.579   2.216  49.603  1.00  0.00     0.116 C 
HETATM   18  N3  UNL     1      23.356   3.145  49.095  1.00  0.00    -0.275 NA
HETATM   19  C16 UNL     1      24.507   3.611  49.290  1.00  0.00     0.122 C 
ENDROOT
BRANCH   1  20
HETATM   20  O1  UNL     1      26.254   4.815  49.150  1.00  0.00    -0.384 OA
HETATM   21  C1  UNL     1      27.618   4.699  48.709  1.00  0.00     0.202 C 
ENDBRANCH   1  20
BRANCH  14  22
HETATM   22  O4  UNL     1      21.790   0.927  52.427  1.00  0.00    -0.358 OA
HETATM   23  C12 UNL     1      21.345   2.185  52.932  1.00  0.00     0.209 C 
ENDBRANCH  14  22
TORSDOF 2
ENDMDL
MODEL 4
REMARK VINA RESULT:      -7.4      1.350      1.673
REMARK  2 active torsions:
REMARK  status: ('A' for Active; 'I' for Inactive)
REMARK    1  A    between atoms: O1_2  and  C2_3 
REMARK    2  A    between atoms: C11_16  and  O4_17 
ROOT
HETATM    1  C2  UNL     1      26.483   0.544  52.816  1.00  0.00     0.083 C 
HETATM    2  C3  UNL     1      25.126   0.573  52.688  1.00  0.00     0.140 C 
HETATM    3  C4  UNL     1      24.189  -0.294  53.453  1.00  0.00     0.010 C 
HETATM    4  C5  UNL     1      22.973   0.036  53.055  1.00  0.00     0.040 C 
HETATM    5  C6  UNL     1      22.914   1.106  52.022  1.00  0.00     0.145 C 
HETATM    6  C7  UNL     1      21.545   1.657  51.889  1.00  0.00     0.149 C 
HETATM    7  N1  UNL     1      20.489   1.251  52.493  1.00  0.00    -0.222 NA
HETATM    8  C8  UNL     1      20.578   0.109  53.326  1.00  0.00     0.235 C 
HETATM    9  N2  UNL     1      21.714  -0.462  53.429  1.00  0.00    -0.246 NA
HETATM   10  O2  UNL     1      21.365   2.711  51.035  1.00  0.00    -0.312 OA
HETATM   11  C9  UNL     1      20.409   3.745  51.171  1.00  0.00     0.346 C 
HETATM   12  O3  UNL     1      20.458   4.619  50.170  1.00  0.00    -0.360 OA
HETATM   13  C10 UNL     1      21.490   5.405  49.840  1.00  0.00     0.234 C 
HETATM   14  C11 UNL     1      22.816   4.846  49.652  1.00  0.00     0.069 C 
HETATM   15  C13 UNL     1      23.982   4.416  49.304  1.00  0.00     0.036 C 
HETATM   16  C14 UNL     1      25.214   3.756  49.558  1.00  0.00     0.022 C 
HETATM   17  C15 UNL     1      25.952   3.137  50.399  1.00  0.00     0.116 C 
HETATM   18  N3  UNL     1      26.905   2.485  51.026  1.00  0.00    -0.275 NA
HETATM   19  C16 UNL     1      27.006   1.569  51.881  1.00  0.00     0.122 C 
ENDROOT
BRANCH   1  20
HETATM   20  O1  UNL     1      27.814   0.176  53.268  1.00  0.00    -0.384 OA
HETATM   21  C1  UNL     1      27.940   0.177  54.701  1.00  0.00     0.202 C 
ENDBRANCH   1  20
BRANCH  14  22
HETATM   22  O4  UNL     1      23.035   4.350  50.921  1.00  0.00    -0.358 OA
HETATM   23  C12 UNL     1      23.413   5.214  51.992  1.00  0.00     0.209 C 
ENDBRANCH  14  22
TORSDOF 2
ENDMDL
MODEL 5
REMARK VINA RESULT:      -7.3      1.974      4.633
REMARK  2 active torsions:
REMARK  status: ('A' for Active; 'I' for Inactive)
REMARK    1  A    between atoms: O1_2  and  C2_3 
REMARK    2  A    between atoms: C11_16  and  O4_17 
ROOT
HETATM    1  C2  UNL     1      25.857  -0.285  52.939  1.00  0.00     0.083 C 
HETATM    2  C3  UNL     1      25.726   0.859  52.210  1.00  0.00     0.140 C 
HETATM    3  C4  UNL     1      26.847   1.548  51.513  1.00  0.00     0.010 C 
HETATM    4  C5  UNL     1      26.318   2.605  50.921  1.00  0.00     0.040 C 
HETATM    5  C6  UNL     1      24.854   2.777  51.123  1.00  0.00     0.145 C 
HETATM    6  C7  UNL     1      24.286   3.753  50.164  1.00  0.00     0.149 C 
HETATM    7  N1  UNL     1      24.930   4.456  49.305  1.00  0.00    -0.222 NA
HETATM    8  C8  UNL     1      26.345   4.380  49.290  1.00  0.00     0.235 C 
HETATM    9  N2  UNL     1      26.906   3.612  50.139  1.00  0.00    -0.246 NA
HETATM   10  O2  UNL     1      22.930   3.943  50.179  1.00  0.00    -0.312 OA
HETATM   11  C9  UNL     1      22.120   4.290  49.072  1.00  0.00     0.346 C 
HETATM   12  O3  UNL     1      20.840   4.428  49.401  1.00  0.00    -0.360 OA
HETATM   13  C10 UNL     1      20.031   3.482  49.894  1.00  0.00     0.234 C 
HETATM   14  C11 UNL     1      20.426   2.698  51.049  1.00  0.00     0.069 C 
HETATM   15  C13 UNL     1      20.622   2.073  52.161  1.00  0.00     0.036 C 
HETATM   16  C14 UNL     1      21.345   1.187  53.004  1.00  0.00     0.022 C 
HETATM   17  C15 UNL     1      22.346   0.404  53.139  1.00  0.00     0.116 C 
HETATM   18  N3  UNL     1      23.261  -0.439  53.560  1.00  0.00    -0.275 NA
HETATM   19  C16 UNL     1      24.500  -0.613  53.437  1.00  0.00     0.122 C 
ENDROOT
BRANCH   1  20
HETATM   20  O1  UNL     1      26.450  -1.447  53.578  1.00  0.00    -0.384 OA
HETATM   21  C1  UNL     1      27.218  -2.257  52.671  1.00  0.00     0.202 C 
ENDBRANCH   1  20
BRANCH  14  22
HETATM   22  O4  UNL     1      21.549   2.084  50.532  1.00  0.00    -0.358 OA
HETATM   23  C12 UNL     1      21.436   0.980  49.635  1.00  0.00     0.209 C 
ENDBRANCH  14  22
TORSDOF 2
ENDMDL
MODEL 6
REMARK VINA RESULT:      -7.2      2.035      5.446
REMARK  2 active torsions:
REMARK  status: ('A' for Active; 'I' for Inactive)
REMARK    1  A    between atoms: O1_2  and  C2_3 
REMARK    2  A    between atoms: C11_16  and  O4_17 
ROOT
HETATM    1  C2  UNL     1      22.390   2.183  49.309  1.00  0.00     0.083 C 
HETATM    2  C3  UNL     1      22.331   1.549  50.515  1.00  0.00     0.140 C 
HETATM    3  C4  UNL     1      21.158   0.774  51.004  1.00  0.00     0.010 C 
HETATM    4  C5  UNL     1      21.491   0.316  52.198  1.00  0.00     0.040 C 
HETATM    5  C6  UNL     1      22.853   0.695  52.664  1.00  0.00     0.145 C 
HETATM    6  C7  UNL     1      23.278  -0.128  53.820  1.00  0.00     0.149 C 
HETATM    7  N1  UNL     1      22.580  -1.008  54.439  1.00  0.00    -0.222 NA
HETATM    8  C8  UNL     1      21.227  -1.191  54.061  1.00  0.00     0.235 C 
HETATM    9  N2  UNL     1      20.772  -0.463  53.119  1.00  0.00    -0.246 NA
HETATM   10  O2  UNL     1      24.548   0.054  54.296  1.00  0.00    -0.312 OA
HETATM   11  C9  UNL     1      25.364  -0.928  54.906  1.00  0.00     0.346 C 
HETATM   12  O3  UNL     1      26.543  -0.446  55.288  1.00  0.00    -0.360 OA
HETATM   13  C10 UNL     1      27.491   0.075  54.499  1.00  0.00     0.234 C 
HETATM   14  C11 UNL     1      27.171   1.124  53.550  1.00  0.00     0.069 C 
HETATM   15  C13 UNL     1      27.013   2.164  52.802  1.00  0.00     0.036 C 
HETATM   16  C14 UNL     1      26.428   2.860  51.710  1.00  0.00     0.022 C 
HETATM   17  C15 UNL     1      25.620   2.828  50.720  1.00  0.00     0.116 C 
HETATM   18  N3  UNL     1      24.881   3.087  49.666  1.00  0.00    -0.275 NA
HETATM   19  C16 UNL     1      23.731   2.811  49.240  1.00  0.00     0.122 C 
ENDROOT
BRANCH   1  20
HETATM   20  O1  UNL     1      22.012   2.674  47.995  1.00  0.00    -0.384 OA
HETATM   21  C1  UNL     1      21.742   4.086  47.979  1.00  0.00     0.202 C 
ENDBRANCH   1  20
BRANCH  14  22
HETATM   22  O4  UNL     1      26.271   0.443  52.756  1.00  0.00    -0.358 OA
HETATM   23  C12 UNL     1      26.708  -0.573  51.854  1.00  0.00     0.209 C 
ENDBRANCH  14  22
TORSDOF 2
ENDMDL
MODEL 7
REMARK VINA RESULT:      -7.0      2.039      2.995
REMARK  2 active torsions:
REMARK  status: ('A' for Active; 'I' for Inactive)
REMARK    1  A    between atoms: O1_2  and  C2_3 
REMARK    2  A    between atoms: C11_16  and  O4_17 
ROOT
HETATM    1  C2  UNL     1      24.934  -0.002  53.668  1.00  0.00     0.083 C 
HETATM    2  C3  UNL     1      23.926   0.335  52.815  1.00  0.00     0.140 C 
HETATM    3  C4  UNL     1      22.538  -0.199  52.897  1.00  0.00     0.010 C 
HETATM    4  C5  UNL     1      21.867   0.367  51.909  1.00  0.00     0.040 C 
HETATM    5  C6  UNL     1      22.656   1.304  51.063  1.00  0.00     0.145 C 
HETATM    6  C7  UNL     1      21.774   2.147  50.222  1.00  0.00     0.149 C 
HETATM    7  N1  UNL     1      20.497   2.071  50.125  1.00  0.00    -0.222 NA
HETATM    8  C8  UNL     1      19.824   1.035  50.818  1.00  0.00     0.235 C 
HETATM    9  N2  UNL     1      20.530   0.225  51.505  1.00  0.00    -0.246 NA
HETATM   10  O2  UNL     1      22.364   3.117  49.458  1.00  0.00    -0.312 OA
HETATM   11  C9  UNL     1      21.792   4.358  49.089  1.00  0.00     0.346 C 
HETATM   12  O3  UNL     1      22.598   5.083  48.321  1.00  0.00    -0.360 OA
HETATM   13  C10 UNL     1      23.805   5.561  48.650  1.00  0.00     0.234 C 
HETATM   14  C11 UNL     1      24.824   4.686  49.199  1.00  0.00     0.069 C 
HETATM   15  C13 UNL     1      25.835   3.957  49.534  1.00  0.00     0.036 C 
HETATM   16  C14 UNL     1      26.512   3.054  50.396  1.00  0.00     0.022 C 
HETATM   17  C15 UNL     1      26.487   2.370  51.476  1.00  0.00     0.116 C 
HETATM   18  N3  UNL     1      26.742   1.581  52.495  1.00  0.00    -0.275 NA
HETATM   19  C16 UNL     1      26.123   0.764  53.222  1.00  0.00     0.122 C 
ENDROOT
BRANCH   1  20
HETATM   20  O1  UNL     1      25.658  -0.626  54.763  1.00  0.00    -0.384 OA
HETATM   21  C1  UNL     1      24.790  -1.192  55.760  1.00  0.00     0.202 C 
ENDBRANCH   1  20
BRANCH  14  22
HETATM   22  O4  UNL     1      24.182   4.291  50.355  1.00  0.00    -0.358 OA
HETATM   23  C12 UNL     1      24.044   5.182  51.461  1.00  0.00     0.209 C 
ENDBRANCH  14  22
TORSDOF 2
ENDMDL
MODEL 8
REMARK VINA RESULT:      -6.9      2.047      2.782
REMARK  2 active torsions:
REMARK  status: ('A' for Active; 'I' for Inactive)
REMARK    1  A    between atoms: O1_2  and  C2_3 
REMARK    2  A    between atoms: C11_16  and  O4_17 
ROOT
HETATM    1  C2  UNL     1      26.260   2.258  51.857  1.00  0.00     0.083 C 
HETATM    2  C3  UNL     1      24.964   1.906  52.090  1.00  0.00     0.140 C 
HETATM    3  C4  UNL     1      24.523   0.976  53.166  1.00  0.00     0.010 C 
HETATM    4  C5  UNL     1      23.208   0.898  53.068  1.00  0.00     0.040 C 
HETATM    5  C6  UNL     1      22.605   1.709  51.976  1.00  0.00     0.145 C 
HETATM    6  C7  UNL     1      21.139   1.847  52.149  1.00  0.00     0.149 C 
HETATM    7  N1  UNL     1      20.414   1.295  53.051  1.00  0.00    -0.222 NA
HETATM    8  C8  UNL     1      21.023   0.387  53.952  1.00  0.00     0.235 C 
HETATM    9  N2  UNL     1      22.271   0.164  53.814  1.00  0.00    -0.246 NA
HETATM   10  O2  UNL     1      20.468   2.644  51.262  1.00  0.00    -0.312 OA
HETATM   11  C9  UNL     1      19.301   3.398  51.530  1.00  0.00     0.346 C 
HETATM   12  O3  UNL     1      18.863   4.057  50.462  1.00  0.00    -0.360 OA
HETATM   13  C10 UNL     1      19.513   5.013  49.787  1.00  0.00     0.234 C 
HETATM   14  C11 UNL     1      20.869   4.797  49.318  1.00  0.00     0.069 C 
HETATM   15  C13 UNL     1      22.003   4.634  48.725  1.00  0.00     0.036 C 
HETATM   16  C14 UNL     1      23.401   4.377  48.716  1.00  0.00     0.022 C 
HETATM   17  C15 UNL     1      24.457   4.137  49.395  1.00  0.00     0.116 C 
HETATM   18  N3  UNL     1      25.675   3.884  49.816  1.00  0.00    -0.275 NA
HETATM   19  C16 UNL     1      26.232   3.197  50.710  1.00  0.00     0.122 C 
ENDROOT
BRANCH   1  20
HETATM   20  O1  UNL     1      27.706   2.340  51.981  1.00  0.00    -0.384 OA
HETATM   21  C1  UNL     1      28.159   2.257  53.343  1.00  0.00     0.202 C 
ENDBRANCH   1  20
BRANCH  14  22
HETATM   22  O4  UNL     1      21.501   4.616  50.531  1.00  0.00    -0.358 OA
HETATM   23  C12 UNL     1      21.806   5.725  51.375  1.00  0.00     0.209 C 
ENDBRANCH  14  22
TORSDOF 2
ENDMDL
MODEL 9
REMARK VINA RESULT:      -6.9      3.486      5.930
REMARK  2 active torsions:
REMARK  status: ('A' for Active; 'I' for Inactive)
REMARK    1  A    between atoms: O1_2  and  C2_3 
REMARK    2  A    between atoms: C11_16  and  O4_17 
ROOT
HETATM    1  C2  UNL     1      26.660   4.820  49.154  1.00  0.00     0.083 C 
HETATM    2  C3  UNL     1      25.454   5.300  49.571  1.00  0.00     0.140 C 
HETATM    3  C4  UNL     1      24.863   6.593  49.129  1.00  0.00     0.010 C 
HETATM    4  C5  UNL     1      23.698   6.695  49.745  1.00  0.00     0.040 C 
HETATM    5  C6  UNL     1      23.355   5.558  50.642  1.00  0.00     0.145 C 
HETATM    6  C7  UNL     1      21.919   5.571  51.009  1.00  0.00     0.149 C 
HETATM    7  N1  UNL     1      21.052   6.464  50.699  1.00  0.00    -0.222 NA
HETATM    8  C8  UNL     1      21.485   7.617  49.997  1.00  0.00     0.235 C 
HETATM    9  N2  UNL     1      22.724   7.706  49.712  1.00  0.00    -0.246 NA
HETATM   10  O2  UNL     1      21.446   4.530  51.760  1.00  0.00    -0.312 OA
HETATM   11  C9  UNL     1      20.136   3.997  51.724  1.00  0.00     0.346 C 
HETATM   12  O3  UNL     1      19.966   3.001  52.588  1.00  0.00    -0.360 OA
HETATM   13  C10 UNL     1      20.610   1.827  52.596  1.00  0.00     0.234 C 
HETATM   14  C11 UNL     1      22.059   1.777  52.550  1.00  0.00     0.069 C 
HETATM   15  C13 UNL     1      23.336   1.642  52.679  1.00  0.00     0.036 C 
HETATM   16  C14 UNL     1      24.676   1.804  52.236  1.00  0.00     0.022 C 
HETATM   17  C15 UNL     1      25.467   2.233  51.328  1.00  0.00     0.116 C 
HETATM   18  N3  UNL     1      26.497   2.567  50.584  1.00  0.00    -0.275 NA
HETATM   19  C16 UNL     1      26.840   3.515  49.833  1.00  0.00     0.122 C 
ENDROOT
BRANCH   1  20
HETATM   20  O1  UNL     1      27.935   4.718  48.465  1.00  0.00    -0.384 OA
HETATM   21  C1  UNL     1      28.557   5.996  48.243  1.00  0.00     0.202 C 
ENDBRANCH   1  20
BRANCH  14  22
HETATM   22  O4  UNL     1      22.268   2.379  51.326  1.00  0.00    -0.358 OA
HETATM   23  C12 UNL     1      22.058   1.663  50.110  1.00  0.00     0.209 C 
ENDBRANCH  14  22
TORSDOF 2
ENDMDL
