MODEL 1
REMARK VINA RESULT:      -7.3      0.000      0.000
REMARK  6 active torsions:
REMARK  status: ('A' for Active; 'I' for Inactive)
REMARK    1  A    between atoms: C3_3  and  C4_4 
REMARK    2  A    between atoms: C4_4  and  C5_5 
REMARK    3  A    between atoms: C9_10  and  C10_11 
REMARK    4  A    between atoms: C12_14  and  C13_15 
REMARK    5  A    between atoms: C13_15  and  N1_16 
REMARK    6  A    between atoms: N2_18  and  C15_19 
ROOT
HETATM    1  C5  UNL     1      21.448   0.511  53.393  1.00  0.00    -0.023 C 
HETATM    2  C6  UNL     1      21.331  -0.775  54.135  1.00  0.00     0.125 C 
HETATM    3  C7  UNL     1      22.739  -0.980  54.550  1.00  0.00     0.167 C 
HETATM    4  O1  UNL     1      23.095  -1.706  55.492  1.00  0.00    -0.292 OA
HETATM    5  C8  UNL     1      23.563  -0.191  53.659  1.00  0.00     0.053 A 
HETATM    6  C9  UNL     1      24.859  -0.026  53.266  1.00  0.00     0.050 A 
HETATM    7  C12 UNL     1      24.848   0.971  52.336  1.00  0.00     0.044 A 
HETATM    8  N2  UNL     1      23.589   1.456  52.115  1.00  0.00    -0.343 N 
HETATM    9  C18 UNL     1      22.805   0.714  52.952  1.00  0.00     0.057 A 
ENDROOT
BRANCH   1  10
HETATM   10  C4  UNL     1      20.439   1.325  53.184  1.00  0.00     0.009 C 
BRANCH  10  11
HETATM   11  C3  UNL     1      19.507   1.129  52.061  1.00  0.00    -0.004 C 
HETATM   12  C2  UNL     1      18.718   0.077  51.834  1.00  0.00    -0.031 C 
HETATM   13  C1  UNL     1      17.813  -0.027  50.674  1.00  0.00     0.036 C 
ENDBRANCH  10  11
ENDBRANCH   1  10
BRANCH   8  14
HETATM   14  C15 UNL     1      23.214   2.509  51.199  1.00  0.00     0.082 C 
HETATM   15  C16 UNL     1      22.338   2.122  50.074  1.00  0.00     0.032 C 
HETATM   16  C17 UNL     1      22.684   3.746  51.931  1.00  0.00     0.032 C 
ENDBRANCH   8  14
BRANCH   6  17
HETATM   17  C10 UNL     1      26.002  -0.790  53.769  1.00  0.00     0.158 C 
HETATM   18  C11 UNL     1      26.915  -1.723  53.062  1.00  0.00     0.097 C 
HETATM   19  O2  UNL     1      26.185  -0.576  55.011  1.00  0.00    -0.293 OA
ENDBRANCH   6  17
BRANCH   7  20
HETATM   20  C13 UNL     1      26.122   1.422  51.685  1.00  0.00     0.172 C 
BRANCH  20  21
HETATM   21  N1  UNL     1      26.633   2.491  52.489  1.00  0.00    -0.420 N 
HETATM   22  C14 UNL     1      27.907   2.241  53.100  1.00  0.00     0.140 C 
HETATM   23  H14 UNL     1      26.511   3.424  52.087  1.00  0.00     0.153 HD
ENDBRANCH  20  21
ENDBRANCH   7  20
TORSDOF 6
ENDMDL
MODEL 2
REMARK VINA RESULT:      -7.2      1.081      1.252
REMARK  6 active torsions:
REMARK  status: ('A' for Active; 'I' for Inactive)
REMARK    1  A    between atoms: C3_3  and  C4_4 
REMARK    2  A    between atoms: C4_4  and  C5_5 
REMARK    3  A    between atoms: C9_10  and  C10_11 
REMARK    4  A    between atoms: C12_14  and  C13_15 
REMARK    5  A    between atoms: C13_15  and  N1_16 
REMARK    6  A    between atoms: N2_18  and  C15_19 
ROOT
HETATM    1  C5  UNL     1      21.224  -0.120  53.565  1.00  0.00    -0.023 C 
HETATM    2  C6  UNL     1      21.367  -1.272  54.497  1.00  0.00     0.125 C 
HETATM    3  C7  UNL     1      22.787  -1.129  54.894  1.00  0.00     0.167 C 
HETATM    4  O1  UNL     1      23.281  -1.615  55.924  1.00  0.00    -0.292 OA
HETATM    5  C8  UNL     1      23.436  -0.341  53.868  1.00  0.00     0.053 A 
HETATM    6  C9  UNL     1      24.673   0.013  53.415  1.00  0.00     0.050 A 
HETATM    7  C12 UNL     1      24.464   0.831  52.344  1.00  0.00     0.044 A 
HETATM    8  N2  UNL     1      23.133   1.018  52.091  1.00  0.00    -0.343 N 
HETATM    9  C18 UNL     1      22.514   0.276  53.056  1.00  0.00     0.057 A 
ENDROOT
BRANCH   1  10
HETATM   10  C4  UNL     1      20.073   0.437  53.266  1.00  0.00     0.009 C 
BRANCH  10  11
HETATM   11  C3  UNL     1      19.171  -0.144  52.257  1.00  0.00    -0.004 C 
HETATM   12  C2  UNL     1      18.387   0.508  51.396  1.00  0.00    -0.031 C 
HETATM   13  C1  UNL     1      17.514  -0.168  50.419  1.00  0.00     0.036 C 
ENDBRANCH  10  11
ENDBRANCH   1  10
BRANCH   8  14
HETATM   14  C15 UNL     1      22.555   1.821  51.038  1.00  0.00     0.082 C 
HETATM   15  C16 UNL     1      21.771   1.100  50.015  1.00  0.00     0.032 C 
HETATM   16  C17 UNL     1      21.793   3.030  51.589  1.00  0.00     0.032 C 
ENDBRANCH   8  14
BRANCH   6  17
HETATM   17  C10 UNL     1      25.946  -0.423  53.992  1.00  0.00     0.158 C 
HETATM   18  C11 UNL     1      26.815   0.234  55.001  1.00  0.00     0.097 C 
HETATM   19  O2  UNL     1      26.306  -1.547  53.510  1.00  0.00    -0.293 OA
ENDBRANCH   6  17
BRANCH   7  20
HETATM   20  C13 UNL     1      25.622   1.417  51.592  1.00  0.00     0.172 C 
BRANCH  20  21
HETATM   21  N1  UNL     1      25.649   2.814  51.911  1.00  0.00    -0.420 N 
HETATM   22  C14 UNL     1      25.674   3.698  50.782  1.00  0.00     0.140 C 
HETATM   23  H14 UNL     1      25.027   3.089  52.675  1.00  0.00     0.153 HD
ENDBRANCH  20  21
ENDBRANCH   7  20
TORSDOF 6
ENDMDL
MODEL 3
REMARK VINA RESULT:      -7.0      1.777      5.118
REMARK  6 active torsions:
REMARK  status: ('A' for Active; 'I' for Inactive)
REMARK    1  A    between atoms: C3_3  and  C4_4 
REMARK    2  A    between atoms: C4_4  and  C5_5 
REMARK    3  A    between atoms: C9_10  and  C10_11 
REMARK    4  A    between atoms: C12_14  and  C13_15 
REMARK    5  A    between atoms: C13_15  and  N1_16 
REMARK    6  A    between atoms: N2_18  and  C15_19 
ROOT
HETATM    1  C5  UNL     1      25.738   1.152  52.190  1.00  0.00    -0.023 C 
HETATM    2  C6  UNL     1      26.241   0.702  53.517  1.00  0.00     0.125 C 
HETATM    3  C7  UNL     1      25.099  -0.123  53.977  1.00  0.00     0.167 C 
HETATM    4  O1  UNL     1      25.175  -1.005  54.848  1.00  0.00    -0.292 OA
HETATM    5  C8  UNL     1      23.937   0.307  53.227  1.00  0.00     0.053 A 
HETATM    6  C9  UNL     1      22.576   0.212  53.218  1.00  0.00     0.050 A 
HETATM    7  C12 UNL     1      22.155   0.925  52.134  1.00  0.00     0.044 A 
HETATM    8  N2  UNL     1      23.199   1.476  51.444  1.00  0.00    -0.343 N 
HETATM    9  C18 UNL     1      24.299   1.076  52.147  1.00  0.00     0.057 A 
ENDROOT
BRANCH   1  10
HETATM   10  C4  UNL     1      26.519   1.558  51.215  1.00  0.00     0.009 C 
BRANCH  10  11
HETATM   11  C3  UNL     1      26.531   2.960  50.766  1.00  0.00    -0.004 C 
HETATM   12  C2  UNL     1      26.571   3.412  49.511  1.00  0.00    -0.031 C 
HETATM   13  C1  UNL     1      26.582   4.844  49.162  1.00  0.00     0.036 C 
ENDBRANCH  10  11
ENDBRANCH   1  10
BRANCH   8  14
HETATM   14  C15 UNL     1      23.116   2.289  50.252  1.00  0.00     0.082 C 
HETATM   15  C16 UNL     1      22.230   1.796  49.178  1.00  0.00     0.032 C 
HETATM   16  C17 UNL     1      22.846   3.761  50.578  1.00  0.00     0.032 C 
ENDBRANCH   8  14
BRANCH   6  17
HETATM   17  C10 UNL     1      21.769  -0.519  54.196  1.00  0.00     0.158 C 
HETATM   18  C11 UNL     1      21.606  -1.981  54.402  1.00  0.00     0.097 C 
HETATM   19  O2  UNL     1      21.135   0.283  54.957  1.00  0.00    -0.293 OA
ENDBRANCH   6  17
BRANCH   7  20
HETATM   20  C13 UNL     1      20.695   1.034  51.812  1.00  0.00     0.172 C 
BRANCH  20  21
HETATM   21  N1  UNL     1      20.201   2.164  52.540  1.00  0.00    -0.420 N 
HETATM   22  C14 UNL     1      19.384   3.068  51.785  1.00  0.00     0.140 C 
HETATM   23  H14 UNL     1      19.870   1.951  53.485  1.00  0.00     0.153 HD
ENDBRANCH  20  21
ENDBRANCH   7  20
TORSDOF 6
ENDMDL
MODEL 4
REMARK VINA RESULT:      -6.4      1.718      5.482
REMARK  6 active torsions:
REMARK  status: ('A' for Active; 'I' for Inactive)
REMARK    1  A    between atoms: C3_3  and  C4_4 
REMARK    2  A    between atoms: C4_4  and  C5_5 
REMARK    3  A    between atoms: C9_10  and  C10_11 
REMARK    4  A    between atoms: C12_14  and  C13_15 
REMARK    5  A    between atoms: C13_15  and  N1_16 
REMARK    6  A    between atoms: N2_18  and  C15_19 
ROOT
HETATM    1  C5  UNL     1      25.233   0.048  53.057  1.00  0.00    -0.023 C 
HETATM    2  C6  UNL     1      25.152  -0.598  54.396  1.00  0.00     0.125 C 
HETATM    3  C7  UNL     1      23.700  -0.879  54.477  1.00  0.00     0.167 C 
HETATM    4  O1  UNL     1      23.190  -1.730  55.224  1.00  0.00    -0.292 OA
HETATM    5  C8  UNL     1      23.043   0.011  53.544  1.00  0.00     0.053 A 
HETATM    6  C9  UNL     1      21.810   0.493  53.215  1.00  0.00     0.050 A 
HETATM    7  C12 UNL     1      22.004   1.339  52.162  1.00  0.00     0.044 A 
HETATM    8  N2  UNL     1      23.320   1.418  51.802  1.00  0.00    -0.343 N 
HETATM    9  C18 UNL     1      23.947   0.581  52.679  1.00  0.00     0.057 A 
ENDROOT
BRANCH   1  10
HETATM   10  C4  UNL     1      26.333   0.111  52.343  1.00  0.00     0.009 C 
BRANCH  10  11
HETATM   11  C3  UNL     1      27.665   0.053  52.968  1.00  0.00    -0.004 C 
HETATM   12  C2  UNL     1      28.430  -1.025  53.153  1.00  0.00    -0.031 C 
HETATM   13  C1  UNL     1      29.758  -0.980  53.794  1.00  0.00     0.036 C 
ENDBRANCH  10  11
ENDBRANCH   1  10
BRANCH   8  14
HETATM   14  C15 UNL     1      23.880   2.216  50.734  1.00  0.00     0.082 C 
HETATM   15  C16 UNL     1      23.105   2.271  49.478  1.00  0.00     0.032 C 
HETATM   16  C17 UNL     1      24.284   3.614  51.212  1.00  0.00     0.032 C 
ENDBRANCH   8  14
BRANCH   6  17
HETATM   17  C10 UNL     1      20.555   0.146  53.885  1.00  0.00     0.158 C 
HETATM   18  C11 UNL     1      19.386  -0.624  53.389  1.00  0.00     0.097 C 
HETATM   19  O2  UNL     1      20.528   0.607  55.072  1.00  0.00    -0.293 OA
ENDBRANCH   6  17
BRANCH   7  20
HETATM   20  C13 UNL     1      20.845   2.054  51.534  1.00  0.00     0.172 C 
BRANCH  20  21
HETATM   21  N1  UNL     1      20.784   3.347  52.149  1.00  0.00    -0.420 N 
HETATM   22  C14 UNL     1      20.373   4.415  51.285  1.00  0.00     0.140 C 
HETATM   23  H14 UNL     1      20.375   3.354  53.087  1.00  0.00     0.153 HD
ENDBRANCH  20  21
ENDBRANCH   7  20
TORSDOF 6
ENDMDL
MODEL 5
REMARK VINA RESULT:      -6.3      2.158      4.527
REMARK  6 active torsions:
REMARK  status: ('A' for Active; 'I' for Inactive)
REMARK    1  A    between atoms: C3_3  and  C4_4 
REMARK    2  A    between atoms: C4_4  and  C5_5 
REMARK    3  A    between atoms: C9_10  and  C10_11 
REMARK    4  A    between atoms: C12_14  and  C13_15 
REMARK    5  A    between atoms: C13_15  and  N1_16 
REMARK    6  A    between atoms: N2_18  and  C15_19 
ROOT
HETATM    1  C5  UNL     1      23.719   3.357  50.520  1.00  0.00    -0.023 C 
HETATM    2  C6  UNL     1      25.074   3.929  50.757  1.00  0.00     0.125 C 
HETATM    3  C7  UNL     1      25.797   2.728  51.237  1.00  0.00     0.167 C 
HETATM    4  O1  UNL     1      27.032   2.595  51.214  1.00  0.00    -0.292 OA
HETATM    5  C8  UNL     1      24.799   1.794  51.714  1.00  0.00     0.053 A 
HETATM    6  C9  UNL     1      24.668   0.654  52.451  1.00  0.00     0.050 A 
HETATM    7  C12 UNL     1      23.336   0.358  52.456  1.00  0.00     0.044 A 
HETATM    8  N2  UNL     1      22.604   1.269  51.746  1.00  0.00    -0.343 N 
HETATM    9  C18 UNL     1      23.540   2.154  51.293  1.00  0.00     0.057 A 
ENDROOT
BRANCH   1  10
HETATM   10  C4  UNL     1      22.833   3.896  49.715  1.00  0.00     0.009 C 
BRANCH  10  11
HETATM   11  C3  UNL     1      22.688   3.454  48.317  1.00  0.00    -0.004 C 
HETATM   12  C2  UNL     1      22.105   4.111  47.313  1.00  0.00    -0.031 C 
HETATM   13  C1  UNL     1      22.008   3.580  45.941  1.00  0.00     0.036 C 
ENDBRANCH  10  11
ENDBRANCH   1  10
BRANCH   8  14
HETATM   14  C15 UNL     1      21.173   1.262  51.545  1.00  0.00     0.082 C 
HETATM   15  C16 UNL     1      20.436   2.452  52.016  1.00  0.00     0.032 C 
HETATM   16  C17 UNL     1      20.797   0.895  50.106  1.00  0.00     0.032 C 
ENDBRANCH   8  14
BRANCH   6  17
HETATM   17  C10 UNL     1      25.764  -0.074  53.092  1.00  0.00     0.158 C 
HETATM   18  C11 UNL     1      26.660  -1.128  52.552  1.00  0.00     0.097 C 
HETATM   19  O2  UNL     1      25.920   0.304  54.299  1.00  0.00    -0.293 OA
ENDBRANCH   6  17
BRANCH   7  20
HETATM   20  C13 UNL     1      22.825  -0.851  53.180  1.00  0.00     0.172 C 
BRANCH  20  21
HETATM   21  N1  UNL     1      22.694  -0.475  54.556  1.00  0.00    -0.420 N 
HETATM   22  C14 UNL     1      23.122  -1.463  55.504  1.00  0.00     0.140 C 
HETATM   23  H14 UNL     1      22.972   0.487  54.764  1.00  0.00     0.153 HD
ENDBRANCH  20  21
ENDBRANCH   7  20
TORSDOF 6
ENDMDL
MODEL 6
REMARK VINA RESULT:      -6.2      2.979      6.291
REMARK  6 active torsions:
REMARK  status: ('A' for Active; 'I' for Inactive)
REMARK    1  A    between atoms: C3_3  and  C4_4 
REMARK    2  A    between atoms: C4_4  and  C5_5 
REMARK    3  A    between atoms: C9_10  and  C10_11 
REMARK    4  A    between atoms: C12_14  and  C13_15 
REMARK    5  A    between atoms: C13_15  and  N1_16 
REMARK    6  A    between atoms: N2_18  and  C15_19 
ROOT
HETATM    1  C5  UNL     1      22.029   0.588  52.547  1.00  0.00    -0.023 C 
HETATM    2  C6  UNL     1      22.138   0.136  53.962  1.00  0.00     0.125 C 
HETATM    3  C7  UNL     1      20.988  -0.794  54.042  1.00  0.00     0.167 C 
HETATM    4  O1  UNL     1      20.870  -1.695  54.888  1.00  0.00    -0.292 OA
HETATM    5  C8  UNL     1      20.078  -0.436  52.973  1.00  0.00     0.053 A 
HETATM    6  C9  UNL     1      18.800  -0.642  52.544  1.00  0.00     0.050 A 
HETATM    7  C12 UNL     1      18.670   0.070  51.388  1.00  0.00     0.044 A 
HETATM    8  N2  UNL     1      19.822   0.728  51.057  1.00  0.00    -0.343 N 
HETATM    9  C18 UNL     1      20.685   0.396  52.062  1.00  0.00     0.057 A 
ENDROOT
BRANCH   1  10
HETATM   10  C4  UNL     1      23.031   1.089  51.863  1.00  0.00     0.009 C 
BRANCH  10  11
HETATM   11  C3  UNL     1      23.587   2.419  52.165  1.00  0.00    -0.004 C 
HETATM   12  C2  UNL     1      22.920   3.567  52.296  1.00  0.00    -0.031 C 
HETATM   13  C1  UNL     1      23.571   4.856  52.600  1.00  0.00     0.036 C 
ENDBRANCH  10  11
ENDBRANCH   1  10
BRANCH   8  14
HETATM   14  C15 UNL     1      20.037   1.571  49.903  1.00  0.00     0.082 C 
HETATM   15  C16 UNL     1      20.158   3.021  50.160  1.00  0.00     0.032 C 
HETATM   16  C17 UNL     1      21.176   1.055  49.018  1.00  0.00     0.032 C 
ENDBRANCH   8  14
BRANCH   6  17
HETATM   17  C10 UNL     1      17.799  -1.469  53.221  1.00  0.00     0.158 C 
HETATM   18  C11 UNL     1      17.820  -2.916  53.555  1.00  0.00     0.097 C 
HETATM   19  O2  UNL     1      16.780  -0.778  53.548  1.00  0.00    -0.293 OA
ENDBRANCH   6  17
BRANCH   7  20
HETATM   20  C13 UNL     1      17.375   0.070  50.632  1.00  0.00     0.172 C 
BRANCH  20  21
HETATM   21  N1  UNL     1      16.609   1.169  51.138  1.00  0.00    -0.420 N 
HETATM   22  C14 UNL     1      15.200   1.105  50.876  1.00  0.00     0.140 C 
HETATM   23  H14 UNL     1      16.870   1.474  52.080  1.00  0.00     0.153 HD
ENDBRANCH  20  21
ENDBRANCH   7  20
TORSDOF 6
ENDMDL
MODEL 7
REMARK VINA RESULT:      -6.2      4.666      7.521
REMARK  6 active torsions:
REMARK  status: ('A' for Active; 'I' for Inactive)
REMARK    1  A    between atoms: C3_3  and  C4_4 
REMARK    2  A    between atoms: C4_4  and  C5_5 
REMARK    3  A    between atoms: C9_10  and  C10_11 
REMARK    4  A    between atoms: C12_14  and  C13_15 
REMARK    5  A    between atoms: C13_15  and  N1_16 
REMARK    6  A    between atoms: N2_18  and  C15_19 
ROOT
HETATM    1  C5  UNL     1      25.651   3.204  50.464  1.00  0.00    -0.023 C 
HETATM    2  C6  UNL     1      26.629   2.992  49.361  1.00  0.00     0.125 C 
HETATM    3  C7  UNL     1      27.059   4.387  49.105  1.00  0.00     0.167 C 
HETATM    4  O1  UNL     1      28.120   4.703  48.543  1.00  0.00    -0.292 OA
HETATM    5  C8  UNL     1      26.023   5.253  49.627  1.00  0.00     0.053 A 
HETATM    6  C9  UNL     1      25.591   6.546  49.589  1.00  0.00     0.050 A 
HETATM    7  C12 UNL     1      24.486   6.599  50.386  1.00  0.00     0.044 A 
HETATM    8  N2  UNL     1      24.190   5.383  50.937  1.00  0.00    -0.343 N 
HETATM    9  C18 UNL     1      25.163   4.561  50.448  1.00  0.00     0.057 A 
ENDROOT
BRANCH   1  10
HETATM   10  C4  UNL     1      25.300   2.268  51.315  1.00  0.00     0.009 C 
BRANCH  10  11
HETATM   11  C3  UNL     1      26.300   1.462  52.035  1.00  0.00    -0.004 C 
HETATM   12  C2  UNL     1      26.413   0.133  52.052  1.00  0.00    -0.031 C 
HETATM   13  C1  UNL     1      27.455  -0.585  52.810  1.00  0.00     0.036 C 
ENDBRANCH  10  11
ENDBRANCH   1  10
BRANCH   8  14
HETATM   14  C15 UNL     1      23.091   5.079  51.826  1.00  0.00     0.082 C 
HETATM   15  C16 UNL     1      22.073   4.138  51.317  1.00  0.00     0.032 C 
HETATM   16  C17 UNL     1      23.576   4.688  53.226  1.00  0.00     0.032 C 
ENDBRANCH   8  14
BRANCH   6  17
HETATM   17  C10 UNL     1      26.219   7.629  48.830  1.00  0.00     0.158 C 
HETATM   18  C11 UNL     1      25.932   8.130  47.461  1.00  0.00     0.097 C 
HETATM   19  O2  UNL     1      27.146   8.184  49.505  1.00  0.00    -0.293 OA
ENDBRANCH   6  17
BRANCH   7  20
HETATM   20  C13 UNL     1      23.745   7.889  50.580  1.00  0.00     0.172 C 
BRANCH  20  21
HETATM   21  N1  UNL     1      22.700   7.908  49.600  1.00  0.00    -0.420 N 
HETATM   22  C14 UNL     1      21.367   7.896  50.128  1.00  0.00     0.140 C 
HETATM   23  H14 UNL     1      22.861   8.548  48.817  1.00  0.00     0.153 HD
ENDBRANCH  20  21
ENDBRANCH   7  20
TORSDOF 6
ENDMDL
MODEL 8
REMARK VINA RESULT:      -6.1      2.421      5.345
REMARK  6 active torsions:
REMARK  status: ('A' for Active; 'I' for Inactive)
REMARK    1  A    between atoms: C3_3  and  C4_4 
REMARK    2  A    between atoms: C4_4  and  C5_5 
REMARK    3  A    between atoms: C9_10  and  C10_11 
REMARK    4  A    between atoms: C12_14  and  C13_15 
REMARK    5  A    between atoms: C13_15  and  N1_16 
REMARK    6  A    between atoms: N2_18  and  C15_19 
ROOT
HETATM    1  C5  UNL     1      22.410  -0.212  53.982  1.00  0.00    -0.023 C 
HETATM    2  C6  UNL     1      21.168  -0.771  54.583  1.00  0.00     0.125 C 
HETATM    3  C7  UNL     1      20.170  -0.384  53.558  1.00  0.00     0.167 C 
HETATM    4  O1  UNL     1      19.064  -0.931  53.412  1.00  0.00    -0.292 OA
HETATM    5  C8  UNL     1      20.738   0.715  52.806  1.00  0.00     0.053 A 
HETATM    6  C9  UNL     1      20.395   1.695  51.921  1.00  0.00     0.050 A 
HETATM    7  C12 UNL     1      21.543   2.380  51.653  1.00  0.00     0.044 A 
HETATM    8  N2  UNL     1      22.616   1.874  52.334  1.00  0.00    -0.343 N 
HETATM    9  C18 UNL     1      22.087   0.837  53.047  1.00  0.00     0.057 A 
ENDROOT
BRANCH   1  10
HETATM   10  C4  UNL     1      23.617  -0.633  54.281  1.00  0.00     0.009 C 
BRANCH  10  11
HETATM   11  C3  UNL     1      24.676  -0.732  53.262  1.00  0.00    -0.004 C 
HETATM   12  C2  UNL     1      25.980  -0.494  53.420  1.00  0.00    -0.031 C 
HETATM   13  C1  UNL     1      26.968  -0.620  52.332  1.00  0.00     0.036 C 
ENDBRANCH  10  11
ENDBRANCH   1  10
BRANCH   8  14
HETATM   14  C15 UNL     1      23.978   2.355  52.286  1.00  0.00     0.082 C 
HETATM   15  C16 UNL     1      24.584   2.484  50.945  1.00  0.00     0.032 C 
HETATM   16  C17 UNL     1      24.168   3.627  53.118  1.00  0.00     0.032 C 
ENDBRANCH   8  14
BRANCH   6  17
HETATM   17  C10 UNL     1      19.050   1.929  51.393  1.00  0.00     0.158 C 
HETATM   18  C11 UNL     1      18.289   1.194  50.351  1.00  0.00     0.097 C 
HETATM   19  O2  UNL     1      18.505   2.933  51.957  1.00  0.00    -0.293 OA
ENDBRANCH   6  17
BRANCH   7  20
HETATM   20  C13 UNL     1      21.536   3.539  50.702  1.00  0.00     0.172 C 
BRANCH  20  21
HETATM   21  N1  UNL     1      21.147   4.688  51.464  1.00  0.00    -0.420 N 
HETATM   22  C14 UNL     1      21.904   5.878  51.207  1.00  0.00     0.140 C 
HETATM   23  H14 UNL     1      20.136   4.817  51.554  1.00  0.00     0.153 HD
ENDBRANCH  20  21
ENDBRANCH   7  20
TORSDOF 6
ENDMDL
MODEL 9
REMARK VINA RESULT:      -5.8      7.898     10.303
REMARK  6 active torsions:
REMARK  status: ('A' for Active; 'I' for Inactive)
REMARK    1  A    between atoms: C3_3  and  C4_4 
REMARK    2  A    between atoms: C4_4  and  C5_5 
REMARK    3  A    between atoms: C9_10  and  C10_11 
REMARK    4  A    between atoms: C12_14  and  C13_15 
REMARK    5  A    between atoms: C13_15  and  N1_16 
REMARK    6  A    between atoms: N2_18  and  C15_19 
ROOT
HETATM    1  C5  UNL     1      27.744   5.833  48.480  1.00  0.00    -0.023 C 
HETATM    2  C6  UNL     1      29.031   5.181  48.110  1.00  0.00     0.125 C 
HETATM    3  C7  UNL     1      29.971   6.314  48.281  1.00  0.00     0.167 C 
HETATM    4  O1  UNL     1      31.195   6.192  48.452  1.00  0.00    -0.292 OA
HETATM    5  C8  UNL     1      29.187   7.529  48.206  1.00  0.00     0.053 A 
HETATM    6  C9  UNL     1      29.320   8.879  48.058  1.00  0.00     0.050 A 
HETATM    7  C12 UNL     1      28.056   9.388  48.089  1.00  0.00     0.044 A 
HETATM    8  N2  UNL     1      27.111   8.413  48.254  1.00  0.00    -0.343 N 
HETATM    9  C18 UNL     1      27.843   7.263  48.324  1.00  0.00     0.057 A 
ENDROOT
BRANCH   1  10
HETATM   10  C4  UNL     1      26.684   5.173  48.886  1.00  0.00     0.009 C 
BRANCH  10  11
HETATM   11  C3  UNL     1      26.784   3.807  49.427  1.00  0.00    -0.004 C 
HETATM   12  C2  UNL     1      26.337   3.365  50.604  1.00  0.00    -0.031 C 
HETATM   13  C1  UNL     1      26.486   1.969  51.059  1.00  0.00     0.036 C 
ENDBRANCH  10  11
ENDBRANCH   1  10
BRANCH   8  14
HETATM   14  C15 UNL     1      25.680   8.597  48.330  1.00  0.00     0.082 C 
HETATM   15  C16 UNL     1      24.870   7.884  47.321  1.00  0.00     0.032 C 
HETATM   16  C17 UNL     1      25.146   8.372  49.748  1.00  0.00     0.032 C 
ENDBRANCH   8  14
BRANCH   6  17
HETATM   17  C10 UNL     1      30.587   9.595  47.897  1.00  0.00     0.158 C 
HETATM   18  C11 UNL     1      31.334   9.956  46.665  1.00  0.00     0.097 C 
HETATM   19  O2  UNL     1      31.068   9.932  49.028  1.00  0.00    -0.293 OA
ENDBRANCH   6  17
BRANCH   7  20
HETATM   20  C13 UNL     1      27.823  10.864  47.954  1.00  0.00     0.172 C 
BRANCH  20  21
HETATM   21  N1  UNL     1      28.259  11.458  49.183  1.00  0.00    -0.420 N 
HETATM   22  C14 UNL     1      28.813  12.775  49.062  1.00  0.00     0.140 C 
HETATM   23  H14 UNL     1      27.626  11.314  49.974  1.00  0.00     0.153 HD
ENDBRANCH  20  21
ENDBRANCH   7  20
TORSDOF 6
ENDMDL
