MODEL 1
REMARK VINA RESULT:      -8.1      0.000      0.000
REMARK  9 active torsions:
REMARK  status: ('A' for Active; 'I' for Inactive)
REMARK    1  A    between atoms: O1_2  and  C2_3 
REMARK    2  A    between atoms: C7_9  and  N2_10 
REMARK    3  A    between atoms: N2_10  and  C8_11 
REMARK    4  A    between atoms: C9_12  and  C10_13 
REMARK    5  A    between atoms: C12_15  and  C13_16 
REMARK    6  A    between atoms: C16_19  and  N3_20 
REMARK       I    between atoms: N3_20  and  C17_21 
REMARK    7  A    between atoms: C17_21  and  C18_23 
REMARK    8  A    between atoms: C19_24  and  C20_25 
REMARK    9  A    between atoms: C20_25  and  N4_26 
ROOT
HETATM    1  C2  UNL     1      23.375   3.459  50.696  1.00  0.00     0.097 A 
HETATM    2  C3  UNL     1      22.508   2.483  51.141  1.00  0.00     0.071 A 
HETATM    3  C4  UNL     1      22.895   1.477  52.011  1.00  0.00     0.071 A 
HETATM    4  N1  UNL     1      22.022   0.554  52.416  1.00  0.00    -0.260 NA
HETATM    5  C5  UNL     1      22.369  -0.423  53.250  1.00  0.00     0.119 A 
HETATM    6  C6  UNL     1      23.633  -0.554  53.753  1.00  0.00     0.049 A 
HETATM    7  C7  UNL     1      24.536   0.391  53.341  1.00  0.00     0.043 A 
HETATM    8  C14 UNL     1      24.193   1.428  52.464  1.00  0.00     0.021 A 
HETATM    9  C15 UNL     1      25.089   2.396  52.034  1.00  0.00     0.048 A 
HETATM   10  C16 UNL     1      24.671   3.387  51.165  1.00  0.00     0.070 A 
ENDROOT
BRANCH  10  11
HETATM   11  N3  UNL     1      25.623   4.360  50.751  1.00  0.00    -0.314 N 
HETATM   12  C17 UNL     1      26.394   3.895  49.654  1.00  0.00     0.301 C 
HETATM   13  O2  UNL     1      26.211   2.751  49.148  1.00  0.00    -0.258 OA
HETATM   14  H12 UNL     1      25.798   5.320  51.151  1.00  0.00     0.170 HD
BRANCH  12  15
HETATM   15  C18 UNL     1      27.432   4.691  49.041  1.00  0.00    -0.004 C 
HETATM   16  C19 UNL     1      28.284   5.363  48.516  1.00  0.00    -0.066 C 
BRANCH  16  17
HETATM   17  C20 UNL     1      29.320   6.192  47.857  1.00  0.00     0.365 C 
BRANCH  17  18
HETATM   18  N4  UNL     1      30.554   6.169  48.617  1.00  0.00     0.090 N 
HETATM   19  C21 UNL     1      31.515   5.406  47.821  1.00  0.00     0.310 C 
HETATM   20  C22 UNL     1      31.092   7.515  48.737  1.00  0.00     0.310 C 
ENDBRANCH  17  18
ENDBRANCH  16  17
ENDBRANCH  12  15
ENDBRANCH  10  11
BRANCH   1  21
HETATM   21  O1  UNL     1      22.953   4.442  49.832  1.00  0.00    -0.354 OA
HETATM   22  C1  UNL     1      22.783   4.151  48.468  1.00  0.00     0.210 C 
ENDBRANCH   1  21
BRANCH   7  23
HETATM   23  N2  UNL     1      25.872   0.420  53.699  1.00  0.00    -0.372 N 
HETATM   24  H7  UNL     1      25.892   0.297  54.766  1.00  0.00     0.161 HD
BRANCH  23  25
HETATM   25  C8  UNL     1      27.186   0.448  54.051  1.00  0.00     0.093 A 
HETATM   26  C9  UNL     1      28.250   0.016  53.942  1.00  0.00    -0.038 A 
HETATM   27  C13 UNL     1      27.508  -0.778  53.093  1.00  0.00     0.062 A 
BRANCH  26  28
HETATM   28  C10 UNL     1      29.206  -0.391  53.829  1.00  0.00    -0.063 A 
HETATM   29  C11 UNL     1      30.227  -0.848  53.697  1.00  0.00     0.033 A 
HETATM   30  C12 UNL     1      28.911  -1.613  53.241  1.00  0.00     0.035 A 
ENDBRANCH  26  28
ENDBRANCH  23  25
ENDBRANCH   7  23
TORSDOF 9
ENDMDL
MODEL 2
REMARK VINA RESULT:      -8.0      1.420      1.688
REMARK  9 active torsions:
REMARK  status: ('A' for Active; 'I' for Inactive)
REMARK    1  A    between atoms: O1_2  and  C2_3 
REMARK    2  A    between atoms: C7_9  and  N2_10 
REMARK    3  A    between atoms: N2_10  and  C8_11 
REMARK    4  A    between atoms: C9_12  and  C10_13 
REMARK    5  A    between atoms: C12_15  and  C13_16 
REMARK    6  A    between atoms: C16_19  and  N3_20 
REMARK       I    between atoms: N3_20  and  C17_21 
REMARK    7  A    between atoms: C17_21  and  C18_23 
REMARK    8  A    between atoms: C19_24  and  C20_25 
REMARK    9  A    between atoms: C20_25  and  N4_26 
ROOT
HETATM    1  C2  UNL     1      22.957   3.913  51.825  1.00  0.00     0.097 A 
HETATM    2  C3  UNL     1      22.004   3.033  52.293  1.00  0.00     0.071 A 
HETATM    3  C4  UNL     1      22.304   1.733  52.665  1.00  0.00     0.071 A 
HETATM    4  N1  UNL     1      21.350   0.916  53.114  1.00  0.00    -0.260 NA
HETATM    5  C5  UNL     1      21.612  -0.337  53.477  1.00  0.00     0.119 A 
HETATM    6  C6  UNL     1      22.865  -0.879  53.420  1.00  0.00     0.049 A 
HETATM    7  C7  UNL     1      23.851  -0.044  52.961  1.00  0.00     0.043 A 
HETATM    8  C14 UNL     1      23.599   1.278  52.573  1.00  0.00     0.021 A 
HETATM    9  C15 UNL     1      24.580   2.139  52.106  1.00  0.00     0.048 A 
HETATM   10  C16 UNL     1      24.247   3.432  51.742  1.00  0.00     0.070 A 
ENDROOT
BRANCH  10  11
HETATM   11  N3  UNL     1      25.286   4.282  51.269  1.00  0.00    -0.314 N 
HETATM   12  C17 UNL     1      25.611   3.999  49.917  1.00  0.00     0.301 C 
HETATM   13  O2  UNL     1      25.017   3.094  49.265  1.00  0.00    -0.258 OA
HETATM   14  H12 UNL     1      25.799   5.045  51.787  1.00  0.00     0.170 HD
BRANCH  12  15
HETATM   15  C18 UNL     1      26.633   4.720  49.196  1.00  0.00    -0.004 C 
HETATM   16  C19 UNL     1      27.491   5.333  48.611  1.00  0.00    -0.066 C 
BRANCH  16  17
HETATM   17  C20 UNL     1      28.545   6.099  47.905  1.00  0.00     0.365 C 
BRANCH  17  18
HETATM   18  N4  UNL     1      28.067   7.419  47.549  1.00  0.00     0.090 N 
HETATM   19  C21 UNL     1      28.249   8.259  48.733  1.00  0.00     0.310 C 
HETATM   20  C22 UNL     1      28.903   7.989  46.504  1.00  0.00     0.310 C 
ENDBRANCH  17  18
ENDBRANCH  16  17
ENDBRANCH  12  15
ENDBRANCH  10  11
BRANCH   1  21
HETATM   21  O1  UNL     1      22.621   5.197  51.465  1.00  0.00    -0.354 OA
HETATM   22  C1  UNL     1      21.431   5.438  50.757  1.00  0.00     0.210 C 
ENDBRANCH   1  21
BRANCH   7  23
HETATM   23  N2  UNL     1      25.176  -0.403  52.790  1.00  0.00    -0.372 N 
HETATM   24  H7  UNL     1      25.351  -0.385  51.730  1.00  0.00     0.161 HD
BRANCH  23  25
HETATM   25  C8  UNL     1      26.480  -0.756  52.622  1.00  0.00     0.093 A 
HETATM   26  C9  UNL     1      27.558  -0.785  53.030  1.00  0.00    -0.038 A 
HETATM   27  C13 UNL     1      26.868  -0.139  54.033  1.00  0.00     0.062 A 
BRANCH  26  28
HETATM   28  C10 UNL     1      28.528  -0.801  53.418  1.00  0.00    -0.063 A 
HETATM   29  C11 UNL     1      29.569  -0.800  53.849  1.00  0.00     0.033 A 
HETATM   30  C12 UNL     1      28.472   0.248  54.325  1.00  0.00     0.035 A 
ENDBRANCH  26  28
ENDBRANCH  23  25
ENDBRANCH   7  23
TORSDOF 9
ENDMDL
MODEL 3
REMARK VINA RESULT:      -7.7      2.348      2.754
REMARK  9 active torsions:
REMARK  status: ('A' for Active; 'I' for Inactive)
REMARK    1  A    between atoms: O1_2  and  C2_3 
REMARK    2  A    between atoms: C7_9  and  N2_10 
REMARK    3  A    between atoms: N2_10  and  C8_11 
REMARK    4  A    between atoms: C9_12  and  C10_13 
REMARK    5  A    between atoms: C12_15  and  C13_16 
REMARK    6  A    between atoms: C16_19  and  N3_20 
REMARK       I    between atoms: N3_20  and  C17_21 
REMARK    7  A    between atoms: C17_21  and  C18_23 
REMARK    8  A    between atoms: C19_24  and  C20_25 
REMARK    9  A    between atoms: C20_25  and  N4_26 
ROOT
HETATM    1  C2  UNL     1      22.365   1.392  50.896  1.00  0.00     0.097 A 
HETATM    2  C3  UNL     1      21.703   0.517  51.731  1.00  0.00     0.071 A 
HETATM    3  C4  UNL     1      22.309  -0.079  52.824  1.00  0.00     0.071 A 
HETATM    4  N1  UNL     1      21.630  -0.919  53.606  1.00  0.00    -0.260 NA
HETATM    5  C5  UNL     1      22.190  -1.505  54.662  1.00  0.00     0.119 A 
HETATM    6  C6  UNL     1      23.490  -1.293  55.024  1.00  0.00     0.049 A 
HETATM    7  C7  UNL     1      24.195  -0.430  54.225  1.00  0.00     0.043 A 
HETATM    8  C14 UNL     1      23.626   0.198  53.109  1.00  0.00     0.021 A 
HETATM    9  C15 UNL     1      24.319   1.075  52.288  1.00  0.00     0.048 A 
HETATM   10  C16 UNL     1      23.684   1.652  51.203  1.00  0.00     0.070 A 
ENDROOT
BRANCH  10  11
HETATM   11  N3  UNL     1      24.433   2.546  50.387  1.00  0.00    -0.314 N 
HETATM   12  C17 UNL     1      24.369   3.875  50.881  1.00  0.00     0.301 C 
HETATM   13  O2  UNL     1      23.714   4.168  51.922  1.00  0.00    -0.258 OA
HETATM   14  H12 UNL     1      24.989   2.332  49.516  1.00  0.00     0.170 HD
BRANCH  12  15
HETATM   15  C18 UNL     1      25.044   4.977  50.236  1.00  0.00    -0.004 C 
HETATM   16  C19 UNL     1      25.623   5.895  49.711  1.00  0.00    -0.066 C 
BRANCH  16  17
HETATM   17  C20 UNL     1      26.345   7.025  49.082  1.00  0.00     0.365 C 
BRANCH  17  18
HETATM   18  N4  UNL     1      25.735   7.380  47.816  1.00  0.00     0.090 N 
HETATM   19  C21 UNL     1      24.501   8.097  48.138  1.00  0.00     0.310 C 
HETATM   20  C22 UNL     1      26.584   8.318  47.098  1.00  0.00     0.310 C 
ENDBRANCH  17  18
ENDBRANCH  16  17
ENDBRANCH  12  15
ENDBRANCH  10  11
BRANCH   1  21
HETATM   21  O1  UNL     1      21.728   1.964  49.820  1.00  0.00    -0.354 OA
HETATM   22  C1  UNL     1      21.481   1.202  48.665  1.00  0.00     0.210 C 
ENDBRANCH   1  21
BRANCH   7  23
HETATM   23  N2  UNL     1      25.530  -0.108  54.391  1.00  0.00    -0.372 N 
HETATM   24  H7  UNL     1      25.916   0.062  53.403  1.00  0.00     0.161 HD
BRANCH  23  25
HETATM   25  C8  UNL     1      26.843   0.210  54.555  1.00  0.00     0.093 A 
HETATM   26  C9  UNL     1      27.944   0.068  54.238  1.00  0.00    -0.038 A 
HETATM   27  C13 UNL     1      27.269  -0.796  53.401  1.00  0.00     0.062 A 
BRANCH  26  28
HETATM   28  C10 UNL     1      28.933  -0.076  53.936  1.00  0.00    -0.063 A 
HETATM   29  C11 UNL     1      29.995  -0.251  53.602  1.00  0.00     0.033 A 
HETATM   30  C12 UNL     1      28.860  -1.339  53.365  1.00  0.00     0.035 A 
ENDBRANCH  26  28
ENDBRANCH  23  25
ENDBRANCH   7  23
TORSDOF 9
ENDMDL
MODEL 4
REMARK VINA RESULT:      -7.4      2.385      5.662
REMARK  9 active torsions:
REMARK  status: ('A' for Active; 'I' for Inactive)
REMARK    1  A    between atoms: O1_2  and  C2_3 
REMARK    2  A    between atoms: C7_9  and  N2_10 
REMARK    3  A    between atoms: N2_10  and  C8_11 
REMARK    4  A    between atoms: C9_12  and  C10_13 
REMARK    5  A    between atoms: C12_15  and  C13_16 
REMARK    6  A    between atoms: C16_19  and  N3_20 
REMARK       I    between atoms: N3_20  and  C17_21 
REMARK    7  A    between atoms: C17_21  and  C18_23 
REMARK    8  A    between atoms: C19_24  and  C20_25 
REMARK    9  A    between atoms: C20_25  and  N4_26 
ROOT
HETATM    1  C2  UNL     1      26.934   0.591  53.317  1.00  0.00     0.097 A 
HETATM    2  C3  UNL     1      26.464  -0.154  54.378  1.00  0.00     0.071 A 
HETATM    3  C4  UNL     1      25.136  -0.528  54.501  1.00  0.00     0.071 A 
HETATM    4  N1  UNL     1      24.725  -1.249  55.544  1.00  0.00    -0.260 NA
HETATM    5  C5  UNL     1      23.455  -1.621  55.685  1.00  0.00     0.119 A 
HETATM    6  C6  UNL     1      22.483  -1.296  54.781  1.00  0.00     0.049 A 
HETATM    7  C7  UNL     1      22.899  -0.554  53.705  1.00  0.00     0.043 A 
HETATM    8  C14 UNL     1      24.230  -0.152  53.536  1.00  0.00     0.021 A 
HETATM    9  C15 UNL     1      24.672   0.597  52.456  1.00  0.00     0.048 A 
HETATM   10  C16 UNL     1      26.005   0.954  52.365  1.00  0.00     0.070 A 
ENDROOT
BRANCH  10  11
HETATM   11  N3  UNL     1      26.416   1.723  51.240  1.00  0.00    -0.314 N 
HETATM   12  C17 UNL     1      25.812   3.007  51.241  1.00  0.00     0.301 C 
HETATM   13  O2  UNL     1      25.017   3.367  52.155  1.00  0.00    -0.258 OA
HETATM   14  H12 UNL     1      27.077   1.450  50.463  1.00  0.00     0.170 HD
BRANCH  12  15
HETATM   15  C18 UNL     1      26.061   3.985  50.208  1.00  0.00    -0.004 C 
HETATM   16  C19 UNL     1      26.268   4.816  49.360  1.00  0.00    -0.066 C 
BRANCH  16  17
HETATM   17  C20 UNL     1      26.516   5.851  48.329  1.00  0.00     0.365 C 
BRANCH  17  18
HETATM   18  N4  UNL     1      27.802   6.485  48.538  1.00  0.00     0.090 N 
HETATM   19  C21 UNL     1      28.815   5.482  48.208  1.00  0.00     0.310 C 
HETATM   20  C22 UNL     1      27.979   7.578  47.596  1.00  0.00     0.310 C 
ENDBRANCH  17  18
ENDBRANCH  16  17
ENDBRANCH  12  15
ENDBRANCH  10  11
BRANCH   1  21
HETATM   21  O1  UNL     1      28.261   0.943  53.231  1.00  0.00    -0.354 OA
HETATM   22  C1  UNL     1      29.121   0.707  54.317  1.00  0.00     0.210 C 
ENDBRANCH   1  21
BRANCH   7  23
HETATM   23  N2  UNL     1      22.073  -0.089  52.698  1.00  0.00    -0.372 N 
HETATM   24  H7  UNL     1      21.310   0.488  53.187  1.00  0.00     0.161 HD
BRANCH  23  25
HETATM   25  C8  UNL     1      21.260   0.369  51.706  1.00  0.00     0.093 A 
HETATM   26  C9  UNL     1      20.196   0.500  51.279  1.00  0.00    -0.038 A 
HETATM   27  C13 UNL     1      19.972  -0.176  52.459  1.00  0.00     0.062 A 
BRANCH  26  28
HETATM   28  C10 UNL     1      19.225   0.608  50.909  1.00  0.00    -0.063 A 
HETATM   29  C11 UNL     1      18.170   0.713  50.529  1.00  0.00     0.033 A 
HETATM   30  C12 UNL     1      18.491  -0.054  51.883  1.00  0.00     0.035 A 
ENDBRANCH  26  28
ENDBRANCH  23  25
ENDBRANCH   7  23
TORSDOF 9
ENDMDL
MODEL 5
REMARK VINA RESULT:      -7.2      3.599      8.354
REMARK  9 active torsions:
REMARK  status: ('A' for Active; 'I' for Inactive)
REMARK    1  A    between atoms: O1_2  and  C2_3 
REMARK    2  A    between atoms: C7_9  and  N2_10 
REMARK    3  A    between atoms: N2_10  and  C8_11 
REMARK    4  A    between atoms: C9_12  and  C10_13 
REMARK    5  A    between atoms: C12_15  and  C13_16 
REMARK    6  A    between atoms: C16_19  and  N3_20 
REMARK       I    between atoms: N3_20  and  C17_21 
REMARK    7  A    between atoms: C17_21  and  C18_23 
REMARK    8  A    between atoms: C19_24  and  C20_25 
REMARK    9  A    between atoms: C20_25  and  N4_26 
ROOT
HETATM    1  C2  UNL     1      22.109   0.078  53.797  1.00  0.00     0.097 A 
HETATM    2  C3  UNL     1      23.300  -0.616  53.814  1.00  0.00     0.071 A 
HETATM    3  C4  UNL     1      24.438  -0.168  53.163  1.00  0.00     0.071 A 
HETATM    4  N1  UNL     1      25.570  -0.871  53.207  1.00  0.00    -0.260 NA
HETATM    5  C5  UNL     1      26.675  -0.463  52.589  1.00  0.00     0.119 A 
HETATM    6  C6  UNL     1      26.737   0.697  51.869  1.00  0.00     0.049 A 
HETATM    7  C7  UNL     1      25.577   1.426  51.820  1.00  0.00     0.043 A 
HETATM    8  C14 UNL     1      24.401   1.016  52.463  1.00  0.00     0.021 A 
HETATM    9  C15 UNL     1      23.218   1.737  52.427  1.00  0.00     0.048 A 
HETATM   10  C16 UNL     1      22.100   1.262  53.088  1.00  0.00     0.070 A 
ENDROOT
BRANCH  10  11
HETATM   11  N3  UNL     1      20.906   2.034  53.025  1.00  0.00    -0.314 N 
HETATM   12  C17 UNL     1      20.085   1.632  51.940  1.00  0.00     0.301 C 
HETATM   13  O2  UNL     1      20.424   0.696  51.160  1.00  0.00    -0.258 OA
HETATM   14  H12 UNL     1      20.596   2.818  53.660  1.00  0.00     0.170 HD
BRANCH  12  15
HETATM   15  C18 UNL     1      18.815   2.256  51.653  1.00  0.00    -0.004 C 
HETATM   16  C19 UNL     1      17.745   2.758  51.415  1.00  0.00    -0.066 C 
BRANCH  16  17
HETATM   17  C20 UNL     1      16.424   3.359  51.120  1.00  0.00     0.365 C 
BRANCH  17  18
HETATM   18  N4  UNL     1      15.440   2.938  52.097  1.00  0.00     0.090 N 
HETATM   19  C21 UNL     1      15.244   4.072  53.001  1.00  0.00     0.310 C 
HETATM   20  C22 UNL     1      14.161   2.700  51.448  1.00  0.00     0.310 C 
ENDBRANCH  17  18
ENDBRANCH  16  17
ENDBRANCH  12  15
ENDBRANCH  10  11
BRANCH   1  21
HETATM   21  O1  UNL     1      21.001  -0.399  54.457  1.00  0.00    -0.354 OA
HETATM   22  C1  UNL     1      20.485  -1.666  54.136  1.00  0.00     0.210 C 
ENDBRANCH   1  21
BRANCH   7  23
HETATM   23  N2  UNL     1      25.413   2.606  51.118  1.00  0.00    -0.372 N 
HETATM   24  H7  UNL     1      24.826   3.246  51.751  1.00  0.00     0.161 HD
BRANCH  23  25
HETATM   25  C8  UNL     1      25.251   3.768  50.427  1.00  0.00     0.093 A 
HETATM   26  C9  UNL     1      25.694   4.578  49.735  1.00  0.00    -0.038 A 
HETATM   27  C13 UNL     1      26.754   3.716  49.914  1.00  0.00     0.062 A 
BRANCH  26  28
HETATM   28  C10 UNL     1      26.113   5.301  49.108  1.00  0.00    -0.063 A 
HETATM   29  C11 UNL     1      26.584   6.068  48.431  1.00  0.00     0.033 A 
HETATM   30  C12 UNL     1      27.336   4.718  48.805  1.00  0.00     0.035 A 
ENDBRANCH  26  28
ENDBRANCH  23  25
ENDBRANCH   7  23
TORSDOF 9
ENDMDL
MODEL 6
REMARK VINA RESULT:      -6.9      2.972      5.877
REMARK  9 active torsions:
REMARK  status: ('A' for Active; 'I' for Inactive)
REMARK    1  A    between atoms: O1_2  and  C2_3 
REMARK    2  A    between atoms: C7_9  and  N2_10 
REMARK    3  A    between atoms: N2_10  and  C8_11 
REMARK    4  A    between atoms: C9_12  and  C10_13 
REMARK    5  A    between atoms: C12_15  and  C13_16 
REMARK    6  A    between atoms: C16_19  and  N3_20 
REMARK       I    between atoms: N3_20  and  C17_21 
REMARK    7  A    between atoms: C17_21  and  C18_23 
REMARK    8  A    between atoms: C19_24  and  C20_25 
REMARK    9  A    between atoms: C20_25  and  N4_26 
ROOT
HETATM    1  C2  UNL     1      23.391   5.179  51.066  1.00  0.00     0.097 A 
HETATM    2  C3  UNL     1      22.169   5.415  50.474  1.00  0.00     0.071 A 
HETATM    3  C4  UNL     1      21.034   4.684  50.783  1.00  0.00     0.071 A 
HETATM    4  N1  UNL     1      19.870   4.947  50.186  1.00  0.00    -0.260 NA
HETATM    5  C5  UNL     1      18.766   4.258  50.464  1.00  0.00     0.119 A 
HETATM    6  C6  UNL     1      18.738   3.239  51.374  1.00  0.00     0.049 A 
HETATM    7  C7  UNL     1      19.930   2.963  51.991  1.00  0.00     0.043 A 
HETATM    8  C14 UNL     1      21.105   3.674  51.715  1.00  0.00     0.021 A 
HETATM    9  C15 UNL     1      22.321   3.412  52.327  1.00  0.00     0.048 A 
HETATM   10  C16 UNL     1      23.436   4.161  51.996  1.00  0.00     0.070 A 
ENDROOT
BRANCH  10  11
HETATM   11  N3  UNL     1      24.663   3.859  52.650  1.00  0.00    -0.314 N 
HETATM   12  C17 UNL     1      25.301   2.736  52.061  1.00  0.00     0.301 C 
HETATM   13  O2  UNL     1      24.794   2.122  51.079  1.00  0.00    -0.258 OA
HETATM   14  H12 UNL     1      25.111   4.352  53.469  1.00  0.00     0.170 HD
BRANCH  12  15
HETATM   15  C18 UNL     1      26.563   2.221  52.536  1.00  0.00    -0.004 C 
HETATM   16  C19 UNL     1      27.608   1.773  52.939  1.00  0.00    -0.066 C 
BRANCH  16  17
HETATM   17  C20 UNL     1      28.882   1.211  53.443  1.00  0.00     0.365 C 
BRANCH  17  18
HETATM   18  N4  UNL     1      28.658  -0.064  54.093  1.00  0.00     0.090 N 
HETATM   19  C21 UNL     1      27.517   0.124  54.989  1.00  0.00     0.310 C 
HETATM   20  C22 UNL     1      28.254  -1.060  53.113  1.00  0.00     0.310 C 
ENDBRANCH  17  18
ENDBRANCH  16  17
ENDBRANCH  12  15
ENDBRANCH  10  11
BRANCH   1  21
HETATM   21  O1  UNL     1      24.497   5.927  50.734  1.00  0.00    -0.354 OA
HETATM   22  C1  UNL     1      25.272   5.575  49.616  1.00  0.00     0.210 C 
ENDBRANCH   1  21
BRANCH   7  23
HETATM   23  N2  UNL     1      20.129   1.949  52.912  1.00  0.00    -0.372 N 
HETATM   24  H7  UNL     1      20.830   1.273  52.458  1.00  0.00     0.161 HD
BRANCH  23  25
HETATM   25  C8  UNL     1      20.324   0.953  53.818  1.00  0.00     0.093 A 
HETATM   26  C9  UNL     1      20.848  -0.034  54.108  1.00  0.00    -0.038 A 
HETATM   27  C13 UNL     1      21.339   0.215  52.844  1.00  0.00     0.062 A 
BRANCH  26  28
HETATM   28  C10 UNL     1      21.332  -0.927  54.351  1.00  0.00    -0.063 A 
HETATM   29  C11 UNL     1      21.866  -1.888  54.594  1.00  0.00     0.033 A 
HETATM   30  C12 UNL     1      22.220  -1.049  53.292  1.00  0.00     0.035 A 
ENDBRANCH  26  28
ENDBRANCH  23  25
ENDBRANCH   7  23
TORSDOF 9
ENDMDL
MODEL 7
REMARK VINA RESULT:      -6.9      3.191      6.239
REMARK  9 active torsions:
REMARK  status: ('A' for Active; 'I' for Inactive)
REMARK    1  A    between atoms: O1_2  and  C2_3 
REMARK    2  A    between atoms: C7_9  and  N2_10 
REMARK    3  A    between atoms: N2_10  and  C8_11 
REMARK    4  A    between atoms: C9_12  and  C10_13 
REMARK    5  A    between atoms: C12_15  and  C13_16 
REMARK    6  A    between atoms: C16_19  and  N3_20 
REMARK       I    between atoms: N3_20  and  C17_21 
REMARK    7  A    between atoms: C17_21  and  C18_23 
REMARK    8  A    between atoms: C19_24  and  C20_25 
REMARK    9  A    between atoms: C20_25  and  N4_26 
ROOT
HETATM    1  C2  UNL     1      26.476   1.340  52.698  1.00  0.00     0.097 A 
HETATM    2  C3  UNL     1      26.386   0.514  53.799  1.00  0.00     0.071 A 
HETATM    3  C4  UNL     1      25.201  -0.088  54.188  1.00  0.00     0.071 A 
HETATM    4  N1  UNL     1      25.160  -0.881  55.260  1.00  0.00    -0.260 NA
HETATM    5  C5  UNL     1      24.034  -1.471  55.654  1.00  0.00     0.119 A 
HETATM    6  C6  UNL     1      22.845  -1.313  55.000  1.00  0.00     0.049 A 
HETATM    7  C7  UNL     1      22.880  -0.500  53.897  1.00  0.00     0.043 A 
HETATM    8  C14 UNL     1      24.053   0.132  53.463  1.00  0.00     0.021 A 
HETATM    9  C15 UNL     1      24.112   0.958  52.350  1.00  0.00     0.048 A 
HETATM   10  C16 UNL     1      25.311   1.544  51.989  1.00  0.00     0.070 A 
ENDROOT
BRANCH  10  11
HETATM   11  N3  UNL     1      25.325   2.384  50.840  1.00  0.00    -0.314 N 
HETATM   12  C17 UNL     1      24.705   3.633  51.103  1.00  0.00     0.301 C 
HETATM   13  O2  UNL     1      24.219   3.908  52.237  1.00  0.00    -0.258 OA
HETATM   14  H12 UNL     1      25.723   2.183  49.883  1.00  0.00     0.170 HD
BRANCH  12  15
HETATM   15  C18 UNL     1      24.587   4.668  50.104  1.00  0.00    -0.004 C 
HETATM   16  C19 UNL     1      24.469   5.535  49.275  1.00  0.00    -0.066 C 
BRANCH  16  17
HETATM   17  C20 UNL     1      24.305   6.598  48.255  1.00  0.00     0.365 C 
BRANCH  17  18
HETATM   18  N4  UNL     1      23.165   6.321  47.405  1.00  0.00     0.090 N 
HETATM   19  C21 UNL     1      21.975   6.668  48.182  1.00  0.00     0.310 C 
HETATM   20  C22 UNL     1      23.177   7.204  46.250  1.00  0.00     0.310 C 
ENDBRANCH  17  18
ENDBRANCH  16  17
ENDBRANCH  12  15
ENDBRANCH  10  11
BRANCH   1  21
HETATM   21  O1  UNL     1      27.671   1.920  52.343  1.00  0.00    -0.354 OA
HETATM   22  C1  UNL     1      28.557   2.366  53.338  1.00  0.00     0.210 C 
ENDBRANCH   1  21
BRANCH   7  23
HETATM   23  N2  UNL     1      21.785  -0.176  53.116  1.00  0.00    -0.372 N 
HETATM   24  H7  UNL     1      21.938  -0.673  52.176  1.00  0.00     0.161 HD
BRANCH  23  25
HETATM   25  C8  UNL     1      20.707   0.141  52.349  1.00  0.00     0.093 A 
HETATM   26  C9  UNL     1      19.587   0.002  52.107  1.00  0.00    -0.038 A 
HETATM   27  C13 UNL     1      19.782  -0.857  53.167  1.00  0.00     0.062 A 
BRANCH  26  28
HETATM   28  C10 UNL     1      18.572  -0.139  51.905  1.00  0.00    -0.063 A 
HETATM   29  C11 UNL     1      17.475  -0.303  51.706  1.00  0.00     0.033 A 
HETATM   30  C12 UNL     1      18.177  -0.877  53.012  1.00  0.00     0.035 A 
ENDBRANCH  26  28
ENDBRANCH  23  25
ENDBRANCH   7  23
TORSDOF 9
ENDMDL
MODEL 8
REMARK VINA RESULT:      -6.8      3.011      6.408
REMARK  9 active torsions:
REMARK  status: ('A' for Active; 'I' for Inactive)
REMARK    1  A    between atoms: O1_2  and  C2_3 
REMARK    2  A    between atoms: C7_9  and  N2_10 
REMARK    3  A    between atoms: N2_10  and  C8_11 
REMARK    4  A    between atoms: C9_12  and  C10_13 
REMARK    5  A    between atoms: C12_15  and  C13_16 
REMARK    6  A    between atoms: C16_19  and  N3_20 
REMARK       I    between atoms: N3_20  and  C17_21 
REMARK    7  A    between atoms: C17_21  and  C18_23 
REMARK    8  A    between atoms: C19_24  and  C20_25 
REMARK    9  A    between atoms: C20_25  and  N4_26 
ROOT
HETATM    1  C2  UNL     1      25.551   3.553  50.139  1.00  0.00     0.097 A 
HETATM    2  C3  UNL     1      26.465   2.667  50.668  1.00  0.00     0.071 A 
HETATM    3  C4  UNL     1      26.109   1.664  51.554  1.00  0.00     0.071 A 
HETATM    4  N1  UNL     1      27.027   0.828  52.041  1.00  0.00    -0.260 NA
HETATM    5  C5  UNL     1      26.711  -0.143  52.894  1.00  0.00     0.119 A 
HETATM    6  C6  UNL     1      25.434  -0.359  53.332  1.00  0.00     0.049 A 
HETATM    7  C7  UNL     1      24.485   0.497  52.835  1.00  0.00     0.043 A 
HETATM    8  C14 UNL     1      24.795   1.526  51.937  1.00  0.00     0.021 A 
HETATM    9  C15 UNL     1      23.851   2.402  51.421  1.00  0.00     0.048 A 
HETATM   10  C16 UNL     1      24.240   3.394  50.539  1.00  0.00     0.070 A 
ENDROOT
BRANCH  10  11
HETATM   11  N3  UNL     1      23.239   4.270  50.034  1.00  0.00    -0.314 N 
HETATM   12  C17 UNL     1      23.068   5.400  50.875  1.00  0.00     0.301 C 
HETATM   13  O2  UNL     1      23.749   5.555  51.928  1.00  0.00    -0.258 OA
HETATM   14  H12 UNL     1      22.656   4.168  49.160  1.00  0.00     0.170 HD
BRANCH  12  15
HETATM   15  C18 UNL     1      22.113   6.444  50.589  1.00  0.00    -0.004 C 
HETATM   16  C19 UNL     1      21.316   7.323  50.370  1.00  0.00    -0.066 C 
BRANCH  16  17
HETATM   17  C20 UNL     1      20.336   8.405  50.119  1.00  0.00     0.365 C 
BRANCH  17  18
HETATM   18  N4  UNL     1      20.496   8.941  48.783  1.00  0.00     0.090 N 
HETATM   19  C21 UNL     1      19.399   9.889  48.584  1.00  0.00     0.310 C 
HETATM   20  C22 UNL     1      21.728   9.709  48.697  1.00  0.00     0.310 C 
ENDBRANCH  17  18
ENDBRANCH  16  17
ENDBRANCH  12  15
ENDBRANCH  10  11
BRANCH   1  21
HETATM   21  O1  UNL     1      25.943   4.537  49.260  1.00  0.00    -0.354 OA
HETATM   22  C1  UNL     1      27.292   4.641  48.881  1.00  0.00     0.210 C 
ENDBRANCH   1  21
BRANCH   7  23
HETATM   23  N2  UNL     1      23.145   0.478  53.178  1.00  0.00    -0.372 N 
HETATM   24  H7  UNL     1      22.706   1.331  52.694  1.00  0.00     0.161 HD
BRANCH  23  25
HETATM   25  C8  UNL     1      21.826   0.459  53.514  1.00  0.00     0.093 A 
HETATM   26  C9  UNL     1      20.744   0.146  53.263  1.00  0.00    -0.038 A 
HETATM   27  C13 UNL     1      21.459  -0.327  52.183  1.00  0.00     0.062 A 
BRANCH  26  28
HETATM   28  C10 UNL     1      19.772  -0.146  53.016  1.00  0.00    -0.063 A 
HETATM   29  C11 UNL     1      18.727  -0.452  52.730  1.00  0.00     0.033 A 
HETATM   30  C12 UNL     1      19.688   0.283  51.699  1.00  0.00     0.035 A 
ENDBRANCH  26  28
ENDBRANCH  23  25
ENDBRANCH   7  23
TORSDOF 9
ENDMDL
MODEL 9
REMARK VINA RESULT:      -6.8      3.830      7.064
REMARK  9 active torsions:
REMARK  status: ('A' for Active; 'I' for Inactive)
REMARK    1  A    between atoms: O1_2  and  C2_3 
REMARK    2  A    between atoms: C7_9  and  N2_10 
REMARK    3  A    between atoms: N2_10  and  C8_11 
REMARK    4  A    between atoms: C9_12  and  C10_13 
REMARK    5  A    between atoms: C12_15  and  C13_16 
REMARK    6  A    between atoms: C16_19  and  N3_20 
REMARK       I    between atoms: N3_20  and  C17_21 
REMARK    7  A    between atoms: C17_21  and  C18_23 
REMARK    8  A    between atoms: C19_24  and  C20_25 
REMARK    9  A    between atoms: C20_25  and  N4_26 
ROOT
HETATM    1  C2  UNL     1      20.012  -0.489  53.313  1.00  0.00     0.097 A 
HETATM    2  C3  UNL     1      20.759  -1.074  54.313  1.00  0.00     0.071 A 
HETATM    3  C4  UNL     1      22.132  -0.920  54.410  1.00  0.00     0.071 A 
HETATM    4  N1  UNL     1      22.816  -1.503  55.395  1.00  0.00    -0.260 NA
HETATM    5  C5  UNL     1      24.135  -1.371  55.509  1.00  0.00     0.119 A 
HETATM    6  C6  UNL     1      24.885  -0.634  54.636  1.00  0.00     0.049 A 
HETATM    7  C7  UNL     1      24.188  -0.031  53.621  1.00  0.00     0.043 A 
HETATM    8  C14 UNL     1      22.800  -0.156  53.481  1.00  0.00     0.021 A 
HETATM    9  C15 UNL     1      22.076   0.446  52.462  1.00  0.00     0.048 A 
HETATM   10  C16 UNL     1      20.705   0.271  52.394  1.00  0.00     0.070 A 
ENDROOT
BRANCH  10  11
HETATM   11  N3  UNL     1      20.002   0.907  51.334  1.00  0.00    -0.314 N 
HETATM   12  C17 UNL     1      19.671   2.247  51.661  1.00  0.00     0.301 C 
HETATM   13  O2  UNL     1      19.990   2.759  52.772  1.00  0.00    -0.258 OA
HETATM   14  H12 UNL     1      19.723   0.507  50.397  1.00  0.00     0.170 HD
BRANCH  12  15
HETATM   15  C18 UNL     1      18.955   3.115  50.756  1.00  0.00    -0.004 C 
HETATM   16  C19 UNL     1      18.340   3.829  50.004  1.00  0.00    -0.066 C 
BRANCH  16  17
HETATM   17  C20 UNL     1      17.570   4.694  49.079  1.00  0.00     0.365 C 
BRANCH  17  18
HETATM   18  N4  UNL     1      18.462   5.509  48.280  1.00  0.00     0.090 N 
HETATM   19  C21 UNL     1      19.277   6.276  49.222  1.00  0.00     0.310 C 
HETATM   20  C22 UNL     1      19.378   4.663  47.533  1.00  0.00     0.310 C 
ENDBRANCH  17  18
ENDBRANCH  16  17
ENDBRANCH  12  15
ENDBRANCH  10  11
BRANCH   1  21
HETATM   21  O1  UNL     1      18.649  -0.665  53.251  1.00  0.00    -0.354 OA
HETATM   22  C1  UNL     1      18.088  -1.914  53.569  1.00  0.00     0.210 C 
ENDBRANCH   1  21
BRANCH   7  23
HETATM   23  N2  UNL     1      24.757   0.725  52.611  1.00  0.00    -0.372 N 
HETATM   24  H7  UNL     1      25.804   0.483  52.617  1.00  0.00     0.161 HD
BRANCH  23  25
HETATM   25  C8  UNL     1      25.316   1.469  51.618  1.00  0.00     0.093 A 
HETATM   26  C9  UNL     1      25.463   2.496  51.113  1.00  0.00    -0.038 A 
HETATM   27  C13 UNL     1      24.619   2.789  52.163  1.00  0.00     0.062 A 
BRANCH  26  28
HETATM   28  C10 UNL     1      25.582   3.435  50.670  1.00  0.00    -0.063 A 
HETATM   29  C11 UNL     1      25.723   4.437  50.176  1.00  0.00     0.033 A 
HETATM   30  C12 UNL     1      26.413   3.125  49.602  1.00  0.00     0.035 A 
ENDBRANCH  26  28
ENDBRANCH  23  25
ENDBRANCH   7  23
TORSDOF 9
ENDMDL
