MODEL 1
REMARK VINA RESULT:      -8.9      0.000      0.000
REMARK  7 active torsions:
REMARK  status: ('A' for Active; 'I' for Inactive)
REMARK    1  A    between atoms: C6_8  and  N3_9 
REMARK    2  A    between atoms: N3_9  and  C7_10 
REMARK    3  A    between atoms: C15_20  and  O1_21 
REMARK    4  A    between atoms: O1_21  and  C16_22 
REMARK    5  A    between atoms: C16_22  and  C17_23 
REMARK    6  A    between atoms: C17_23  and  C18_24 
REMARK    7  A    between atoms: C21_29  and  O3_30 
ROOT
HETATM    1  C1  UNL     1      18.757  -0.083  52.204  1.00  0.00     0.051 C 
HETATM    2  C2  UNL     1      20.189  -0.162  52.589  1.00  0.00    -0.026 A 
HETATM    3  C3  UNL     1      20.499  -0.757  53.786  1.00  0.00     0.042 A 
HETATM    4  C4  UNL     1      21.815  -0.844  54.161  1.00  0.00     0.072 A 
HETATM    5  N1  UNL     1      22.141  -1.428  55.334  1.00  0.00    -0.241 NA
HETATM    6  C5  UNL     1      23.428  -1.531  55.729  1.00  0.00     0.236 A 
HETATM    7  N2  UNL     1      24.435  -1.058  54.973  1.00  0.00    -0.224 NA
HETATM    8  C6  UNL     1      24.202  -0.459  53.787  1.00  0.00     0.142 A 
HETATM    9  C13 UNL     1      22.891  -0.357  53.395  1.00  0.00     0.041 A 
HETATM   10  C14 UNL     1      22.452   0.215  52.220  1.00  0.00     0.055 A 
HETATM   11  C15 UNL     1      21.166   0.352  51.751  1.00  0.00     0.075 A 
ENDROOT
BRANCH  11  12
HETATM   12  O1  UNL     1      20.888   0.916  50.624  1.00  0.00    -0.350 OA
BRANCH  12  13
HETATM   13  C16 UNL     1      21.029   1.451  49.438  1.00  0.00     0.178 C 
BRANCH  13  14
HETATM   14  C17 UNL     1      20.533   2.866  49.222  1.00  0.00     0.056 C 
BRANCH  14  15
HETATM   15  C18 UNL     1      21.335   3.929  49.894  1.00  0.00     0.133 C 
HETATM   16  N4  UNL     1      22.682   3.551  50.155  1.00  0.00    -0.410 N 
HETATM   17  C19 UNL     1      23.133   3.621  51.503  1.00  0.00     0.140 C 
HETATM   18  H16 UNL     1      23.020   2.699  49.682  1.00  0.00     0.153 HD
HETATM   19  C20 UNL     1      22.569   4.782  52.265  1.00  0.00     0.190 C 
HETATM   20  O2  UNL     1      21.610   5.505  51.568  1.00  0.00    -0.358 OA
HETATM   21  C21 UNL     1      20.697   4.535  51.089  1.00  0.00     0.279 C 
BRANCH  21  22
HETATM   22  O3  UNL     1      20.445   3.673  52.129  1.00  0.00    -0.369 OA
HETATM   23  H22 UNL     1      19.894   4.125  52.798  1.00  0.00     0.212 HD
ENDBRANCH  21  22
ENDBRANCH  14  15
ENDBRANCH  13  14
ENDBRANCH  12  13
ENDBRANCH  11  12
BRANCH   8  24
HETATM   24  N3  UNL     1      25.104   0.091  52.836  1.00  0.00    -0.340 N 
HETATM   25  H6  UNL     1      24.833   0.573  51.942  1.00  0.00     0.167 HD
BRANCH  24  26
HETATM   26  C7  UNL     1      26.500  -0.007  53.108  1.00  0.00     0.035 A 
HETATM   27  C8  UNL     1      27.112  -1.231  52.812  1.00  0.00     0.032 A 
HETATM   28  C9  UNL     1      28.481  -1.370  53.060  1.00  0.00     0.046 A 
HETATM   29  C10 UNL     1      29.231  -0.331  53.586  1.00  0.00     0.138 A 
HETATM   30  F1  UNL     1      30.552  -0.560  53.790  1.00  0.00    -0.204 F 
HETATM   31  C11 UNL     1      28.572   0.839  53.853  1.00  0.00     0.074 A 
HETATM   32 CL1  UNL     1      29.537   2.143  54.512  1.00  0.00    -0.081 Cl
HETATM   33  C12 UNL     1      27.227   1.048  53.635  1.00  0.00     0.056 A 
ENDBRANCH  24  26
ENDBRANCH   8  24
TORSDOF 7
ENDMDL
MODEL 2
REMARK VINA RESULT:      -8.7      4.204      6.639
REMARK  7 active torsions:
REMARK  status: ('A' for Active; 'I' for Inactive)
REMARK    1  A    between atoms: C6_8  and  N3_9 
REMARK    2  A    between atoms: N3_9  and  C7_10 
REMARK    3  A    between atoms: C15_20  and  O1_21 
REMARK    4  A    between atoms: O1_21  and  C16_22 
REMARK    5  A    between atoms: C16_22  and  C17_23 
REMARK    6  A    between atoms: C17_23  and  C18_24 
REMARK    7  A    between atoms: C21_29  and  O3_30 
ROOT
HETATM    1  C1  UNL     1      21.506  -1.262  53.514  1.00  0.00     0.051 C 
HETATM    2  C2  UNL     1      22.142  -0.195  52.700  1.00  0.00    -0.026 A 
HETATM    3  C3  UNL     1      21.468   0.255  51.594  1.00  0.00     0.042 A 
HETATM    4  C4  UNL     1      22.036   1.243  50.830  1.00  0.00     0.072 A 
HETATM    5  N1  UNL     1      21.387   1.702  49.737  1.00  0.00    -0.241 NA
HETATM    6  C5  UNL     1      21.918   2.675  48.967  1.00  0.00     0.236 A 
HETATM    7  N2  UNL     1      23.112   3.225  49.254  1.00  0.00    -0.224 NA
HETATM    8  C6  UNL     1      23.830   2.828  50.325  1.00  0.00     0.142 A 
HETATM    9  C13 UNL     1      23.282   1.837  51.101  1.00  0.00     0.041 A 
HETATM   10  C14 UNL     1      23.857   1.302  52.233  1.00  0.00     0.055 A 
HETATM   11  C15 UNL     1      23.377   0.317  53.066  1.00  0.00     0.075 A 
ENDROOT
BRANCH  11  12
HETATM   12  O1  UNL     1      24.022  -0.100  54.103  1.00  0.00    -0.350 OA
BRANCH  12  13
HETATM   13  C16 UNL     1      24.838  -0.788  54.861  1.00  0.00     0.178 C 
BRANCH  13  14
HETATM   14  C17 UNL     1      26.301  -0.850  54.472  1.00  0.00     0.056 C 
BRANCH  14  15
HETATM   15  C18 UNL     1      27.103   0.358  54.822  1.00  0.00     0.133 C 
HETATM   16  N4  UNL     1      26.635   1.553  54.207  1.00  0.00    -0.410 N 
HETATM   17  C19 UNL     1      27.558   2.284  53.407  1.00  0.00     0.140 C 
HETATM   18  H16 UNL     1      25.701   1.511  53.771  1.00  0.00     0.153 HD
HETATM   19  C20 UNL     1      28.958   2.271  53.943  1.00  0.00     0.190 C 
HETATM   20  O2  UNL     1      29.134   1.446  55.046  1.00  0.00    -0.358 OA
HETATM   21  C21 UNL     1      28.570   0.204  54.668  1.00  0.00     0.279 C 
BRANCH  21  22
HETATM   22  O3  UNL     1      29.009  -0.065  53.395  1.00  0.00    -0.369 OA
HETATM   23  H22 UNL     1      29.654  -0.799  53.421  1.00  0.00     0.212 HD
ENDBRANCH  21  22
ENDBRANCH  14  15
ENDBRANCH  13  14
ENDBRANCH  12  13
ENDBRANCH  11  12
BRANCH   8  24
HETATM   24  N3  UNL     1      25.087   3.277  50.814  1.00  0.00    -0.340 N 
HETATM   25  H6  UNL     1      25.569   2.924  51.678  1.00  0.00     0.167 HD
BRANCH  24  26
HETATM   26  C7  UNL     1      25.766   4.290  50.075  1.00  0.00     0.035 A 
HETATM   27  C8  UNL     1      26.888   3.884  49.343  1.00  0.00     0.032 A 
HETATM   28  C9  UNL     1      27.582   4.844  48.600  1.00  0.00     0.046 A 
HETATM   29  C10 UNL     1      27.183   6.171  48.578  1.00  0.00     0.138 A 
HETATM   30  F1  UNL     1      27.919   7.028  47.827  1.00  0.00    -0.204 F 
HETATM   31  C11 UNL     1      26.078   6.500  49.317  1.00  0.00     0.074 A 
HETATM   32 CL1  UNL     1      25.586   8.180  49.272  1.00  0.00    -0.081 Cl
HETATM   33  C12 UNL     1      25.346   5.609  50.070  1.00  0.00     0.056 A 
ENDBRANCH  24  26
ENDBRANCH   8  24
TORSDOF 7
ENDMDL
MODEL 3
REMARK VINA RESULT:      -8.7      3.797      6.582
REMARK  7 active torsions:
REMARK  status: ('A' for Active; 'I' for Inactive)
REMARK    1  A    between atoms: C6_8  and  N3_9 
REMARK    2  A    between atoms: N3_9  and  C7_10 
REMARK    3  A    between atoms: C15_20  and  O1_21 
REMARK    4  A    between atoms: O1_21  and  C16_22 
REMARK    5  A    between atoms: C16_22  and  C17_23 
REMARK    6  A    between atoms: C17_23  and  C18_24 
REMARK    7  A    between atoms: C21_29  and  O3_30 
ROOT
HETATM    1  C1  UNL     1      21.912  -0.773  54.877  1.00  0.00     0.051 C 
HETATM    2  C2  UNL     1      21.919   0.233  53.785  1.00  0.00    -0.026 A 
HETATM    3  C3  UNL     1      20.810   1.027  53.637  1.00  0.00     0.042 A 
HETATM    4  C4  UNL     1      20.796   1.965  52.636  1.00  0.00     0.072 A 
HETATM    5  N1  UNL     1      19.714   2.757  52.475  1.00  0.00    -0.241 NA
HETATM    6  C5  UNL     1      19.672   3.692  51.502  1.00  0.00     0.236 A 
HETATM    7  N2  UNL     1      20.701   3.871  50.654  1.00  0.00    -0.224 NA
HETATM    8  C6  UNL     1      21.821   3.123  50.741  1.00  0.00     0.142 A 
HETATM    9  C13 UNL     1      21.854   2.175  51.733  1.00  0.00     0.041 A 
HETATM   10  C14 UNL     1      22.906   1.321  51.984  1.00  0.00     0.055 A 
HETATM   11  C15 UNL     1      23.023   0.352  52.955  1.00  0.00     0.075 A 
ENDROOT
BRANCH  11  12
HETATM   12  O1  UNL     1      24.071  -0.390  53.082  1.00  0.00    -0.350 OA
BRANCH  12  13
HETATM   13  C16 UNL     1      25.313  -0.758  53.271  1.00  0.00     0.178 C 
BRANCH  13  14
HETATM   14  C17 UNL     1      25.895  -0.637  54.665  1.00  0.00     0.056 C 
BRANCH  14  15
HETATM   15  C18 UNL     1      26.806   0.525  54.873  1.00  0.00     0.133 C 
HETATM   16  N4  UNL     1      26.471   1.663  54.086  1.00  0.00    -0.410 N 
HETATM   17  C19 UNL     1      27.478   2.183  53.224  1.00  0.00     0.140 C 
HETATM   18  H16 UNL     1      25.547   1.650  53.629  1.00  0.00     0.153 HD
HETATM   19  C20 UNL     1      28.859   2.110  53.802  1.00  0.00     0.190 C 
HETATM   20  O2  UNL     1      28.931   1.434  55.012  1.00  0.00    -0.358 OA
HETATM   21  C21 UNL     1      28.254   0.211  54.789  1.00  0.00     0.279 C 
BRANCH  21  22
HETATM   22  O3  UNL     1      28.687  -0.273  53.579  1.00  0.00    -0.369 OA
HETATM   23  H22 UNL     1      29.184   0.427  53.109  1.00  0.00     0.212 HD
ENDBRANCH  21  22
ENDBRANCH  14  15
ENDBRANCH  13  14
ENDBRANCH  12  13
ENDBRANCH  11  12
BRANCH   8  24
HETATM   24  N3  UNL     1      23.016   3.155  49.971  1.00  0.00    -0.340 N 
HETATM   25  H6  UNL     1      23.348   2.395  49.325  1.00  0.00     0.167 HD
BRANCH  24  26
HETATM   26  C7  UNL     1      23.841   4.313  50.069  1.00  0.00     0.035 A 
HETATM   27  C8  UNL     1      23.461   5.275  51.012  1.00  0.00     0.032 A 
HETATM   28  C9  UNL     1      24.244   6.426  51.144  1.00  0.00     0.046 A 
HETATM   29  C10 UNL     1      25.374   6.626  50.367  1.00  0.00     0.138 A 
HETATM   30  F1  UNL     1      26.070   7.773  50.569  1.00  0.00    -0.204 F 
HETATM   31  C11 UNL     1      25.690   5.647  49.464  1.00  0.00     0.074 A 
HETATM   32 CL1  UNL     1      27.123   5.915  48.496  1.00  0.00    -0.081 Cl
HETATM   33  C12 UNL     1      24.966   4.489  49.280  1.00  0.00     0.056 A 
ENDBRANCH  24  26
ENDBRANCH   8  24
TORSDOF 7
ENDMDL
MODEL 4
REMARK VINA RESULT:      -8.4      4.289      5.512
REMARK  7 active torsions:
REMARK  status: ('A' for Active; 'I' for Inactive)
REMARK    1  A    between atoms: C6_8  and  N3_9 
REMARK    2  A    between atoms: N3_9  and  C7_10 
REMARK    3  A    between atoms: C15_20  and  O1_21 
REMARK    4  A    between atoms: O1_21  and  C16_22 
REMARK    5  A    between atoms: C16_22  and  C17_23 
REMARK    6  A    between atoms: C17_23  and  C18_24 
REMARK    7  A    between atoms: C21_29  and  O3_30 
ROOT
HETATM    1  C1  UNL     1      22.970   4.282  48.068  1.00  0.00     0.051 C 
HETATM    2  C2  UNL     1      23.499   3.642  49.300  1.00  0.00    -0.026 A 
HETATM    3  C3  UNL     1      22.737   2.670  49.896  1.00  0.00     0.042 A 
HETATM    4  C4  UNL     1      23.208   2.065  51.033  1.00  0.00     0.072 A 
HETATM    5  N1  UNL     1      22.473   1.104  51.634  1.00  0.00    -0.241 NA
HETATM    6  C5  UNL     1      22.911   0.487  52.752  1.00  0.00     0.236 A 
HETATM    7  N2  UNL     1      24.093   0.803  53.312  1.00  0.00    -0.224 NA
HETATM    8  C6  UNL     1      24.892   1.751  52.780  1.00  0.00     0.142 A 
HETATM    9  C13 UNL     1      24.437   2.373  51.644  1.00  0.00     0.041 A 
HETATM   10  C14 UNL     1      25.107   3.360  50.953  1.00  0.00     0.055 A 
HETATM   11  C15 UNL     1      24.728   4.028  49.811  1.00  0.00     0.075 A 
ENDROOT
BRANCH  11  12
HETATM   12  O1  UNL     1      25.454   4.943  49.261  1.00  0.00    -0.350 OA
BRANCH  12  13
HETATM   13  C16 UNL     1      26.332   5.901  49.105  1.00  0.00     0.178 C 
BRANCH  13  14
HETATM   14  C17 UNL     1      26.092   7.219  49.812  1.00  0.00     0.056 C 
BRANCH  14  15
HETATM   15  C18 UNL     1      26.747   8.403  49.185  1.00  0.00     0.133 C 
HETATM   16  N4  UNL     1      27.993   8.106  48.563  1.00  0.00    -0.410 N 
HETATM   17  C19 UNL     1      29.134   8.838  48.998  1.00  0.00     0.140 C 
HETATM   18  H16 UNL     1      28.210   7.107  48.424  1.00  0.00     0.153 HD
HETATM   19  C20 UNL     1      28.838  10.270  49.329  1.00  0.00     0.190 C 
HETATM   20  O2  UNL     1      27.489  10.595  49.281  1.00  0.00    -0.358 OA
HETATM   21  C21 UNL     1      26.845   9.601  50.056  1.00  0.00     0.279 C 
BRANCH  21  22
HETATM   22  O3  UNL     1      27.585   9.443  51.202  1.00  0.00    -0.369 OA
HETATM   23  H22 UNL     1      28.208  10.192  51.291  1.00  0.00     0.212 HD
ENDBRANCH  21  22
ENDBRANCH  14  15
ENDBRANCH  13  14
ENDBRANCH  12  13
ENDBRANCH  11  12
BRANCH   8  24
HETATM   24  N3  UNL     1      26.167   2.224  53.193  1.00  0.00    -0.340 N 
HETATM   25  H6  UNL     1      26.409   3.224  53.408  1.00  0.00     0.167 HD
BRANCH  24  26
HETATM   26  C7  UNL     1      27.217   1.271  53.338  1.00  0.00     0.035 A 
HETATM   27  C8  UNL     1      28.429   1.747  53.851  1.00  0.00     0.032 A 
HETATM   28  C9  UNL     1      29.485   0.845  54.013  1.00  0.00     0.046 A 
HETATM   29  C10 UNL     1      29.353  -0.493  53.679  1.00  0.00     0.138 A 
HETATM   30  F1  UNL     1      30.433  -1.291  53.873  1.00  0.00    -0.204 F 
HETATM   31  C11 UNL     1      28.142  -0.893  53.181  1.00  0.00     0.074 A 
HETATM   32 CL1  UNL     1      27.992  -2.588  52.768  1.00  0.00    -0.081 Cl
HETATM   33  C12 UNL     1      27.058  -0.062  52.995  1.00  0.00     0.056 A 
ENDBRANCH  24  26
ENDBRANCH   8  24
TORSDOF 7
ENDMDL
MODEL 5
REMARK VINA RESULT:      -8.3      1.553      2.060
REMARK  7 active torsions:
REMARK  status: ('A' for Active; 'I' for Inactive)
REMARK    1  A    between atoms: C6_8  and  N3_9 
REMARK    2  A    between atoms: N3_9  and  C7_10 
REMARK    3  A    between atoms: C15_20  and  O1_21 
REMARK    4  A    between atoms: O1_21  and  C16_22 
REMARK    5  A    between atoms: C16_22  and  C17_23 
REMARK    6  A    between atoms: C17_23  and  C18_24 
REMARK    7  A    between atoms: C21_29  and  O3_30 
ROOT
HETATM    1  C1  UNL     1      18.510  -0.310  52.464  1.00  0.00     0.051 C 
HETATM    2  C2  UNL     1      19.965  -0.324  52.758  1.00  0.00    -0.026 A 
HETATM    3  C3  UNL     1      20.378  -0.914  53.925  1.00  0.00     0.042 A 
HETATM    4  C4  UNL     1      21.718  -0.941  54.215  1.00  0.00     0.072 A 
HETATM    5  N1  UNL     1      22.146  -1.520  55.359  1.00  0.00    -0.241 NA
HETATM    6  C5  UNL     1      23.458  -1.565  55.670  1.00  0.00     0.236 A 
HETATM    7  N2  UNL     1      24.392  -1.036  54.858  1.00  0.00    -0.224 NA
HETATM    8  C6  UNL     1      24.056  -0.438  53.696  1.00  0.00     0.142 A 
HETATM    9  C13 UNL     1      22.719  -0.396  53.389  1.00  0.00     0.041 A 
HETATM   10  C14 UNL     1      22.180   0.165  52.252  1.00  0.00     0.055 A 
HETATM   11  C15 UNL     1      20.861   0.244  51.866  1.00  0.00     0.075 A 
ENDROOT
BRANCH  11  12
HETATM   12  O1  UNL     1      20.485   0.805  50.766  1.00  0.00    -0.350 OA
BRANCH  12  13
HETATM   13  C16 UNL     1      20.469   1.193  49.516  1.00  0.00     0.178 C 
BRANCH  13  14
HETATM   14  C17 UNL     1      21.792   1.375  48.801  1.00  0.00     0.056 C 
BRANCH  14  15
HETATM   15  C18 UNL     1      22.492   2.662  49.078  1.00  0.00     0.133 C 
HETATM   16  N4  UNL     1      22.043   3.314  50.260  1.00  0.00    -0.410 N 
HETATM   17  C19 UNL     1      21.560   4.647  50.130  1.00  0.00     0.140 C 
HETATM   18  H16 UNL     1      21.456   2.757  50.899  1.00  0.00     0.153 HD
HETATM   19  C20 UNL     1      22.311   5.462  49.120  1.00  0.00     0.190 C 
HETATM   20  O2  UNL     1      23.253   4.740  48.399  1.00  0.00    -0.358 OA
HETATM   21  C21 UNL     1      22.560   3.599  47.930  1.00  0.00     0.279 C 
BRANCH  21  22
HETATM   22  O3  UNL     1      21.351   4.036  47.447  1.00  0.00    -0.369 OA
HETATM   23  H22 UNL     1      21.498   4.589  46.654  1.00  0.00     0.212 HD
ENDBRANCH  21  22
ENDBRANCH  14  15
ENDBRANCH  13  14
ENDBRANCH  12  13
ENDBRANCH  11  12
BRANCH   8  24
HETATM   24  N3  UNL     1      24.869   0.163  52.697  1.00  0.00    -0.340 N 
HETATM   25  H6  UNL     1      24.593   0.318  51.695  1.00  0.00     0.167 HD
BRANCH  24  26
HETATM   26  C7  UNL     1      26.171   0.605  53.074  1.00  0.00     0.035 A 
HETATM   27  C8  UNL     1      26.286   1.939  53.481  1.00  0.00     0.032 A 
HETATM   28  C9  UNL     1      27.544   2.414  53.863  1.00  0.00     0.046 A 
HETATM   29  C10 UNL     1      28.663   1.596  53.846  1.00  0.00     0.138 A 
HETATM   30  F1  UNL     1      29.840   2.147  54.235  1.00  0.00    -0.204 F 
HETATM   31  C11 UNL     1      28.481   0.302  53.437  1.00  0.00     0.074 A 
HETATM   32 CL1  UNL     1      29.905  -0.717  53.426  1.00  0.00    -0.081 Cl
HETATM   33  C12 UNL     1      27.273  -0.234  53.047  1.00  0.00     0.056 A 
ENDBRANCH  24  26
ENDBRANCH   8  24
TORSDOF 7
ENDMDL
MODEL 6
REMARK VINA RESULT:      -8.3      2.844      3.970
REMARK  7 active torsions:
REMARK  status: ('A' for Active; 'I' for Inactive)
REMARK    1  A    between atoms: C6_8  and  N3_9 
REMARK    2  A    between atoms: N3_9  and  C7_10 
REMARK    3  A    between atoms: C15_20  and  O1_21 
REMARK    4  A    between atoms: O1_21  and  C16_22 
REMARK    5  A    between atoms: C16_22  and  C17_23 
REMARK    6  A    between atoms: C17_23  and  C18_24 
REMARK    7  A    between atoms: C21_29  and  O3_30 
ROOT
HETATM    1  C1  UNL     1      22.937   3.370  48.073  1.00  0.00     0.051 C 
HETATM    2  C2  UNL     1      23.264   2.741  49.378  1.00  0.00    -0.026 A 
HETATM    3  C3  UNL     1      22.321   1.928  49.953  1.00  0.00     0.042 A 
HETATM    4  C4  UNL     1      22.603   1.335  51.157  1.00  0.00     0.072 A 
HETATM    5  N1  UNL     1      21.688   0.529  51.738  1.00  0.00    -0.241 NA
HETATM    6  C5  UNL     1      21.938  -0.071  52.921  1.00  0.00     0.236 A 
HETATM    7  N2  UNL     1      23.104   0.108  53.567  1.00  0.00    -0.224 NA
HETATM    8  C6  UNL     1      24.075   0.896  53.061  1.00  0.00     0.142 A 
HETATM    9  C13 UNL     1      23.811   1.503  51.859  1.00  0.00     0.041 A 
HETATM   10  C14 UNL     1      24.673   2.337  51.181  1.00  0.00     0.055 A 
HETATM   11  C15 UNL     1      24.491   2.979  49.977  1.00  0.00     0.075 A 
ENDROOT
BRANCH  11  12
HETATM   12  O1  UNL     1      25.387   3.743  49.448  1.00  0.00    -0.350 OA
BRANCH  12  13
HETATM   13  C16 UNL     1      26.482   4.442  49.288  1.00  0.00     0.178 C 
BRANCH  13  14
HETATM   14  C17 UNL     1      26.374   5.816  48.658  1.00  0.00     0.056 C 
BRANCH  14  15
HETATM   15  C18 UNL     1      25.742   6.859  49.516  1.00  0.00     0.133 C 
HETATM   16  N4  UNL     1      25.399   6.399  50.818  1.00  0.00    -0.410 N 
HETATM   17  C19 UNL     1      24.041   6.529  51.224  1.00  0.00     0.140 C 
HETATM   18  H16 UNL     1      25.798   5.492  51.106  1.00  0.00     0.153 HD
HETATM   19  C20 UNL     1      23.383   7.781  50.725  1.00  0.00     0.190 C 
HETATM   20  O2  UNL     1      24.168   8.524  49.853  1.00  0.00    -0.358 OA
HETATM   21  C21 UNL     1      24.618   7.595  48.884  1.00  0.00     0.279 C 
BRANCH  21  22
HETATM   22  O3  UNL     1      23.535   6.831  48.527  1.00  0.00    -0.369 OA
HETATM   23  H22 UNL     1      22.834   7.410  48.167  1.00  0.00     0.212 HD
ENDBRANCH  21  22
ENDBRANCH  14  15
ENDBRANCH  13  14
ENDBRANCH  12  13
ENDBRANCH  11  12
BRANCH   8  24
HETATM   24  N3  UNL     1      25.369   1.207  53.562  1.00  0.00    -0.340 N 
HETATM   25  H6  UNL     1      25.636   2.095  54.057  1.00  0.00     0.167 HD
BRANCH  24  26
HETATM   26  C7  UNL     1      26.400   0.239  53.390  1.00  0.00     0.035 A 
HETATM   27  C8  UNL     1      26.000  -1.034  52.966  1.00  0.00     0.032 A 
HETATM   28  C9  UNL     1      26.980  -2.015  52.781  1.00  0.00     0.046 A 
HETATM   29  C10 UNL     1      28.321  -1.750  53.008  1.00  0.00     0.138 A 
HETATM   30  F1  UNL     1      29.197  -2.765  52.800  1.00  0.00    -0.204 F 
HETATM   31  C11 UNL     1      28.644  -0.486  53.421  1.00  0.00     0.074 A 
HETATM   32 CL1  UNL     1      30.344  -0.169  53.698  1.00  0.00    -0.081 Cl
HETATM   33  C12 UNL     1      27.734   0.529  53.624  1.00  0.00     0.056 A 
ENDBRANCH  24  26
ENDBRANCH   8  24
TORSDOF 7
ENDMDL
MODEL 7
REMARK VINA RESULT:      -8.1      3.875      6.764
REMARK  7 active torsions:
REMARK  status: ('A' for Active; 'I' for Inactive)
REMARK    1  A    between atoms: C6_8  and  N3_9 
REMARK    2  A    between atoms: N3_9  and  C7_10 
REMARK    3  A    between atoms: C15_20  and  O1_21 
REMARK    4  A    between atoms: O1_21  and  C16_22 
REMARK    5  A    between atoms: C16_22  and  C17_23 
REMARK    6  A    between atoms: C17_23  and  C18_24 
REMARK    7  A    between atoms: C21_29  and  O3_30 
ROOT
HETATM    1  C1  UNL     1      21.453  -0.909  54.944  1.00  0.00     0.051 C 
HETATM    2  C2  UNL     1      21.268  -0.377  53.570  1.00  0.00    -0.026 A 
HETATM    3  C3  UNL     1      19.998  -0.036  53.181  1.00  0.00     0.042 A 
HETATM    4  C4  UNL     1      19.804   0.461  51.918  1.00  0.00     0.072 A 
HETATM    5  N1  UNL     1      18.561   0.805  51.516  1.00  0.00    -0.241 NA
HETATM    6  C5  UNL     1      18.339   1.299  50.279  1.00  0.00     0.236 A 
HETATM    7  N2  UNL     1      19.342   1.468  49.399  1.00  0.00    -0.224 NA
HETATM    8  C6  UNL     1      20.615   1.149  49.714  1.00  0.00     0.142 A 
HETATM    9  C13 UNL     1      20.830   0.647  50.973  1.00  0.00     0.041 A 
HETATM   10  C14 UNL     1      22.054   0.269  51.481  1.00  0.00     0.055 A 
HETATM   11  C15 UNL     1      22.357  -0.236  52.726  1.00  0.00     0.075 A 
ENDROOT
BRANCH  11  12
HETATM   12  O1  UNL     1      23.557  -0.556  53.078  1.00  0.00    -0.350 OA
BRANCH  12  13
HETATM   13  C16 UNL     1      24.826  -0.460  53.385  1.00  0.00     0.178 C 
BRANCH  13  14
HETATM   14  C17 UNL     1      25.534   0.853  53.116  1.00  0.00     0.056 C 
BRANCH  14  15
HETATM   15  C18 UNL     1      26.624   1.194  54.074  1.00  0.00     0.133 C 
HETATM   16  N4  UNL     1      27.230   2.458  53.826  1.00  0.00    -0.410 N 
HETATM   17  C19 UNL     1      28.638   2.479  53.616  1.00  0.00     0.140 C 
HETATM   18  H16 UNL     1      26.737   3.083  53.171  1.00  0.00     0.153 HD
HETATM   19  C20 UNL     1      29.386   1.496  54.465  1.00  0.00     0.190 C 
HETATM   20  O2  UNL     1      28.570   0.651  55.205  1.00  0.00    -0.358 OA
HETATM   21  C21 UNL     1      27.640   0.131  54.273  1.00  0.00     0.279 C 
BRANCH  21  22
HETATM   22  O3  UNL     1      28.352  -0.227  53.154  1.00  0.00    -0.369 OA
HETATM   23  H22 UNL     1      28.937  -0.980  53.368  1.00  0.00     0.212 HD
ENDBRANCH  21  22
ENDBRANCH  14  15
ENDBRANCH  13  14
ENDBRANCH  12  13
ENDBRANCH  11  12
BRANCH   8  24
HETATM   24  N3  UNL     1      21.811   1.259  48.954  1.00  0.00    -0.340 N 
HETATM   25  H6  UNL     1      22.342   0.458  48.530  1.00  0.00     0.167 HD
BRANCH  24  26
HETATM   26  C7  UNL     1      22.344   2.563  48.735  1.00  0.00     0.035 A 
HETATM   27  C8  UNL     1      21.803   3.289  47.666  1.00  0.00     0.032 A 
HETATM   28  C9  UNL     1      22.294   4.574  47.417  1.00  0.00     0.046 A 
HETATM   29  C10 UNL     1      23.292   5.133  48.199  1.00  0.00     0.138 A 
HETATM   30  F1  UNL     1      23.702   6.386  47.881  1.00  0.00    -0.204 F 
HETATM   31  C11 UNL     1      23.777   4.369  49.227  1.00  0.00     0.074 A 
HETATM   32 CL1  UNL     1      25.035   5.093  50.207  1.00  0.00    -0.081 Cl
HETATM   33  C12 UNL     1      23.342   3.098  49.532  1.00  0.00     0.056 A 
ENDBRANCH  24  26
ENDBRANCH   8  24
TORSDOF 7
ENDMDL
MODEL 8
REMARK VINA RESULT:      -8.0      6.649      9.209
REMARK  7 active torsions:
REMARK  status: ('A' for Active; 'I' for Inactive)
REMARK    1  A    between atoms: C6_8  and  N3_9 
REMARK    2  A    between atoms: N3_9  and  C7_10 
REMARK    3  A    between atoms: C15_20  and  O1_21 
REMARK    4  A    between atoms: O1_21  and  C16_22 
REMARK    5  A    between atoms: C16_22  and  C17_23 
REMARK    6  A    between atoms: C17_23  and  C18_24 
REMARK    7  A    between atoms: C21_29  and  O3_30 
ROOT
HETATM    1  C1  UNL     1      28.022   7.928  47.287  1.00  0.00     0.051 C 
HETATM    2  C2  UNL     1      27.389   6.780  47.985  1.00  0.00    -0.026 A 
HETATM    3  C3  UNL     1      26.048   6.860  48.266  1.00  0.00     0.042 A 
HETATM    4  C4  UNL     1      25.443   5.810  48.907  1.00  0.00     0.072 A 
HETATM    5  N1  UNL     1      24.123   5.869  49.191  1.00  0.00    -0.241 NA
HETATM    6  C5  UNL     1      23.498   4.851  49.819  1.00  0.00     0.236 A 
HETATM    7  N2  UNL     1      24.161   3.740  50.187  1.00  0.00    -0.224 NA
HETATM    8  C6  UNL     1      25.480   3.595  49.945  1.00  0.00     0.142 A 
HETATM    9  C13 UNL     1      26.107   4.637  49.308  1.00  0.00     0.041 A 
HETATM   10  C14 UNL     1      27.443   4.676  48.970  1.00  0.00     0.055 A 
HETATM   11  C15 UNL     1      28.146   5.671  48.330  1.00  0.00     0.075 A 
ENDROOT
BRANCH  11  12
HETATM   12  O1  UNL     1      29.408   5.584  48.074  1.00  0.00    -0.350 OA
BRANCH  12  13
HETATM   13  C16 UNL     1      30.701   5.476  48.242  1.00  0.00     0.178 C 
BRANCH  13  14
HETATM   14  C17 UNL     1      31.614   5.993  47.148  1.00  0.00     0.056 C 
BRANCH  14  15
HETATM   15  C18 UNL     1      32.745   5.090  46.787  1.00  0.00     0.133 C 
HETATM   16  N4  UNL     1      32.414   3.707  46.842  1.00  0.00    -0.410 N 
HETATM   17  C19 UNL     1      33.206   2.876  47.684  1.00  0.00     0.140 C 
HETATM   18  H16 UNL     1      31.411   3.477  46.913  1.00  0.00     0.153 HD
HETATM   19  C20 UNL     1      34.657   3.253  47.704  1.00  0.00     0.190 C 
HETATM   20  O2  UNL     1      34.950   4.418  47.008  1.00  0.00    -0.358 OA
HETATM   21  C21 UNL     1      34.022   5.373  47.487  1.00  0.00     0.279 C 
BRANCH  21  22
HETATM   22  O3  UNL     1      33.990   5.250  48.855  1.00  0.00    -0.369 OA
HETATM   23  H22 UNL     1      34.284   4.352  49.107  1.00  0.00     0.212 HD
ENDBRANCH  21  22
ENDBRANCH  14  15
ENDBRANCH  13  14
ENDBRANCH  12  13
ENDBRANCH  11  12
BRANCH   8  24
HETATM   24  N3  UNL     1      26.360   2.516  50.231  1.00  0.00    -0.340 N 
HETATM   25  H6  UNL     1      27.047   2.091  49.558  1.00  0.00     0.167 HD
BRANCH  24  26
HETATM   26  C7  UNL     1      26.323   1.955  51.541  1.00  0.00     0.035 A 
HETATM   27  C8  UNL     1      27.360   2.321  52.408  1.00  0.00     0.032 A 
HETATM   28  C9  UNL     1      27.361   1.797  53.704  1.00  0.00     0.046 A 
HETATM   29  C10 UNL     1      26.368   0.934  54.138  1.00  0.00     0.138 A 
HETATM   30  F1  UNL     1      26.454   0.480  55.414  1.00  0.00    -0.204 F 
HETATM   31  C11 UNL     1      25.384   0.617  53.240  1.00  0.00     0.074 A 
HETATM   32 CL1  UNL     1      24.134  -0.470  53.808  1.00  0.00    -0.081 Cl
HETATM   33  C12 UNL     1      25.318   1.095  51.950  1.00  0.00     0.056 A 
ENDBRANCH  24  26
ENDBRANCH   8  24
TORSDOF 7
ENDMDL
MODEL 9
REMARK VINA RESULT:      -8.0      5.405      7.535
REMARK  7 active torsions:
REMARK  status: ('A' for Active; 'I' for Inactive)
REMARK    1  A    between atoms: C6_8  and  N3_9 
REMARK    2  A    between atoms: N3_9  and  C7_10 
REMARK    3  A    between atoms: C15_20  and  O1_21 
REMARK    4  A    between atoms: O1_21  and  C16_22 
REMARK    5  A    between atoms: C16_22  and  C17_23 
REMARK    6  A    between atoms: C17_23  and  C18_24 
REMARK    7  A    between atoms: C21_29  and  O3_30 
ROOT
HETATM    1  C1  UNL     1      25.626   8.124  49.125  1.00  0.00     0.051 C 
HETATM    2  C2  UNL     1      25.406   6.762  49.674  1.00  0.00    -0.026 A 
HETATM    3  C3  UNL     1      24.335   6.573  50.511  1.00  0.00     0.042 A 
HETATM    4  C4  UNL     1      24.112   5.323  51.027  1.00  0.00     0.072 A 
HETATM    5  N1  UNL     1      23.061   5.116  51.852  1.00  0.00    -0.241 NA
HETATM    6  C5  UNL     1      22.813   3.896  52.373  1.00  0.00     0.236 A 
HETATM    7  N2  UNL     1      23.599   2.840  52.095  1.00  0.00    -0.224 NA
HETATM    8  C6  UNL     1      24.670   2.955  51.283  1.00  0.00     0.142 A 
HETATM    9  C13 UNL     1      24.915   4.199  50.758  1.00  0.00     0.041 A 
HETATM   10  C14 UNL     1      25.952   4.516  49.909  1.00  0.00     0.055 A 
HETATM   11  C15 UNL     1      26.265   5.728  49.337  1.00  0.00     0.075 A 
ENDROOT
BRANCH  11  12
HETATM   12  O1  UNL     1      27.277   5.893  48.553  1.00  0.00    -0.350 OA
BRANCH  12  13
HETATM   13  C16 UNL     1      28.440   6.282  48.096  1.00  0.00     0.178 C 
BRANCH  13  14
HETATM   14  C17 UNL     1      29.577   5.282  48.077  1.00  0.00     0.056 C 
BRANCH  14  15
HETATM   15  C18 UNL     1      30.941   5.873  47.960  1.00  0.00     0.133 C 
HETATM   16  N4  UNL     1      31.881   5.022  47.313  1.00  0.00    -0.410 N 
HETATM   17  C19 UNL     1      33.068   4.694  48.026  1.00  0.00     0.140 C 
HETATM   18  H16 UNL     1      31.495   4.204  46.817  1.00  0.00     0.153 HD
HETATM   19  C20 UNL     1      33.599   5.823  48.858  1.00  0.00     0.190 C 
HETATM   20  O2  UNL     1      32.774   6.939  48.891  1.00  0.00    -0.358 OA
HETATM   21  C21 UNL     1      31.491   6.436  49.218  1.00  0.00     0.279 C 
BRANCH  21  22
HETATM   22  O3  UNL     1      31.661   5.541  50.245  1.00  0.00    -0.369 OA
HETATM   23  H22 UNL     1      32.420   5.819  50.795  1.00  0.00     0.212 HD
ENDBRANCH  21  22
ENDBRANCH  14  15
ENDBRANCH  13  14
ENDBRANCH  12  13
ENDBRANCH  11  12
BRANCH   8  24
HETATM   24  N3  UNL     1      25.611   1.981  50.850  1.00  0.00    -0.340 N 
HETATM   25  H6  UNL     1      25.742   1.653  49.860  1.00  0.00     0.167 HD
BRANCH  24  26
HETATM   26  C7  UNL     1      26.462   1.394  51.832  1.00  0.00     0.035 A 
HETATM   27  C8  UNL     1      26.267   0.033  52.096  1.00  0.00     0.032 A 
HETATM   28  C9  UNL     1      27.082  -0.584  53.050  1.00  0.00     0.046 A 
HETATM   29  C10 UNL     1      28.065   0.119  53.727  1.00  0.00     0.138 A 
HETATM   30  F1  UNL     1      28.807  -0.567  54.633  1.00  0.00    -0.204 F 
HETATM   31  C11 UNL     1      28.203   1.447  53.421  1.00  0.00     0.074 A 
HETATM   32 CL1  UNL     1      29.453   2.318  54.283  1.00  0.00    -0.081 Cl
HETATM   33  C12 UNL     1      27.437   2.120  52.495  1.00  0.00     0.056 A 
ENDBRANCH  24  26
ENDBRANCH   8  24
TORSDOF 7
ENDMDL
