MODEL 1
REMARK VINA RESULT:      -7.5      0.000      0.000
REMARK  4 active torsions:
REMARK  status: ('A' for Active; 'I' for Inactive)
REMARK       I    between atoms: N1_2  and  C2_3 
REMARK       I    between atoms: C2_3  and  N2_5 
REMARK    1  A    between atoms: C4_7  and  C5_8 
REMARK    2  A    between atoms: C5_8  and  O2_9 
REMARK    3  A    between atoms: O2_9  and  C6_10 
REMARK    4  A    between atoms: C13_21  and  O3_22 
ROOT
HETATM    1  C5  UNL     1      22.959   1.597  52.365  1.00  0.00     0.186 C 
ENDROOT
BRANCH   1   2
HETATM    2  C4  UNL     1      21.605   0.970  52.087  1.00  0.00     0.059 C 
HETATM    3  C3  UNL     1      20.591   2.060  52.378  1.00  0.00     0.137 C 
HETATM    4  N2  UNL     1      19.576   1.892  51.330  1.00  0.00    -0.331 N 
HETATM    5  C2  UNL     1      18.488   2.805  51.324  1.00  0.00     0.318 C 
HETATM    6  C15 UNL     1      19.886   0.783  50.465  1.00  0.00     0.160 C 
HETATM    7  N1  UNL     1      17.424   2.764  50.365  1.00  0.00    -0.347 N 
HETATM    8  O1  UNL     1      18.460   3.697  52.210  1.00  0.00    -0.247 OA
HETATM    9  C1  UNL     1      16.364   3.777  50.487  1.00  0.00     0.151 C 
HETATM   10  H4  UNL     1      17.453   2.017  49.628  1.00  0.00     0.163 HD
HETATM   11  C13 UNL     1      21.381   0.618  50.656  1.00  0.00     0.146 C 
BRANCH  11  12
HETATM   12  O3  UNL     1      22.118   1.338  49.757  1.00  0.00    -0.389 OA
HETATM   13  C14 UNL     1      21.715   1.308  48.452  1.00  0.00     0.202 C 
ENDBRANCH  11  12
ENDBRANCH   1   2
BRANCH   1  14
HETATM   14  O2  UNL     1      23.891   0.568  52.488  1.00  0.00    -0.337 OA
BRANCH  14  15
HETATM   15  C6  UNL     1      25.149   0.747  53.052  1.00  0.00     0.143 C 
HETATM   16  N3  UNL     1      25.866   1.533  52.329  1.00  0.00    -0.199 NA
HETATM   17  C7  UNL     1      27.164   1.982  52.507  1.00  0.00     0.222 C 
HETATM   18 CL1  UNL     1      26.821   2.745  50.947  1.00  0.00    -0.041 Cl
HETATM   19  N4  UNL     1      28.338   2.234  52.934  1.00  0.00    -0.230 NA
HETATM   20  C8  UNL     1      28.973   1.811  54.126  1.00  0.00     0.423 C 
HETATM   21  N5  UNL     1      29.037   0.363  54.334  1.00  0.00     0.103 N 
HETATM   22  C9  UNL     1      29.990  -0.226  53.392  1.00  0.00     0.312 C 
HETATM   23  C10 UNL     1      27.727  -0.202  54.003  1.00  0.00     0.274 C 
HETATM   24  C11 UNL     1      26.667   0.258  54.929  1.00  0.00     0.038 C 
HETATM   25  C12 UNL     1      25.290  -0.040  54.353  1.00  0.00     0.088 C 
ENDBRANCH  14  15
ENDBRANCH   1  14
TORSDOF 4
ENDMDL
MODEL 2
REMARK VINA RESULT:      -7.4      1.718      2.017
REMARK  4 active torsions:
REMARK  status: ('A' for Active; 'I' for Inactive)
REMARK       I    between atoms: N1_2  and  C2_3 
REMARK       I    between atoms: C2_3  and  N2_5 
REMARK    1  A    between atoms: C4_7  and  C5_8 
REMARK    2  A    between atoms: C5_8  and  O2_9 
REMARK    3  A    between atoms: O2_9  and  C6_10 
REMARK    4  A    between atoms: C13_21  and  O3_22 
ROOT
HETATM    1  C5  UNL     1      23.175   1.583  51.668  1.00  0.00     0.186 C 
ENDROOT
BRANCH   1   2
HETATM    2  C4  UNL     1      22.068   0.931  50.858  1.00  0.00     0.059 C 
HETATM    3  C3  UNL     1      21.220   0.182  51.867  1.00  0.00     0.137 C 
HETATM    4  N2  UNL     1      19.844   0.386  51.397  1.00  0.00    -0.331 N 
HETATM    5  C2  UNL     1      18.799  -0.188  52.170  1.00  0.00     0.318 C 
HETATM    6  C15 UNL     1      19.807   1.164  50.186  1.00  0.00     0.160 C 
HETATM    7  N1  UNL     1      17.410  -0.074  51.836  1.00  0.00    -0.347 N 
HETATM    8  O1  UNL     1      19.114  -0.832  53.204  1.00  0.00    -0.247 OA
HETATM    9  C1  UNL     1      16.443  -0.724  52.734  1.00  0.00     0.151 C 
HETATM   10  H4  UNL     1      17.154   0.465  50.972  1.00  0.00     0.163 HD
HETATM   11  C13 UNL     1      21.131   1.901  50.222  1.00  0.00     0.146 C 
BRANCH  11  12
HETATM   12  O3  UNL     1      21.049   3.120  50.837  1.00  0.00    -0.389 OA
HETATM   13  C14 UNL     1      20.022   3.940  50.463  1.00  0.00     0.202 C 
ENDBRANCH  11  12
ENDBRANCH   1   2
BRANCH   1  14
HETATM   14  O2  UNL     1      23.851   0.577  52.357  1.00  0.00    -0.337 OA
BRANCH  14  15
HETATM   15  C6  UNL     1      25.097   0.766  52.944  1.00  0.00     0.143 C 
HETATM   16  N3  UNL     1      25.819   1.561  52.235  1.00  0.00    -0.199 NA
HETATM   17  C7  UNL     1      27.110   2.020  52.438  1.00  0.00     0.222 C 
HETATM   18 CL1  UNL     1      26.787   2.786  50.874  1.00  0.00    -0.041 Cl
HETATM   19  N4  UNL     1      28.274   2.281  52.885  1.00  0.00    -0.230 NA
HETATM   20  C8  UNL     1      28.892   1.860  54.087  1.00  0.00     0.423 C 
HETATM   21  N5  UNL     1      28.966   0.411  54.291  1.00  0.00     0.103 N 
HETATM   22  C9  UNL     1      29.940  -0.166  53.363  1.00  0.00     0.312 C 
HETATM   23  C10 UNL     1      27.666  -0.164  53.935  1.00  0.00     0.274 C 
HETATM   24  C11 UNL     1      26.587   0.283  54.845  1.00  0.00     0.038 C 
HETATM   25  C12 UNL     1      25.223  -0.025  54.243  1.00  0.00     0.088 C 
ENDBRANCH  14  15
ENDBRANCH   1  14
TORSDOF 4
ENDMDL
MODEL 3
REMARK VINA RESULT:      -7.4      2.708      3.299
REMARK  4 active torsions:
REMARK  status: ('A' for Active; 'I' for Inactive)
REMARK       I    between atoms: N1_2  and  C2_3 
REMARK       I    between atoms: C2_3  and  N2_5 
REMARK    1  A    between atoms: C4_7  and  C5_8 
REMARK    2  A    between atoms: C5_8  and  O2_9 
REMARK    3  A    between atoms: O2_9  and  C6_10 
REMARK    4  A    between atoms: C13_21  and  O3_22 
ROOT
HETATM    1  C5  UNL     1      21.965   0.981  53.391  1.00  0.00     0.186 C 
ENDROOT
BRANCH   1   2
HETATM    2  C4  UNL     1      21.138   0.440  52.238  1.00  0.00     0.059 C 
HETATM    3  C3  UNL     1      20.120  -0.486  52.875  1.00  0.00     0.137 C 
HETATM    4  N2  UNL     1      18.891  -0.245  52.108  1.00  0.00    -0.331 N 
HETATM    5  C2  UNL     1      17.729  -0.966  52.495  1.00  0.00     0.318 C 
HETATM    6  C15 UNL     1      19.100   0.718  51.058  1.00  0.00     0.160 C 
HETATM    7  N1  UNL     1      16.460  -0.836  51.842  1.00  0.00    -0.347 N 
HETATM    8  O1  UNL     1      17.823  -1.760  53.466  1.00  0.00    -0.247 OA
HETATM    9  C1  UNL     1      15.348  -1.649  52.356  1.00  0.00     0.151 C 
HETATM   10  H4  UNL     1      16.389  -0.171  51.032  1.00  0.00     0.163 HD
HETATM   11  C13 UNL     1      20.323   1.475  51.539  1.00  0.00     0.146 C 
BRANCH  11  12
HETATM   12  O3  UNL     1      20.011   2.575  52.290  1.00  0.00    -0.389 OA
HETATM   13  C14 UNL     1      20.094   3.793  51.677  1.00  0.00     0.202 C 
ENDBRANCH  11  12
ENDBRANCH   1   2
BRANCH   1  14
HETATM   14  O2  UNL     1      23.037   1.692  52.854  1.00  0.00    -0.337 OA
BRANCH  14  15
HETATM   15  C6  UNL     1      24.331   1.189  52.803  1.00  0.00     0.143 C 
HETATM   16  N3  UNL     1      24.491   0.252  53.670  1.00  0.00    -0.199 NA
HETATM   17  C7  UNL     1      25.605  -0.518  53.963  1.00  0.00     0.222 C 
HETATM   18 CL1  UNL     1      24.500  -1.151  55.193  1.00  0.00    -0.041 Cl
HETATM   19  N4  UNL     1      26.754  -1.068  54.000  1.00  0.00    -0.230 NA
HETATM   20  C8  UNL     1      27.889  -0.835  53.189  1.00  0.00     0.423 C 
HETATM   21  N5  UNL     1      28.377   0.546  53.157  1.00  0.00     0.103 N 
HETATM   22  C9  UNL     1      28.990   0.879  54.444  1.00  0.00     0.312 C 
HETATM   23  C10 UNL     1      27.221   1.432  53.010  1.00  0.00     0.274 C 
HETATM   24  C11 UNL     1      26.537   1.252  51.709  1.00  0.00     0.038 C 
HETATM   25  C12 UNL     1      25.160   1.900  51.736  1.00  0.00     0.088 C 
ENDBRANCH  14  15
ENDBRANCH   1  14
TORSDOF 4
ENDMDL
MODEL 4
REMARK VINA RESULT:      -7.3      2.353      2.697
REMARK  4 active torsions:
REMARK  status: ('A' for Active; 'I' for Inactive)
REMARK       I    between atoms: N1_2  and  C2_3 
REMARK       I    between atoms: C2_3  and  N2_5 
REMARK    1  A    between atoms: C4_7  and  C5_8 
REMARK    2  A    between atoms: C5_8  and  O2_9 
REMARK    3  A    between atoms: O2_9  and  C6_10 
REMARK    4  A    between atoms: C13_21  and  O3_22 
ROOT
HETATM    1  C5  UNL     1      23.394   1.302  51.575  1.00  0.00     0.186 C 
ENDROOT
BRANCH   1   2
HETATM    2  C4  UNL     1      22.491   2.366  52.173  1.00  0.00     0.059 C 
HETATM    3  C3  UNL     1      23.054   3.688  51.689  1.00  0.00     0.137 C 
HETATM    4  N2  UNL     1      21.863   4.500  51.407  1.00  0.00    -0.331 N 
HETATM    5  C2  UNL     1      22.073   5.812  50.902  1.00  0.00     0.318 C 
HETATM    6  C15 UNL     1      20.650   3.786  51.710  1.00  0.00     0.160 C 
HETATM    7  N1  UNL     1      21.010   6.719  50.583  1.00  0.00    -0.347 N 
HETATM    8  O1  UNL     1      23.258   6.195  50.727  1.00  0.00    -0.247 OA
HETATM    9  C1  UNL     1      21.384   8.045  50.069  1.00  0.00     0.151 C 
HETATM   10  H4  UNL     1      20.023   6.392  50.732  1.00  0.00     0.163 HD
HETATM   11  C13 UNL     1      21.093   2.337  51.655  1.00  0.00     0.146 C 
BRANCH  11  12
HETATM   12  O3  UNL     1      20.944   1.778  50.416  1.00  0.00    -0.389 OA
HETATM   13  C14 UNL     1      19.736   1.207  50.130  1.00  0.00     0.202 C 
ENDBRANCH  11  12
ENDBRANCH   1   2
BRANCH   1  14
HETATM   14  O2  UNL     1      23.898   0.529  52.620  1.00  0.00    -0.337 OA
BRANCH  14  15
HETATM   15  C6  UNL     1      25.169   0.710  53.151  1.00  0.00     0.143 C 
HETATM   16  N3  UNL     1      25.862   1.508  52.417  1.00  0.00    -0.199 NA
HETATM   17  C7  UNL     1      27.162   1.961  52.565  1.00  0.00     0.222 C 
HETATM   18 CL1  UNL     1      26.772   2.739  51.023  1.00  0.00    -0.041 Cl
HETATM   19  N4  UNL     1      28.346   2.215  52.961  1.00  0.00    -0.230 NA
HETATM   20  C8  UNL     1      29.015   1.783  54.131  1.00  0.00     0.423 C 
HETATM   21  N5  UNL     1      29.094   0.333  54.321  1.00  0.00     0.103 N 
HETATM   22  C9  UNL     1      30.023  -0.241  53.347  1.00  0.00     0.312 C 
HETATM   23  C10 UNL     1      27.777  -0.235  54.021  1.00  0.00     0.274 C 
HETATM   24  C11 UNL     1      26.741   0.209  54.980  1.00  0.00     0.038 C 
HETATM   25  C12 UNL     1      25.351  -0.090  54.438  1.00  0.00     0.088 C 
ENDBRANCH  14  15
ENDBRANCH   1  14
TORSDOF 4
ENDMDL
MODEL 5
REMARK VINA RESULT:      -7.3      1.567      2.271
REMARK  4 active torsions:
REMARK  status: ('A' for Active; 'I' for Inactive)
REMARK       I    between atoms: N1_2  and  C2_3 
REMARK       I    between atoms: C2_3  and  N2_5 
REMARK    1  A    between atoms: C4_7  and  C5_8 
REMARK    2  A    between atoms: C5_8  and  O2_9 
REMARK    3  A    between atoms: O2_9  and  C6_10 
REMARK    4  A    between atoms: C13_21  and  O3_22 
ROOT
HETATM    1  C5  UNL     1      22.702   0.285  53.140  1.00  0.00     0.186 C 
ENDROOT
BRANCH   1   2
HETATM    2  C4  UNL     1      21.867   1.503  52.786  1.00  0.00     0.059 C 
HETATM    3  C3  UNL     1      22.131   1.755  51.314  1.00  0.00     0.137 C 
HETATM    4  N2  UNL     1      20.823   2.158  50.781  1.00  0.00    -0.331 N 
HETATM    5  C2  UNL     1      20.744   2.441  49.391  1.00  0.00     0.318 C 
HETATM    6  C15 UNL     1      19.818   2.194  51.813  1.00  0.00     0.160 C 
HETATM    7  N1  UNL     1      19.539   2.846  48.731  1.00  0.00    -0.347 N 
HETATM    8  O1  UNL     1      21.792   2.329  48.705  1.00  0.00    -0.247 OA
HETATM    9  C1  UNL     1      19.613   3.105  47.285  1.00  0.00     0.151 C 
HETATM   10  H4  UNL     1      18.667   2.938  49.310  1.00  0.00     0.163 HD
HETATM   11  C13 UNL     1      20.396   1.277  52.873  1.00  0.00     0.146 C 
BRANCH  11  12
HETATM   12  O3  UNL     1      19.998  -0.023  52.731  1.00  0.00    -0.389 OA
HETATM   13  C14 UNL     1      18.700  -0.242  52.363  1.00  0.00     0.202 C 
ENDBRANCH  11  12
ENDBRANCH   1   2
BRANCH   1  14
HETATM   14  O2  UNL     1      23.882   0.343  52.402  1.00  0.00    -0.337 OA
BRANCH  14  15
HETATM   15  C6  UNL     1      25.122   0.604  52.973  1.00  0.00     0.143 C 
HETATM   16  N3  UNL     1      25.812   1.394  52.228  1.00  0.00    -0.199 NA
HETATM   17  C7  UNL     1      27.085   1.910  52.404  1.00  0.00     0.222 C 
HETATM   18 CL1  UNL     1      26.728   2.595  50.810  1.00  0.00    -0.041 Cl
HETATM   19  N4  UNL     1      28.240   2.233  52.834  1.00  0.00    -0.230 NA
HETATM   20  C8  UNL     1      28.877   1.888  54.049  1.00  0.00     0.423 C 
HETATM   21  N5  UNL     1      29.006   0.453  54.315  1.00  0.00     0.103 N 
HETATM   22  C9  UNL     1      29.998  -0.127  53.408  1.00  0.00     0.312 C 
HETATM   23  C10 UNL     1      27.728  -0.185  53.991  1.00  0.00     0.274 C 
HETATM   24  C11 UNL     1      26.636   0.260  54.886  1.00  0.00     0.038 C 
HETATM   25  C12 UNL     1      25.282  -0.125  54.305  1.00  0.00     0.088 C 
ENDBRANCH  14  15
ENDBRANCH   1  14
TORSDOF 4
ENDMDL
MODEL 6
REMARK VINA RESULT:      -7.2      5.305      8.012
REMARK  4 active torsions:
REMARK  status: ('A' for Active; 'I' for Inactive)
REMARK       I    between atoms: N1_2  and  C2_3 
REMARK       I    between atoms: C2_3  and  N2_5 
REMARK    1  A    between atoms: C4_7  and  C5_8 
REMARK    2  A    between atoms: C5_8  and  O2_9 
REMARK    3  A    between atoms: O2_9  and  C6_10 
REMARK    4  A    between atoms: C13_21  and  O3_22 
ROOT
HETATM    1  C5  UNL     1      25.117   4.550  50.074  1.00  0.00     0.186 C 
ENDROOT
BRANCH   1   2
HETATM    2  C4  UNL     1      25.355   3.064  50.272  1.00  0.00     0.059 C 
HETATM    3  C3  UNL     1      26.635   2.966  51.079  1.00  0.00     0.137 C 
HETATM    4  N2  UNL     1      26.385   1.859  52.010  1.00  0.00    -0.331 N 
HETATM    5  C2  UNL     1      27.417   1.539  52.934  1.00  0.00     0.318 C 
HETATM    6  C15 UNL     1      25.084   1.276  51.806  1.00  0.00     0.160 C 
HETATM    7  N1  UNL     1      27.318   0.485  53.900  1.00  0.00    -0.347 N 
HETATM    8  O1  UNL     1      28.474   2.219  52.898  1.00  0.00    -0.247 OA
HETATM    9  C1  UNL     1      28.470   0.272  54.790  1.00  0.00     0.151 C 
HETATM   10  H4  UNL     1      26.432  -0.079  53.925  1.00  0.00     0.163 HD
HETATM   11  C13 UNL     1      24.324   2.391  51.115  1.00  0.00     0.146 C 
BRANCH  11  12
HETATM   12  O3  UNL     1      23.662   3.210  51.988  1.00  0.00    -0.389 OA
HETATM   13  C14 UNL     1      22.430   2.801  52.415  1.00  0.00     0.202 C 
ENDBRANCH  11  12
ENDBRANCH   1   2
BRANCH   1  14
HETATM   14  O2  UNL     1      25.779   4.940  48.911  1.00  0.00    -0.337 OA
BRANCH  14  15
HETATM   15  C6  UNL     1      26.784   5.898  48.895  1.00  0.00     0.143 C 
HETATM   16  N3  UNL     1      26.358   7.015  49.373  1.00  0.00    -0.199 NA
HETATM   17  C7  UNL     1      27.010   8.224  49.544  1.00  0.00     0.222 C 
HETATM   18 CL1  UNL     1      25.398   8.700  50.098  1.00  0.00    -0.041 Cl
HETATM   19  N4  UNL     1      27.852   9.180  49.594  1.00  0.00    -0.230 NA
HETATM   20  C8  UNL     1      29.223   9.191  49.242  1.00  0.00     0.423 C 
HETATM   21  N5  UNL     1      29.531   8.782  47.869  1.00  0.00     0.103 N 
HETATM   22  C9  UNL     1      29.085   9.819  46.937  1.00  0.00     0.312 C 
HETATM   23  C10 UNL     1      28.741   7.586  47.564  1.00  0.00     0.274 C 
HETATM   24  C11 UNL     1      29.138   6.426  48.394  1.00  0.00     0.038 C 
HETATM   25  C12 UNL     1      28.080   5.333  48.320  1.00  0.00     0.088 C 
ENDBRANCH  14  15
ENDBRANCH   1  14
TORSDOF 4
ENDMDL
MODEL 7
REMARK VINA RESULT:      -7.1      3.153      8.766
REMARK  4 active torsions:
REMARK  status: ('A' for Active; 'I' for Inactive)
REMARK       I    between atoms: N1_2  and  C2_3 
REMARK       I    between atoms: C2_3  and  N2_5 
REMARK    1  A    between atoms: C4_7  and  C5_8 
REMARK    2  A    between atoms: C5_8  and  O2_9 
REMARK    3  A    between atoms: O2_9  and  C6_10 
REMARK    4  A    between atoms: C13_21  and  O3_22 
ROOT
HETATM    1  C5  UNL     1      22.627  -0.464  52.924  1.00  0.00     0.186 C 
ENDROOT
BRANCH   1   2
HETATM    2  C4  UNL     1      23.647   0.403  53.640  1.00  0.00     0.059 C 
HETATM    3  C3  UNL     1      24.877  -0.470  53.797  1.00  0.00     0.137 C 
HETATM    4  N2  UNL     1      25.998   0.448  53.559  1.00  0.00    -0.331 N 
HETATM    5  C2  UNL     1      27.309  -0.097  53.614  1.00  0.00     0.318 C 
HETATM    6  C15 UNL     1      25.541   1.790  53.305  1.00  0.00     0.160 C 
HETATM    7  N1  UNL     1      28.498   0.675  53.405  1.00  0.00    -0.347 N 
HETATM    8  O1  UNL     1      27.429  -1.324  53.860  1.00  0.00    -0.247 OA
HETATM    9  C1  UNL     1      29.787  -0.029  53.494  1.00  0.00     0.151 C 
HETATM   10  H4  UNL     1      28.391   1.700  53.200  1.00  0.00     0.163 HD
HETATM   11  C13 UNL     1      24.113   1.574  52.842  1.00  0.00     0.146 C 
BRANCH  11  12
HETATM   12  O3  UNL     1      24.006   1.434  51.486  1.00  0.00    -0.389 OA
HETATM   13  C14 UNL     1      23.518   2.500  50.785  1.00  0.00     0.202 C 
ENDBRANCH  11  12
ENDBRANCH   1   2
BRANCH   1  14
HETATM   14  O2  UNL     1      21.442  -0.426  53.657  1.00  0.00    -0.337 OA
BRANCH  14  15
HETATM   15  C6  UNL     1      20.217  -0.075  53.101  1.00  0.00     0.143 C 
HETATM   16  N3  UNL     1      19.318  -0.950  53.388  1.00  0.00    -0.199 NA
HETATM   17  C7  UNL     1      17.977  -1.003  53.046  1.00  0.00     0.222 C 
HETATM   18 CL1  UNL     1      18.100  -2.538  53.920  1.00  0.00    -0.041 Cl
HETATM   19  N4  UNL     1      16.804  -0.780  52.600  1.00  0.00    -0.230 NA
HETATM   20  C8  UNL     1      16.317   0.324  51.862  1.00  0.00     0.423 C 
HETATM   21  N5  UNL     1      17.019   0.613  50.609  1.00  0.00     0.103 N 
HETATM   22  C9  UNL     1      16.712  -0.425  49.624  1.00  0.00     0.312 C 
HETATM   23  C10 UNL     1      18.458   0.525  50.865  1.00  0.00     0.274 C 
HETATM   24  C11 UNL     1      18.927   1.572  51.802  1.00  0.00     0.038 C 
HETATM   25  C12 UNL     1      20.316   1.235  52.325  1.00  0.00     0.088 C 
ENDBRANCH  14  15
ENDBRANCH   1  14
TORSDOF 4
ENDMDL
MODEL 8
REMARK VINA RESULT:      -7.0      5.584      8.095
REMARK  4 active torsions:
REMARK  status: ('A' for Active; 'I' for Inactive)
REMARK       I    between atoms: N1_2  and  C2_3 
REMARK       I    between atoms: C2_3  and  N2_5 
REMARK    1  A    between atoms: C4_7  and  C5_8 
REMARK    2  A    between atoms: C5_8  and  O2_9 
REMARK    3  A    between atoms: O2_9  and  C6_10 
REMARK    4  A    between atoms: C13_21  and  O3_22 
ROOT
HETATM    1  C5  UNL     1      25.755   4.712  49.418  1.00  0.00     0.186 C 
ENDROOT
BRANCH   1   2
HETATM    2  C4  UNL     1      25.456   3.290  49.856  1.00  0.00     0.059 C 
HETATM    3  C3  UNL     1      26.658   2.862  50.676  1.00  0.00     0.137 C 
HETATM    4  N2  UNL     1      26.078   2.077  51.774  1.00  0.00    -0.331 N 
HETATM    5  C2  UNL     1      26.975   1.553  52.744  1.00  0.00     0.318 C 
HETATM    6  C15 UNL     1      24.646   1.980  51.659  1.00  0.00     0.160 C 
HETATM    7  N1  UNL     1      26.557   0.769  53.868  1.00  0.00    -0.347 N 
HETATM    8  O1  UNL     1      28.202   1.791  52.605  1.00  0.00    -0.247 OA
HETATM    9  C1  UNL     1      27.602   0.294  54.788  1.00  0.00     0.151 C 
HETATM   10  H4  UNL     1      25.531   0.573  53.979  1.00  0.00     0.163 HD
HETATM   11  C13 UNL     1      24.300   3.173  50.790  1.00  0.00     0.146 C 
BRANCH  11  12
HETATM   12  O3  UNL     1      24.021   4.300  51.514  1.00  0.00    -0.389 OA
HETATM   13  C14 UNL     1      22.849   4.316  52.217  1.00  0.00     0.202 C 
ENDBRANCH  11  12
ENDBRANCH   1   2
BRANCH   1  14
HETATM   14  O2  UNL     1      27.001   4.716  48.791  1.00  0.00    -0.337 OA
BRANCH  14  15
HETATM   15  C6  UNL     1      27.655   5.882  48.411  1.00  0.00     0.143 C 
HETATM   16  N3  UNL     1      28.887   5.642  48.126  1.00  0.00    -0.199 NA
HETATM   17  C7  UNL     1      29.893   6.496  47.709  1.00  0.00     0.222 C 
HETATM   18 CL1  UNL     1      30.830   4.997  47.814  1.00  0.00    -0.041 Cl
HETATM   19  N4  UNL     1      30.594   7.491  47.331  1.00  0.00    -0.230 NA
HETATM   20  C8  UNL     1      30.209   8.838  47.129  1.00  0.00     0.423 C 
HETATM   21  N5  UNL     1      29.596   9.505  48.280  1.00  0.00     0.103 N 
HETATM   22  C9  UNL     1      30.612   9.749  49.304  1.00  0.00     0.312 C 
HETATM   23  C10 UNL     1      28.625   8.583  48.873  1.00  0.00     0.274 C 
HETATM   24  C11 UNL     1      27.492   8.298  47.964  1.00  0.00     0.038 C 
HETATM   25  C12 UNL     1      26.713   7.082  48.447  1.00  0.00     0.088 C 
ENDBRANCH  14  15
ENDBRANCH   1  14
TORSDOF 4
ENDMDL
MODEL 9
REMARK VINA RESULT:      -6.9      2.608      3.210
REMARK  4 active torsions:
REMARK  status: ('A' for Active; 'I' for Inactive)
REMARK       I    between atoms: N1_2  and  C2_3 
REMARK       I    between atoms: C2_3  and  N2_5 
REMARK    1  A    between atoms: C4_7  and  C5_8 
REMARK    2  A    between atoms: C5_8  and  O2_9 
REMARK    3  A    between atoms: O2_9  and  C6_10 
REMARK    4  A    between atoms: C13_21  and  O3_22 
ROOT
HETATM    1  C5  UNL     1      21.806   1.511  52.677  1.00  0.00     0.186 C 
ENDROOT
BRANCH   1   2
HETATM    2  C4  UNL     1      20.733   2.585  52.714  1.00  0.00     0.059 C 
HETATM    3  C3  UNL     1      21.325   3.770  51.976  1.00  0.00     0.137 C 
HETATM    4  N2  UNL     1      20.195   4.316  51.214  1.00  0.00    -0.331 N 
HETATM    5  C2  UNL     1      20.451   5.442  50.386  1.00  0.00     0.318 C 
HETATM    6  C15 UNL     1      18.983   3.577  51.459  1.00  0.00     0.160 C 
HETATM    7  N1  UNL     1      19.449   6.083  49.587  1.00  0.00    -0.347 N 
HETATM    8  O1  UNL     1      21.622   5.899  50.356  1.00  0.00    -0.247 OA
HETATM    9  C1  UNL     1      19.865   7.240  48.780  1.00  0.00     0.151 C 
HETATM   10  H4  UNL     1      18.473   5.696  49.617  1.00  0.00     0.163 HD
HETATM   11  C13 UNL     1      19.502   2.238  51.947  1.00  0.00     0.146 C 
BRANCH  11  12
HETATM   12  O3  UNL     1      19.680   1.333  50.938  1.00  0.00    -0.389 OA
HETATM   13  C14 UNL     1      18.600   0.577  50.579  1.00  0.00     0.202 C 
ENDBRANCH  11  12
ENDBRANCH   1   2
BRANCH   1  14
HETATM   14  O2  UNL     1      23.020   2.127  52.377  1.00  0.00    -0.337 OA
BRANCH  14  15
HETATM   15  C6  UNL     1      24.242   1.470  52.451  1.00  0.00     0.143 C 
HETATM   16  N3  UNL     1      24.180   0.480  53.270  1.00  0.00    -0.199 NA
HETATM   17  C7  UNL     1      25.149  -0.435  53.647  1.00  0.00     0.222 C 
HETATM   18 CL1  UNL     1      23.829  -0.984  54.693  1.00  0.00    -0.041 Cl
HETATM   19  N4  UNL     1      26.211  -1.125  53.787  1.00  0.00    -0.230 NA
HETATM   20  C8  UNL     1      27.460  -0.997  53.134  1.00  0.00     0.423 C 
HETATM   21  N5  UNL     1      28.107   0.312  53.249  1.00  0.00     0.103 N 
HETATM   22  C9  UNL     1      28.586   0.505  54.619  1.00  0.00     0.312 C 
HETATM   23  C10 UNL     1      27.090   1.342  53.019  1.00  0.00     0.274 C 
HETATM   24  C11 UNL     1      26.561   1.310  51.637  1.00  0.00     0.038 C 
HETATM   25  C12 UNL     1      25.278   2.123  51.539  1.00  0.00     0.088 C 
ENDBRANCH  14  15
ENDBRANCH   1  14
TORSDOF 4
ENDMDL
