MODEL 1
REMARK VINA RESULT:      -7.9      0.000      0.000
REMARK  4 active torsions:
REMARK  status: ('A' for Active; 'I' for Inactive)
REMARK    1  A    between atoms: C2_2  and  N1_3 
REMARK    2  A    between atoms: C4_5  and  C5_6 
REMARK    3  A    between atoms: C14_16  and  N3_17 
REMARK    4  A    between atoms: N3_17  and  C15_18 
ROOT
HETATM    1  N1  UNL     1      23.593   0.107  53.177  1.00  0.00    -0.365 N 
HETATM    2  C3  UNL     1      24.943  -0.250  53.109  1.00  0.00     0.096 C 
HETATM    3  C4  UNL     1      26.090   0.033  52.565  1.00  0.00    -0.031 C 
HETATM    4  C10 UNL     1      26.459   1.071  51.590  1.00  0.00     0.044 C 
HETATM    5  C11 UNL     1      25.324   1.958  51.170  1.00  0.00     0.031 C 
HETATM    6  C12 UNL     1      24.729   2.709  52.300  1.00  0.00    -0.027 C 
HETATM    7  C13 UNL     1      23.694   2.552  53.153  1.00  0.00     0.016 C 
HETATM    8  C14 UNL     1      22.857   1.336  53.015  1.00  0.00     0.224 C 
ENDROOT
BRANCH   8   9
HETATM    9  N3  UNL     1      22.170   1.357  51.754  1.00  0.00    -0.198 N 
HETATM   10  H18 UNL     1      22.705   1.492  50.869  1.00  0.00     0.180 HD
BRANCH   9  11
HETATM   11  C15 UNL     1      20.914   1.261  51.139  1.00  0.00     0.723 A 
HETATM   12  N4  UNL     1      20.589   1.980  50.024  1.00  0.00    -0.075 NA
HETATM   13  C16 UNL     1      19.411   1.909  49.418  1.00  0.00     0.138 A 
HETATM   14  C17 UNL     1      18.514   1.040  50.003  1.00  0.00     0.040 A 
HETATM   15  C18 UNL     1      18.752   0.276  51.126  1.00  0.00     0.138 A 
HETATM   16  N5  UNL     1      19.981   0.436  51.647  1.00  0.00    -0.075 NA
ENDBRANCH   9  11
ENDBRANCH   8   9
BRANCH   1  17
HETATM   17  C2  UNL     1      22.659  -0.931  53.474  1.00  0.00     0.120 C 
HETATM   18  C1  UNL     1      22.039  -0.856  54.845  1.00  0.00     0.026 C 
ENDBRANCH   1  17
BRANCH   3  19
HETATM   19  C5  UNL     1      27.282  -0.734  52.881  1.00  0.00    -0.011 A 
HETATM   20  C6  UNL     1      28.445  -0.119  53.304  1.00  0.00     0.015 A 
HETATM   21  C7  UNL     1      29.591  -0.810  53.611  1.00  0.00     0.020 A 
HETATM   22  C8  UNL     1      29.655  -2.183  53.516  1.00  0.00     0.116 A 
HETATM   23  N2  UNL     1      28.536  -2.807  53.106  1.00  0.00    -0.272 NA
HETATM   24  C9  UNL     1      27.436  -2.098  52.816  1.00  0.00     0.128 A 
ENDBRANCH   3  19
TORSDOF 4
ENDMDL
MODEL 2
REMARK VINA RESULT:      -7.5      2.005      2.933
REMARK  4 active torsions:
REMARK  status: ('A' for Active; 'I' for Inactive)
REMARK    1  A    between atoms: C2_2  and  N1_3 
REMARK    2  A    between atoms: C4_5  and  C5_6 
REMARK    3  A    between atoms: C14_16  and  N3_17 
REMARK    4  A    between atoms: N3_17  and  C15_18 
ROOT
HETATM    1  N1  UNL     1      21.582   0.549  53.562  1.00  0.00    -0.365 N 
HETATM    2  C3  UNL     1      22.958   0.725  53.381  1.00  0.00     0.096 C 
HETATM    3  C4  UNL     1      23.874   1.177  52.575  1.00  0.00    -0.031 C 
HETATM    4  C10 UNL     1      23.760   1.804  51.249  1.00  0.00     0.044 C 
HETATM    5  C11 UNL     1      22.351   1.961  50.757  1.00  0.00     0.031 C 
HETATM    6  C12 UNL     1      21.523   2.816  51.641  1.00  0.00    -0.027 C 
HETATM    7  C13 UNL     1      20.663   2.632  52.666  1.00  0.00     0.016 C 
HETATM    8  C14 UNL     1      20.402   1.245  53.115  1.00  0.00     0.224 C 
ENDROOT
BRANCH   8   9
HETATM    9  N3  UNL     1      19.740   0.511  52.073  1.00  0.00    -0.198 N 
HETATM   10  H18 UNL     1      20.292   0.116  51.281  1.00  0.00     0.180 HD
BRANCH   9  11
HETATM   11  C15 UNL     1      18.498   0.046  51.618  1.00  0.00     0.723 A 
HETATM   12  N4  UNL     1      18.072   0.235  50.334  1.00  0.00    -0.075 NA
HETATM   13  C16 UNL     1      16.906  -0.194  49.873  1.00  0.00     0.138 A 
HETATM   14  C17 UNL     1      16.131  -0.862  50.799  1.00  0.00     0.040 A 
HETATM   15  C18 UNL     1      16.477  -1.100  52.113  1.00  0.00     0.138 A 
HETATM   16  N5  UNL     1      17.683  -0.615  52.458  1.00  0.00    -0.075 NA
ENDBRANCH   9  11
ENDBRANCH   8   9
BRANCH   1  17
HETATM   17  C2  UNL     1      21.168  -0.555  54.366  1.00  0.00     0.120 C 
HETATM   18  C1  UNL     1      22.289  -1.384  54.936  1.00  0.00     0.026 C 
ENDBRANCH   1  17
BRANCH   3  19
HETATM   19  C5  UNL     1      25.282   1.100  52.919  1.00  0.00    -0.011 A 
HETATM   20  C6  UNL     1      26.074   0.051  52.495  1.00  0.00     0.015 A 
HETATM   21  C7  UNL     1      27.407  -0.056  52.801  1.00  0.00     0.020 A 
HETATM   22  C8  UNL     1      28.052   0.893  53.563  1.00  0.00     0.116 A 
HETATM   23  N2  UNL     1      27.305   1.926  53.990  1.00  0.00    -0.272 NA
HETATM   24  C9  UNL     1      26.005   1.996  53.669  1.00  0.00     0.128 A 
ENDBRANCH   3  19
TORSDOF 4
ENDMDL
MODEL 3
REMARK VINA RESULT:      -7.3      2.099      3.531
REMARK  4 active torsions:
REMARK  status: ('A' for Active; 'I' for Inactive)
REMARK    1  A    between atoms: C2_2  and  N1_3 
REMARK    2  A    between atoms: C4_5  and  C5_6 
REMARK    3  A    between atoms: C14_16  and  N3_17 
REMARK    4  A    between atoms: N3_17  and  C15_18 
ROOT
HETATM    1  N1  UNL     1      22.697   2.684  51.386  1.00  0.00    -0.365 N 
HETATM    2  C3  UNL     1      23.717   1.973  52.025  1.00  0.00     0.096 C 
HETATM    3  C4  UNL     1      24.002   0.895  52.697  1.00  0.00    -0.031 C 
HETATM    4  C10 UNL     1      23.143  -0.218  53.132  1.00  0.00     0.044 C 
HETATM    5  C11 UNL     1      21.707  -0.092  52.715  1.00  0.00     0.031 C 
HETATM    6  C12 UNL     1      21.534  -0.047  51.244  1.00  0.00    -0.027 C 
HETATM    7  C13 UNL     1      21.422   0.905  50.293  1.00  0.00     0.016 C 
HETATM    8  C14 UNL     1      21.471   2.323  50.719  1.00  0.00     0.224 C 
ENDROOT
BRANCH   8   9
HETATM    9  N3  UNL     1      20.334   2.626  51.542  1.00  0.00    -0.198 N 
HETATM   10  H18 UNL     1      20.471   2.951  52.523  1.00  0.00     0.180 HD
BRANCH   9  11
HETATM   11  C15 UNL     1      18.933   2.670  51.579  1.00  0.00     0.723 A 
HETATM   12  N4  UNL     1      18.242   3.840  51.718  1.00  0.00    -0.075 NA
HETATM   13  C16 UNL     1      16.919   3.915  51.754  1.00  0.00     0.138 A 
HETATM   14  C17 UNL     1      16.270   2.703  51.639  1.00  0.00     0.040 A 
HETATM   15  C18 UNL     1      16.882   1.475  51.497  1.00  0.00     0.138 A 
HETATM   16  N5  UNL     1      18.225   1.532  51.474  1.00  0.00    -0.075 NA
ENDBRANCH   9  11
ENDBRANCH   8   9
BRANCH   1  17
HETATM   17  C2  UNL     1      22.825   4.104  51.339  1.00  0.00     0.120 C 
HETATM   18  C1  UNL     1      23.332   4.741  52.607  1.00  0.00     0.026 C 
ENDBRANCH   1  17
BRANCH   3  19
HETATM   19  C5  UNL     1      25.352   0.632  53.160  1.00  0.00    -0.011 A 
HETATM   20  C6  UNL     1      26.088  -0.433  52.676  1.00  0.00     0.015 A 
HETATM   21  C7  UNL     1      27.365  -0.713  53.091  1.00  0.00     0.020 A 
HETATM   22  C8  UNL     1      28.007   0.062  54.031  1.00  0.00     0.116 A 
HETATM   23  N2  UNL     1      27.314   1.105  54.520  1.00  0.00    -0.272 NA
HETATM   24  C9  UNL     1      26.067   1.348  54.090  1.00  0.00     0.128 A 
ENDBRANCH   3  19
TORSDOF 4
ENDMDL
MODEL 4
REMARK VINA RESULT:      -7.3      2.404      7.929
REMARK  4 active torsions:
REMARK  status: ('A' for Active; 'I' for Inactive)
REMARK    1  A    between atoms: C2_2  and  N1_3 
REMARK    2  A    between atoms: C4_5  and  C5_6 
REMARK    3  A    between atoms: C14_16  and  N3_17 
REMARK    4  A    between atoms: N3_17  and  C15_18 
ROOT
HETATM    1  N1  UNL     1      25.198   2.858  50.655  1.00  0.00    -0.365 N 
HETATM    2  C3  UNL     1      23.982   2.823  49.966  1.00  0.00     0.096 C 
HETATM    3  C4  UNL     1      22.796   2.290  49.931  1.00  0.00    -0.031 C 
HETATM    4  C10 UNL     1      22.167   1.291  50.809  1.00  0.00     0.044 C 
HETATM    5  C11 UNL     1      23.037   0.826  51.940  1.00  0.00     0.031 C 
HETATM    6  C12 UNL     1      23.432   1.923  52.854  1.00  0.00    -0.027 C 
HETATM    7  C13 UNL     1      24.481   2.762  52.992  1.00  0.00     0.016 C 
HETATM    8  C14 UNL     1      25.597   2.647  52.024  1.00  0.00     0.224 C 
ENDROOT
BRANCH   8   9
HETATM    9  N3  UNL     1      26.245   1.374  52.176  1.00  0.00    -0.198 N 
HETATM   10  H18 UNL     1      25.845   0.526  51.721  1.00  0.00     0.180 HD
BRANCH   9  11
HETATM   11  C15 UNL     1      27.335   0.713  52.760  1.00  0.00     0.723 A 
HETATM   12  N4  UNL     1      27.467  -0.645  52.731  1.00  0.00    -0.075 NA
HETATM   13  C16 UNL     1      28.486  -1.300  53.271  1.00  0.00     0.138 A 
HETATM   14  C17 UNL     1      29.427  -0.496  53.881  1.00  0.00     0.040 A 
HETATM   15  C18 UNL     1      29.378   0.880  53.961  1.00  0.00     0.138 A 
HETATM   16  N5  UNL     1      28.297   1.423  53.376  1.00  0.00    -0.075 NA
ENDBRANCH   9  11
ENDBRANCH   8   9
BRANCH   1  17
HETATM   17  C2  UNL     1      26.367   3.170  49.897  1.00  0.00     0.120 C 
HETATM   18  C1  UNL     1      26.395   4.559  49.315  1.00  0.00     0.026 C 
ENDBRANCH   1  17
BRANCH   3  19
HETATM   19  C5  UNL     1      21.840   2.649  48.899  1.00  0.00    -0.011 A 
HETATM   20  C6  UNL     1      22.245   3.208  47.702  1.00  0.00     0.015 A 
HETATM   21  C7  UNL     1      21.371   3.561  46.704  1.00  0.00     0.020 A 
HETATM   22  C8  UNL     1      20.013   3.377  46.834  1.00  0.00     0.116 A 
HETATM   23  N2  UNL     1      19.590   2.835  47.990  1.00  0.00    -0.272 NA
HETATM   24  C9  UNL     1      20.474   2.503  48.942  1.00  0.00     0.128 A 
ENDBRANCH   3  19
TORSDOF 4
ENDMDL
MODEL 5
REMARK VINA RESULT:      -7.3      3.696      6.435
REMARK  4 active torsions:
REMARK  status: ('A' for Active; 'I' for Inactive)
REMARK    1  A    between atoms: C2_2  and  N1_3 
REMARK    2  A    between atoms: C4_5  and  C5_6 
REMARK    3  A    between atoms: C14_16  and  N3_17 
REMARK    4  A    between atoms: N3_17  and  C15_18 
ROOT
HETATM    1  N1  UNL     1      25.360   2.482  51.142  1.00  0.00    -0.365 N 
HETATM    2  C3  UNL     1      24.352   1.816  51.845  1.00  0.00     0.096 C 
HETATM    3  C4  UNL     1      23.106   1.864  52.217  1.00  0.00    -0.031 C 
HETATM    4  C10 UNL     1      22.073   2.884  51.978  1.00  0.00     0.044 C 
HETATM    5  C11 UNL     1      22.534   4.051  51.155  1.00  0.00     0.031 C 
HETATM    6  C12 UNL     1      22.984   3.660  49.799  1.00  0.00    -0.027 C 
HETATM    7  C13 UNL     1      24.155   3.355  49.199  1.00  0.00     0.016 C 
HETATM    8  C14 UNL     1      25.388   3.388  50.021  1.00  0.00     0.224 C 
ENDROOT
BRANCH   8   9
HETATM    9  N3  UNL     1      25.648   4.732  50.457  1.00  0.00    -0.198 N 
HETATM   10  H18 UNL     1      26.069   4.904  51.396  1.00  0.00     0.180 HD
BRANCH   9  11
HETATM   11  C15 UNL     1      25.557   6.084  50.100  1.00  0.00     0.723 A 
HETATM   12  N4  UNL     1      24.618   6.920  50.633  1.00  0.00    -0.075 NA
HETATM   13  C16 UNL     1      24.508   8.203  50.317  1.00  0.00     0.138 A 
HETATM   14  C17 UNL     1      25.428   8.649  49.390  1.00  0.00     0.040 A 
HETATM   15  C18 UNL     1      26.408   7.881  48.798  1.00  0.00     0.138 A 
HETATM   16  N5  UNL     1      26.416   6.598  49.202  1.00  0.00    -0.075 NA
ENDBRANCH   9  11
ENDBRANCH   8   9
BRANCH   1  17
HETATM   17  C2  UNL     1      26.704   2.266  51.569  1.00  0.00     0.120 C 
HETATM   18  C1  UNL     1      26.932   0.985  52.330  1.00  0.00     0.026 C 
ENDBRANCH   1  17
BRANCH   3  19
HETATM   19  C5  UNL     1      22.516   0.801  53.011  1.00  0.00    -0.011 A 
HETATM   20  C6  UNL     1      23.297  -0.149  53.640  1.00  0.00     0.015 A 
HETATM   21  C7  UNL     1      22.777  -1.168  54.397  1.00  0.00     0.020 A 
HETATM   22  C8  UNL     1      21.419  -1.310  54.582  1.00  0.00     0.116 A 
HETATM   23  N2  UNL     1      20.635  -0.399  53.981  1.00  0.00    -0.272 NA
HETATM   24  C9  UNL     1      21.181   0.583  53.250  1.00  0.00     0.128 A 
ENDBRANCH   3  19
TORSDOF 4
ENDMDL
MODEL 6
REMARK VINA RESULT:      -7.2      2.979      4.282
REMARK  4 active torsions:
REMARK  status: ('A' for Active; 'I' for Inactive)
REMARK    1  A    between atoms: C2_2  and  N1_3 
REMARK    2  A    between atoms: C4_5  and  C5_6 
REMARK    3  A    between atoms: C14_16  and  N3_17 
REMARK    4  A    between atoms: N3_17  and  C15_18 
ROOT
HETATM    1  N1  UNL     1      24.728   3.023  50.383  1.00  0.00    -0.365 N 
HETATM    2  C3  UNL     1      25.461   2.187  51.231  1.00  0.00     0.096 C 
HETATM    3  C4  UNL     1      25.391   1.387  52.255  1.00  0.00    -0.031 C 
HETATM    4  C10 UNL     1      24.243   0.990  53.085  1.00  0.00     0.044 C 
HETATM    5  C11 UNL     1      22.937   1.599  52.667  1.00  0.00     0.031 C 
HETATM    6  C12 UNL     1      22.541   1.226  51.288  1.00  0.00    -0.027 C 
HETATM    7  C13 UNL     1      22.663   1.753  50.051  1.00  0.00     0.016 C 
HETATM    8  C14 UNL     1      23.366   3.050  49.913  1.00  0.00     0.224 C 
ENDROOT
BRANCH   8   9
HETATM    9  N3  UNL     1      22.618   4.083  50.574  1.00  0.00    -0.198 N 
HETATM   10  H18 UNL     1      22.466   4.039  51.605  1.00  0.00     0.180 HD
BRANCH   9  11
HETATM   11  C15 UNL     1      21.915   5.281  50.384  1.00  0.00     0.723 A 
HETATM   12  N4  UNL     1      22.415   6.491  50.772  1.00  0.00    -0.075 NA
HETATM   13  C16 UNL     1      21.776   7.641  50.605  1.00  0.00     0.138 A 
HETATM   14  C17 UNL     1      20.542   7.531  49.998  1.00  0.00     0.040 A 
HETATM   15  C18 UNL     1      19.957   6.355  49.575  1.00  0.00     0.138 A 
HETATM   16  N5  UNL     1      20.704   5.260  49.800  1.00  0.00    -0.075 NA
ENDBRANCH   9  11
ENDBRANCH   8   9
BRANCH   1  17
HETATM   17  C2  UNL     1      25.418   4.130  49.805  1.00  0.00     0.120 C 
HETATM   18  C1  UNL     1      26.836   3.847  49.383  1.00  0.00     0.026 C 
ENDBRANCH   1  17
BRANCH   3  19
HETATM   19  C5  UNL     1      26.573   0.718  52.769  1.00  0.00    -0.011 A 
HETATM   20  C6  UNL     1      27.730   1.415  53.057  1.00  0.00     0.015 A 
HETATM   21  C7  UNL     1      28.866   0.818  53.543  1.00  0.00     0.020 A 
HETATM   22  C8  UNL     1      28.926  -0.538  53.778  1.00  0.00     0.116 A 
HETATM   23  N2  UNL     1      27.813  -1.242  53.505  1.00  0.00    -0.272 NA
HETATM   24  C9  UNL     1      26.722  -0.623  53.032  1.00  0.00     0.128 A 
ENDBRANCH   3  19
TORSDOF 4
ENDMDL
MODEL 7
REMARK VINA RESULT:      -6.9      3.061      4.051
REMARK  4 active torsions:
REMARK  status: ('A' for Active; 'I' for Inactive)
REMARK    1  A    between atoms: C2_2  and  N1_3 
REMARK    2  A    between atoms: C4_5  and  C5_6 
REMARK    3  A    between atoms: C14_16  and  N3_17 
REMARK    4  A    between atoms: N3_17  and  C15_18 
ROOT
HETATM    1  N1  UNL     1      23.497   3.219  51.519  1.00  0.00    -0.365 N 
HETATM    2  C3  UNL     1      24.615   2.590  52.076  1.00  0.00     0.096 C 
HETATM    3  C4  UNL     1      25.865   2.283  51.888  1.00  0.00    -0.031 C 
HETATM    4  C10 UNL     1      26.755   2.545  50.746  1.00  0.00     0.044 C 
HETATM    5  C11 UNL     1      26.114   3.307  49.623  1.00  0.00     0.031 C 
HETATM    6  C12 UNL     1      25.638   4.649  50.033  1.00  0.00    -0.027 C 
HETATM    7  C13 UNL     1      24.480   5.196  50.461  1.00  0.00     0.016 C 
HETATM    8  C14 UNL     1      23.300   4.309  50.596  1.00  0.00     0.224 C 
ENDROOT
BRANCH   8   9
HETATM    9  N3  UNL     1      22.907   3.819  49.304  1.00  0.00    -0.198 N 
HETATM   10  H18 UNL     1      22.813   2.794  49.142  1.00  0.00     0.180 HD
BRANCH   9  11
HETATM   11  C15 UNL     1      22.554   4.197  48.001  1.00  0.00     0.723 A 
HETATM   12  N4  UNL     1      22.111   3.297  47.075  1.00  0.00    -0.075 NA
HETATM   13  C16 UNL     1      21.767   3.623  45.836  1.00  0.00     0.138 A 
HETATM   14  C17 UNL     1      21.889   4.965  45.538  1.00  0.00     0.040 A 
HETATM   15  C18 UNL     1      22.327   5.943  46.407  1.00  0.00     0.138 A 
HETATM   16  N5  UNL     1      22.645   5.486  47.631  1.00  0.00    -0.075 NA
ENDBRANCH   9  11
ENDBRANCH   8   9
BRANCH   1  17
HETATM   17  C2  UNL     1      22.214   2.729  51.905  1.00  0.00     0.120 C 
HETATM   18  C1  UNL     1      22.233   1.431  52.670  1.00  0.00     0.026 C 
ENDBRANCH   1  17
BRANCH   3  19
HETATM   19  C5  UNL     1      26.620   1.554  52.891  1.00  0.00    -0.011 A 
HETATM   20  C6  UNL     1      27.980   1.737  53.047  1.00  0.00     0.015 A 
HETATM   21  C7  UNL     1      28.727   1.066  53.982  1.00  0.00     0.020 A 
HETATM   22  C8  UNL     1      28.157   0.150  54.840  1.00  0.00     0.116 A 
HETATM   23  N2  UNL     1      26.834  -0.049  54.709  1.00  0.00    -0.272 NA
HETATM   24  C9  UNL     1      26.138   0.627  53.784  1.00  0.00     0.128 A 
ENDBRANCH   3  19
TORSDOF 4
ENDMDL
MODEL 8
REMARK VINA RESULT:      -6.6      3.166      5.708
REMARK  4 active torsions:
REMARK  status: ('A' for Active; 'I' for Inactive)
REMARK    1  A    between atoms: C2_2  and  N1_3 
REMARK    2  A    between atoms: C4_5  and  C5_6 
REMARK    3  A    between atoms: C14_16  and  N3_17 
REMARK    4  A    between atoms: N3_17  and  C15_18 
ROOT
HETATM    1  N1  UNL     1      23.595   2.572  50.049  1.00  0.00    -0.365 N 
HETATM    2  C3  UNL     1      23.282   1.720  51.113  1.00  0.00     0.096 C 
HETATM    3  C4  UNL     1      22.323   1.069  51.705  1.00  0.00    -0.031 C 
HETATM    4  C10 UNL     1      20.887   0.986  51.398  1.00  0.00     0.044 C 
HETATM    5  C11 UNL     1      20.466   1.770  50.190  1.00  0.00     0.031 C 
HETATM    6  C12 UNL     1      21.135   1.320  48.947  1.00  0.00    -0.027 C 
HETATM    7  C13 UNL     1      22.227   1.670  48.232  1.00  0.00     0.016 C 
HETATM    8  C14 UNL     1      23.055   2.793  48.731  1.00  0.00     0.224 C 
ENDROOT
BRANCH   8   9
HETATM    9  N3  UNL     1      22.299   4.014  48.687  1.00  0.00    -0.198 N 
HETATM   10  H18 UNL     1      21.417   4.062  48.134  1.00  0.00     0.180 HD
BRANCH   9  11
HETATM   11  C15 UNL     1      22.249   5.340  49.138  1.00  0.00     0.723 A 
HETATM   12  N4  UNL     1      21.619   5.696  50.296  1.00  0.00    -0.075 NA
HETATM   13  C16 UNL     1      21.556   6.941  50.749  1.00  0.00     0.138 A 
HETATM   14  C17 UNL     1      22.186   7.876  49.953  1.00  0.00     0.040 A 
HETATM   15  C18 UNL     1      22.845   7.611  48.771  1.00  0.00     0.138 A 
HETATM   16  N5  UNL     1      22.838   6.313  48.420  1.00  0.00    -0.075 NA
ENDBRANCH   9  11
ENDBRANCH   8   9
BRANCH   1  17
HETATM   17  C2  UNL     1      24.696   3.461  50.231  1.00  0.00     0.120 C 
HETATM   18  C1  UNL     1      25.906   2.851  50.888  1.00  0.00     0.026 C 
ENDBRANCH   1  17
BRANCH   3  19
HETATM   19  C5  UNL     1      22.581   0.259  52.883  1.00  0.00    -0.011 A 
HETATM   20  C6  UNL     1      21.552  -0.215  53.673  1.00  0.00     0.015 A 
HETATM   21  C7  UNL     1      21.756  -0.981  54.793  1.00  0.00     0.020 A 
HETATM   22  C8  UNL     1      23.022  -1.333  55.207  1.00  0.00     0.116 A 
HETATM   23  N2  UNL     1      24.043  -0.885  54.456  1.00  0.00    -0.272 NA
HETATM   24  C9  UNL     1      23.804  -0.139  53.368  1.00  0.00     0.128 A 
ENDBRANCH   3  19
TORSDOF 4
ENDMDL
MODEL 9
REMARK VINA RESULT:      -6.6      3.977      5.851
REMARK  4 active torsions:
REMARK  status: ('A' for Active; 'I' for Inactive)
REMARK    1  A    between atoms: C2_2  and  N1_3 
REMARK    2  A    between atoms: C4_5  and  C5_6 
REMARK    3  A    between atoms: C14_16  and  N3_17 
REMARK    4  A    between atoms: N3_17  and  C15_18 
ROOT
HETATM    1  N1  UNL     1      23.478   4.852  51.691  1.00  0.00    -0.365 N 
HETATM    2  C3  UNL     1      24.486   5.080  50.749  1.00  0.00     0.096 C 
HETATM    3  C4  UNL     1      24.731   5.340  49.498  1.00  0.00    -0.031 C 
HETATM    4  C10 UNL     1      23.817   5.522  48.360  1.00  0.00     0.044 C 
HETATM    5  C11 UNL     1      22.362   5.404  48.708  1.00  0.00     0.031 C 
HETATM    6  C12 UNL     1      21.922   6.414  49.699  1.00  0.00    -0.027 C 
HETATM    7  C13 UNL     1      21.771   6.480  51.039  1.00  0.00     0.016 C 
HETATM    8  C14 UNL     1      22.109   5.278  51.837  1.00  0.00     0.224 C 
ENDROOT
BRANCH   8   9
HETATM    9  N3  UNL     1      21.205   4.209  51.515  1.00  0.00    -0.198 N 
HETATM   10  H18 UNL     1      20.210   4.418  51.285  1.00  0.00     0.180 HD
BRANCH   9  11
HETATM   11  C15 UNL     1      21.090   2.820  51.362  1.00  0.00     0.723 A 
HETATM   12  N4  UNL     1      20.393   2.043  52.242  1.00  0.00    -0.075 NA
HETATM   13  C16 UNL     1      20.265   0.728  52.125  1.00  0.00     0.138 A 
HETATM   14  C17 UNL     1      20.898   0.184  51.027  1.00  0.00     0.040 A 
HETATM   15  C18 UNL     1      21.623   0.887  50.088  1.00  0.00     0.138 A 
HETATM   16  N5  UNL     1      21.679   2.211  50.318  1.00  0.00    -0.075 NA
ENDBRANCH   9  11
ENDBRANCH   8   9
BRANCH   1  17
HETATM   17  C2  UNL     1      23.801   4.015  52.801  1.00  0.00     0.120 C 
HETATM   18  C1  UNL     1      24.659   2.822  52.469  1.00  0.00     0.026 C 
ENDBRANCH   1  17
BRANCH   3  19
HETATM   19  C5  UNL     1      26.091   5.491  49.014  1.00  0.00    -0.011 A 
HETATM   20  C6  UNL     1      26.529   6.670  48.443  1.00  0.00     0.015 A 
HETATM   21  C7  UNL     1      27.806   6.850  47.974  1.00  0.00     0.020 A 
HETATM   22  C8  UNL     1      28.749   5.848  48.043  1.00  0.00     0.116 A 
HETATM   23  N2  UNL     1      28.350   4.688  48.595  1.00  0.00    -0.272 NA
HETATM   24  C9  UNL     1      27.094   4.551  49.043  1.00  0.00     0.128 A 
ENDBRANCH   3  19
TORSDOF 4
ENDMDL
