MODEL 1
REMARK VINA RESULT:      -7.8      0.000      0.000
REMARK  2 active torsions:
REMARK  status: ('A' for Active; 'I' for Inactive)
REMARK    1  A    between atoms: N1_7  and  C7_8 
REMARK    2  A    between atoms: C7_8  and  N2_9 
ROOT
HETATM    1  C7  UNL     1      23.776   2.484  52.989  1.00  0.00     0.273 C 
ENDROOT
BRANCH   1   2
HETATM    2  N1  UNL     1      23.604   2.749  51.582  1.00  0.00    -0.362 N 
HETATM    3  C6  UNL     1      22.677   1.808  51.012  1.00  0.00     0.042 A 
HETATM    4  C3  UNL     1      22.166   1.858  49.625  1.00  0.00    -0.010 A 
HETATM    5  C5  UNL     1      21.936   0.717  51.192  1.00  0.00     0.031 A 
HETATM    6  C2  UNL     1      22.498   2.855  48.584  1.00  0.00     0.010 C 
HETATM    7  C4  UNL     1      21.424   0.761  49.812  1.00  0.00     0.016 A 
HETATM    8  C1  UNL     1      23.610   3.584  48.605  1.00  0.00    -0.024 C 
HETATM    9  C16 UNL     1      24.728   3.623  49.560  1.00  0.00     0.047 C 
HETATM   10  C15 UNL     1      24.336   3.846  50.988  1.00  0.00     0.128 C 
ENDBRANCH   1   2
BRANCH   1  11
HETATM   11  N2  UNL     1      25.156   2.355  53.331  1.00  0.00    -0.274 NA
HETATM   12  C8  UNL     1      25.874   1.309  53.316  1.00  0.00     0.037 A 
HETATM   13  C9  UNL     1      27.256   1.525  53.726  1.00  0.00     0.066 A 
HETATM   14  C14 UNL     1      25.355  -0.016  52.915  1.00  0.00     0.089 A 
HETATM   15  C10 UNL     1      28.113   0.500  53.752  1.00  0.00     0.106 A 
HETATM   16  O1  UNL     1      29.456   0.370  54.085  1.00  0.00    -0.323 OA
HETATM   17  C12 UNL     1      27.681  -0.860  53.369  1.00  0.00     0.101 A 
HETATM   18  C11 UNL     1      29.940  -0.860  53.526  1.00  0.00     0.352 C 
HETATM   19  O2  UNL     1      28.779  -1.669  53.503  1.00  0.00    -0.323 OA
HETATM   20  C13 UNL     1      26.423  -1.041  52.998  1.00  0.00     0.019 A 
ENDBRANCH   1  11
TORSDOF 2
ENDMDL
MODEL 2
REMARK VINA RESULT:      -7.7      0.975      2.606
REMARK  2 active torsions:
REMARK  status: ('A' for Active; 'I' for Inactive)
REMARK    1  A    between atoms: N1_7  and  C7_8 
REMARK    2  A    between atoms: C7_8  and  N2_9 
ROOT
HETATM    1  C7  UNL     1      23.363   1.182  52.994  1.00  0.00     0.273 C 
ENDROOT
BRANCH   1   2
HETATM    2  N1  UNL     1      22.656   1.181  51.738  1.00  0.00    -0.362 N 
HETATM    3  C6  UNL     1      23.263   2.118  50.830  1.00  0.00     0.042 A 
HETATM    4  C3  UNL     1      22.881   2.289  49.411  1.00  0.00    -0.010 A 
HETATM    5  C5  UNL     1      24.172   3.072  50.647  1.00  0.00     0.031 A 
HETATM    6  C2  UNL     1      21.832   1.553  48.671  1.00  0.00     0.010 C 
HETATM    7  C4  UNL     1      23.797   3.248  49.234  1.00  0.00     0.016 A 
HETATM    8  C1  UNL     1      20.810   0.950  49.268  1.00  0.00    -0.024 C 
HETATM    9  C16 UNL     1      20.443   0.838  50.689  1.00  0.00     0.047 C 
HETATM   10  C15 UNL     1      21.520   0.301  51.582  1.00  0.00     0.128 C 
ENDBRANCH   1   2
BRANCH   1  11
HETATM   11  N2  UNL     1      24.399   0.201  53.011  1.00  0.00    -0.274 NA
HETATM   12  C8  UNL     1      25.647   0.380  53.146  1.00  0.00     0.037 A 
HETATM   13  C9  UNL     1      26.435  -0.847  53.118  1.00  0.00     0.066 A 
HETATM   14  C14 UNL     1      26.253   1.717  53.317  1.00  0.00     0.089 A 
HETATM   15  C10 UNL     1      27.763  -0.791  53.250  1.00  0.00     0.106 A 
HETATM   16  O1  UNL     1      28.775  -1.743  53.267  1.00  0.00    -0.323 OA
HETATM   17  C12 UNL     1      28.454   0.503  53.425  1.00  0.00     0.101 A 
HETATM   18  C11 UNL     1      29.943  -1.149  53.855  1.00  0.00     0.352 C 
HETATM   19  O2  UNL     1      29.792   0.220  53.529  1.00  0.00    -0.323 OA
HETATM   20  C13 UNL     1      27.726   1.609  53.448  1.00  0.00     0.019 A 
ENDBRANCH   1  11
TORSDOF 2
ENDMDL
MODEL 3
REMARK VINA RESULT:      -7.7      2.016      3.547
REMARK  2 active torsions:
REMARK  status: ('A' for Active; 'I' for Inactive)
REMARK    1  A    between atoms: N1_7  and  C7_8 
REMARK    2  A    between atoms: C7_8  and  N2_9 
ROOT
HETATM    1  C7  UNL     1      23.407   1.665  52.704  1.00  0.00     0.273 C 
ENDROOT
BRANCH   1   2
HETATM    2  N1  UNL     1      22.094   1.090  52.546  1.00  0.00    -0.362 N 
HETATM    3  C6  UNL     1      21.915   0.006  53.476  1.00  0.00     0.042 A 
HETATM    4  C3  UNL     1      20.649  -0.729  53.683  1.00  0.00    -0.010 A 
HETATM    5  C5  UNL     1      22.463  -0.779  54.400  1.00  0.00     0.031 A 
HETATM    6  C2  UNL     1      19.358  -0.501  52.997  1.00  0.00     0.010 C 
HETATM    7  C4  UNL     1      21.205  -1.515  54.611  1.00  0.00     0.016 A 
HETATM    8  C1  UNL     1      19.261   0.093  51.812  1.00  0.00    -0.024 C 
HETATM    9  C16 UNL     1      20.287   0.647  50.916  1.00  0.00     0.047 C 
HETATM   10  C15 UNL     1      21.209   1.646  51.547  1.00  0.00     0.128 C 
ENDBRANCH   1   2
BRANCH   1  11
HETATM   11  N2  UNL     1      24.424   0.665  52.656  1.00  0.00    -0.274 NA
HETATM   12  C8  UNL     1      25.657   0.786  52.928  1.00  0.00     0.037 A 
HETATM   13  C9  UNL     1      26.427  -0.443  52.775  1.00  0.00     0.066 A 
HETATM   14  C14 UNL     1      26.262   2.062  53.363  1.00  0.00     0.089 A 
HETATM   15  C10 UNL     1      27.738  -0.445  53.032  1.00  0.00     0.106 A 
HETATM   16  O1  UNL     1      28.732  -1.415  52.986  1.00  0.00    -0.323 OA
HETATM   17  C12 UNL     1      28.427   0.786  53.472  1.00  0.00     0.101 A 
HETATM   18  C11 UNL     1      29.848  -0.954  53.763  1.00  0.00     0.352 C 
HETATM   19  O2  UNL     1      29.745   0.453  53.648  1.00  0.00    -0.323 OA
HETATM   20  C13 UNL     1      27.714   1.894  53.607  1.00  0.00     0.019 A 
ENDBRANCH   1  11
TORSDOF 2
ENDMDL
MODEL 4
REMARK VINA RESULT:      -7.5      2.185      3.422
REMARK  2 active torsions:
REMARK  status: ('A' for Active; 'I' for Inactive)
REMARK    1  A    between atoms: N1_7  and  C7_8 
REMARK    2  A    between atoms: C7_8  and  N2_9 
ROOT
HETATM    1  C7  UNL     1      24.900   3.114  51.157  1.00  0.00     0.273 C 
ENDROOT
BRANCH   1   2
HETATM    2  N1  UNL     1      24.865   4.475  50.684  1.00  0.00    -0.362 N 
HETATM    3  C6  UNL     1      25.955   4.711  49.776  1.00  0.00     0.042 A 
HETATM    4  C3  UNL     1      26.157   5.955  49.001  1.00  0.00    -0.010 A 
HETATM    5  C5  UNL     1      27.065   4.241  49.212  1.00  0.00     0.031 A 
HETATM    6  C2  UNL     1      25.302   7.163  49.008  1.00  0.00     0.010 C 
HETATM    7  C4  UNL     1      27.271   5.476  48.438  1.00  0.00     0.016 A 
HETATM    8  C1  UNL     1      24.488   7.470  50.012  1.00  0.00    -0.024 C 
HETATM    9  C16 UNL     1      24.213   6.785  51.284  1.00  0.00     0.047 C 
HETATM   10  C15 UNL     1      23.811   5.346  51.157  1.00  0.00     0.128 C 
ENDBRANCH   1   2
BRANCH   1  11
HETATM   11  N2  UNL     1      26.112   2.837  51.859  1.00  0.00    -0.274 NA
HETATM   12  C8  UNL     1      26.575   1.709  52.209  1.00  0.00     0.037 A 
HETATM   13  C9  UNL     1      27.848   1.779  52.917  1.00  0.00     0.066 A 
HETATM   14  C14 UNL     1      25.886   0.433  51.923  1.00  0.00     0.089 A 
HETATM   15  C10 UNL     1      28.439   0.657  53.338  1.00  0.00     0.106 A 
HETATM   16  O1  UNL     1      29.618   0.383  54.022  1.00  0.00    -0.323 OA
HETATM   17  C12 UNL     1      27.822  -0.663  53.097  1.00  0.00     0.101 A 
HETATM   18  C11 UNL     1      29.939  -1.003  53.827  1.00  0.00     0.352 C 
HETATM   19  O2  UNL     1      28.666  -1.594  53.645  1.00  0.00    -0.323 OA
HETATM   20  C13 UNL     1      26.667  -0.711  52.452  1.00  0.00     0.019 A 
ENDBRANCH   1  11
TORSDOF 2
ENDMDL
MODEL 5
REMARK VINA RESULT:      -7.3      1.355      2.496
REMARK  2 active torsions:
REMARK  status: ('A' for Active; 'I' for Inactive)
REMARK    1  A    between atoms: N1_7  and  C7_8 
REMARK    2  A    between atoms: C7_8  and  N2_9 
ROOT
HETATM    1  C7  UNL     1      22.552   2.852  52.306  1.00  0.00     0.273 C 
ENDROOT
BRANCH   1   2
HETATM    2  N1  UNL     1      22.417   2.495  50.915  1.00  0.00    -0.362 N 
HETATM    3  C6  UNL     1      22.820   3.597  50.082  1.00  0.00     0.042 A 
HETATM    4  C3  UNL     1      22.933   3.545  48.608  1.00  0.00    -0.010 A 
HETATM    5  C5  UNL     1      23.206   4.868  50.015  1.00  0.00     0.031 A 
HETATM    6  C2  UNL     1      22.663   2.385  47.729  1.00  0.00     0.010 C 
HETATM    7  C4  UNL     1      23.321   4.823  48.548  1.00  0.00     0.016 A 
HETATM    8  C1  UNL     1      21.880   1.372  48.085  1.00  0.00    -0.024 C 
HETATM    9  C16 UNL     1      21.125   1.115  49.321  1.00  0.00     0.047 C 
HETATM   10  C15 UNL     1      21.932   1.174  50.582  1.00  0.00     0.128 C 
ENDBRANCH   1   2
BRANCH   1  11
HETATM   11  N2  UNL     1      23.921   2.885  52.706  1.00  0.00    -0.274 NA
HETATM   12  C8  UNL     1      24.620   1.943  53.189  1.00  0.00     0.037 A 
HETATM   13  C9  UNL     1      25.997   2.315  53.494  1.00  0.00     0.066 A 
HETATM   14  C14 UNL     1      24.086   0.585  53.423  1.00  0.00     0.089 A 
HETATM   15  C10 UNL     1      26.834   1.409  54.008  1.00  0.00     0.106 A 
HETATM   16  O1  UNL     1      28.167   1.437  54.400  1.00  0.00    -0.323 OA
HETATM   17  C12 UNL     1      26.387   0.027  54.275  1.00  0.00     0.101 A 
HETATM   18  C11 UNL     1      28.642   0.085  54.477  1.00  0.00     0.352 C 
HETATM   19  O2  UNL     1      27.467  -0.639  54.793  1.00  0.00    -0.323 OA
HETATM   20  C13 UNL     1      25.134  -0.296  53.993  1.00  0.00     0.019 A 
ENDBRANCH   1  11
TORSDOF 2
ENDMDL
MODEL 6
REMARK VINA RESULT:      -7.1      3.776      6.903
REMARK  2 active torsions:
REMARK  status: ('A' for Active; 'I' for Inactive)
REMARK    1  A    between atoms: N1_7  and  C7_8 
REMARK    2  A    between atoms: C7_8  and  N2_9 
ROOT
HETATM    1  C7  UNL     1      25.687   1.169  51.936  1.00  0.00     0.273 C 
ENDROOT
BRANCH   1   2
HETATM    2  N1  UNL     1      26.968   0.859  52.519  1.00  0.00    -0.362 N 
HETATM    3  C6  UNL     1      27.135  -0.567  52.616  1.00  0.00     0.042 A 
HETATM    4  C3  UNL     1      28.376  -1.246  53.046  1.00  0.00    -0.010 A 
HETATM    5  C5  UNL     1      26.587  -1.771  52.471  1.00  0.00     0.031 A 
HETATM    6  C2  UNL     1      29.651  -0.611  53.449  1.00  0.00     0.010 C 
HETATM    7  C4  UNL     1      27.820  -2.453  52.898  1.00  0.00     0.016 A 
HETATM    8  C1  UNL     1      29.731   0.640  53.889  1.00  0.00    -0.024 C 
HETATM    9  C16 UNL     1      28.698   1.667  54.091  1.00  0.00     0.047 C 
HETATM   10  C15 UNL     1      27.841   1.949  52.895  1.00  0.00     0.128 C 
ENDBRANCH   1   2
BRANCH   1  11
HETATM   11  N2  UNL     1      25.746   2.355  51.145  1.00  0.00    -0.274 NA
HETATM   12  C8  UNL     1      25.055   3.413  51.263  1.00  0.00     0.037 A 
HETATM   13  C9  UNL     1      25.369   4.446  50.284  1.00  0.00     0.066 A 
HETATM   14  C14 UNL     1      24.021   3.584  52.306  1.00  0.00     0.089 A 
HETATM   15  C10 UNL     1      24.710   5.608  50.304  1.00  0.00     0.106 A 
HETATM   16  O1  UNL     1      24.763   6.765  49.536  1.00  0.00    -0.323 OA
HETATM   17  C12 UNL     1      23.659   5.866  51.311  1.00  0.00     0.101 A 
HETATM   18  C11 UNL     1      24.131   7.823  50.272  1.00  0.00     0.352 C 
HETATM   19  O2  UNL     1      23.185   7.128  51.063  1.00  0.00    -0.323 OA
HETATM   20  C13 UNL     1      23.385   4.919  52.194  1.00  0.00     0.019 A 
ENDBRANCH   1  11
TORSDOF 2
ENDMDL
MODEL 7
REMARK VINA RESULT:      -7.0      4.102      6.607
REMARK  2 active torsions:
REMARK  status: ('A' for Active; 'I' for Inactive)
REMARK    1  A    between atoms: N1_7  and  C7_8 
REMARK    2  A    between atoms: C7_8  and  N2_9 
ROOT
HETATM    1  C7  UNL     1      25.307   2.867  50.421  1.00  0.00     0.273 C 
ENDROOT
BRANCH   1   2
HETATM    2  N1  UNL     1      25.714   2.109  51.577  1.00  0.00    -0.362 N 
HETATM    3  C6  UNL     1      24.598   1.365  52.098  1.00  0.00     0.042 A 
HETATM    4  C3  UNL     1      24.676   0.382  53.200  1.00  0.00    -0.010 A 
HETATM    5  C5  UNL     1      23.293   1.111  52.033  1.00  0.00     0.031 A 
HETATM    6  C2  UNL     1      25.882  -0.018  53.959  1.00  0.00     0.010 C 
HETATM    7  C4  UNL     1      23.365   0.130  53.129  1.00  0.00     0.016 A 
HETATM    8  C1  UNL     1      26.966   0.745  54.054  1.00  0.00    -0.024 C 
HETATM    9  C16 UNL     1      27.272   2.072  53.498  1.00  0.00     0.047 C 
HETATM   10  C15 UNL     1      27.089   2.198  52.016  1.00  0.00     0.128 C 
ENDBRANCH   1   2
BRANCH   1  11
HETATM   11  N2  UNL     1      26.432   3.401  49.724  1.00  0.00    -0.274 NA
HETATM   12  C8  UNL     1      26.618   4.592  49.328  1.00  0.00     0.037 A 
HETATM   13  C9  UNL     1      27.886   4.805  48.642  1.00  0.00     0.066 A 
HETATM   14  C14 UNL     1      25.633   5.673  49.545  1.00  0.00     0.089 A 
HETATM   15  C10 UNL     1      28.199   6.017  48.177  1.00  0.00     0.106 A 
HETATM   16  O1  UNL     1      29.292   6.541  47.498  1.00  0.00    -0.323 OA
HETATM   17  C12 UNL     1      27.274   7.157  48.348  1.00  0.00     0.101 A 
HETATM   18  C11 UNL     1      29.263   7.970  47.633  1.00  0.00     0.352 C 
HETATM   19  O2  UNL     1      27.881   8.241  47.769  1.00  0.00    -0.323 OA
HETATM   20  C13 UNL     1      26.126   6.949  48.973  1.00  0.00     0.019 A 
ENDBRANCH   1  11
TORSDOF 2
ENDMDL
MODEL 8
REMARK VINA RESULT:      -7.0      3.447      6.465
REMARK  2 active torsions:
REMARK  status: ('A' for Active; 'I' for Inactive)
REMARK    1  A    between atoms: N1_7  and  C7_8 
REMARK    2  A    between atoms: C7_8  and  N2_9 
ROOT
HETATM    1  C7  UNL     1      23.191   1.205  51.372  1.00  0.00     0.273 C 
ENDROOT
BRANCH   1   2
HETATM    2  N1  UNL     1      23.260   0.447  52.597  1.00  0.00    -0.362 N 
HETATM    3  C6  UNL     1      24.628   0.121  52.899  1.00  0.00     0.042 A 
HETATM    4  C3  UNL     1      25.086  -0.538  54.142  1.00  0.00    -0.010 A 
HETATM    5  C5  UNL     1      25.899   0.143  52.504  1.00  0.00     0.031 A 
HETATM    6  C2  UNL     1      24.252  -0.977  55.282  1.00  0.00     0.010 C 
HETATM    7  C4  UNL     1      26.361  -0.513  53.738  1.00  0.00     0.016 A 
HETATM    8  C1  UNL     1      22.952  -1.232  55.175  1.00  0.00    -0.024 C 
HETATM    9  C16 UNL     1      22.041  -1.165  54.022  1.00  0.00     0.047 C 
HETATM   10  C15 UNL     1      22.030   0.146  53.296  1.00  0.00     0.128 C 
ENDBRANCH   1   2
BRANCH   1  11
HETATM   11  N2  UNL     1      23.147   2.608  51.628  1.00  0.00    -0.274 NA
HETATM   12  C8  UNL     1      23.856   3.523  51.110  1.00  0.00     0.037 A 
HETATM   13  C9  UNL     1      23.554   4.864  51.597  1.00  0.00     0.066 A 
HETATM   14  C14 UNL     1      24.900   3.255  50.099  1.00  0.00     0.089 A 
HETATM   15  C10 UNL     1      24.233   5.914  51.127  1.00  0.00     0.106 A 
HETATM   16  O1  UNL     1      24.194   7.281  51.374  1.00  0.00    -0.323 OA
HETATM   17  C12 UNL     1      25.295   5.739  50.115  1.00  0.00     0.101 A 
HETATM   18  C11 UNL     1      24.849   7.953  50.288  1.00  0.00     0.352 C 
HETATM   19  O2  UNL     1      25.789   6.990  49.848  1.00  0.00    -0.323 OA
HETATM   20  C13 UNL     1      25.558   4.516  49.682  1.00  0.00     0.019 A 
ENDBRANCH   1  11
TORSDOF 2
ENDMDL
MODEL 9
REMARK VINA RESULT:      -7.0      4.112      6.883
REMARK  2 active torsions:
REMARK  status: ('A' for Active; 'I' for Inactive)
REMARK    1  A    between atoms: N1_7  and  C7_8 
REMARK    2  A    between atoms: C7_8  and  N2_9 
ROOT
HETATM    1  C7  UNL     1      26.044   2.545  50.870  1.00  0.00     0.273 C 
ENDROOT
BRANCH   1   2
HETATM    2  N1  UNL     1      25.111   1.742  51.621  1.00  0.00    -0.362 N 
HETATM    3  C6  UNL     1      25.781   0.595  52.174  1.00  0.00     0.042 A 
HETATM    4  C3  UNL     1      25.166  -0.376  53.104  1.00  0.00    -0.010 A 
HETATM    5  C5  UNL     1      26.900  -0.122  52.246  1.00  0.00     0.031 A 
HETATM    6  C2  UNL     1      23.784  -0.359  53.632  1.00  0.00     0.010 C 
HETATM    7  C4  UNL     1      26.293  -1.093  53.172  1.00  0.00     0.016 A 
HETATM    8  C1  UNL     1      22.783   0.270  53.025  1.00  0.00    -0.024 C 
HETATM    9  C16 UNL     1      22.741   1.056  51.783  1.00  0.00     0.047 C 
HETATM   10  C15 UNL     1      23.734   2.175  51.705  1.00  0.00     0.128 C 
ENDBRANCH   1   2
BRANCH   1  11
HETATM   11  N2  UNL     1      25.417   3.711  50.336  1.00  0.00    -0.274 NA
HETATM   12  C8  UNL     1      25.933   4.620  49.617  1.00  0.00     0.037 A 
HETATM   13  C9  UNL     1      25.008   5.681  49.238  1.00  0.00     0.066 A 
HETATM   14  C14 UNL     1      27.350   4.604  49.197  1.00  0.00     0.089 A 
HETATM   15  C10 UNL     1      25.431   6.697  48.480  1.00  0.00     0.106 A 
HETATM   16  O1  UNL     1      24.825   7.833  47.959  1.00  0.00    -0.323 OA
HETATM   17  C12 UNL     1      26.832   6.764  48.016  1.00  0.00     0.101 A 
HETATM   18  C11 UNL     1      25.645   8.330  46.890  1.00  0.00     0.352 C 
HETATM   19  O2  UNL     1      26.941   7.910  47.272  1.00  0.00    -0.323 OA
HETATM   20  C13 UNL     1      27.661   5.793  48.367  1.00  0.00     0.019 A 
ENDBRANCH   1  11
TORSDOF 2
ENDMDL
