MODEL 1
REMARK VINA RESULT:      -7.6      0.000      0.000
REMARK  7 active torsions:
REMARK  status: ('A' for Active; 'I' for Inactive)
REMARK    1  A    between atoms: C1_2  and  N1_3 
REMARK    2  A    between atoms: N1_3  and  C2_4 
REMARK    3  A    between atoms: N2_11  and  C9_13 
REMARK    4  A    between atoms: C9_13  and  C10_14 
REMARK    5  A    between atoms: C10_14  and  C11_15 
REMARK    6  A    between atoms: C11_15  and  C12_16 
REMARK    7  A    between atoms: C17_22  and  O2_23 
ROOT
HETATM    1  O1  UNL     1      21.258  -1.205  55.007  1.00  0.00    -0.238 OA
HETATM    2  C1  UNL     1      22.475  -1.062  54.801  1.00  0.00     0.244 A 
HETATM    3  N2  UNL     1      22.177  -0.372  53.602  1.00  0.00    -0.276 N 
HETATM    4  S1  UNL     1      20.420  -0.473  53.715  1.00  0.00     0.014 SA
HETATM    5  H9  UNL     1      19.938   0.461  54.624  1.00  0.00     0.145 HD
ENDROOT
BRANCH   3   6
HETATM    6  C9  UNL     1      22.899   0.288  52.490  1.00  0.00     0.142 C 
BRANCH   6   7
HETATM    7  C10 UNL     1      23.220   1.655  52.971  1.00  0.00     0.026 C 
BRANCH   7   8
HETATM    8  C11 UNL     1      24.595   2.163  52.726  1.00  0.00     0.043 C 
BRANCH   8   9
HETATM    9  C12 UNL     1      24.725   2.941  51.476  1.00  0.00    -0.023 A 
HETATM   10  C13 UNL     1      23.543   3.334  50.835  1.00  0.00     0.010 A 
HETATM   11  C14 UNL     1      23.474   4.045  49.655  1.00  0.00     0.002 A 
HETATM   12  C15 UNL     1      24.653   4.408  49.042  1.00  0.00     0.026 A 
HETATM   13  C16 UNL     1      25.857   4.042  49.640  1.00  0.00     0.067 A 
HETATM   14 CL1  UNL     1      27.382   4.479  48.901  1.00  0.00    -0.081 Cl
HETATM   15  C17 UNL     1      25.867   3.335  50.815  1.00  0.00     0.093 A 
BRANCH  15  16
HETATM   16  O2  UNL     1      27.069   2.985  51.391  1.00  0.00    -0.358 OA
HETATM   17  H19 UNL     1      27.216   2.009  51.648  1.00  0.00     0.217 HD
ENDBRANCH  15  16
ENDBRANCH   8   9
ENDBRANCH   7   8
ENDBRANCH   6   7
ENDBRANCH   3   6
BRANCH   2  18
HETATM   18  N1  UNL     1      23.650  -1.440  55.492  1.00  0.00    -0.330 N 
HETATM   19  H1  UNL     1      23.284  -2.255  56.018  1.00  0.00     0.168 HD
BRANCH  18  20
HETATM   20  C2  UNL     1      24.902  -0.807  55.404  1.00  0.00     0.099 C 
HETATM   21  C3  UNL     1      25.883  -0.632  54.579  1.00  0.00    -0.039 A 
HETATM   22  C4  UNL     1      26.029  -1.139  53.205  1.00  0.00     0.067 A 
HETATM   23  C8  UNL     1      26.981   0.191  55.125  1.00  0.00     0.009 A 
HETATM   24  C5  UNL     1      27.335  -0.691  52.608  1.00  0.00    -0.022 A 
HETATM   25  C6  UNL     1      28.300   0.048  53.122  1.00  0.00    -0.004 A 
HETATM   26  C7  UNL     1      28.080   0.506  54.478  1.00  0.00     0.000 A 
ENDBRANCH  18  20
ENDBRANCH   2  18
TORSDOF 7
ENDMDL
MODEL 2
REMARK VINA RESULT:      -7.6      3.866      6.026
REMARK  7 active torsions:
REMARK  status: ('A' for Active; 'I' for Inactive)
REMARK    1  A    between atoms: C1_2  and  N1_3 
REMARK    2  A    between atoms: N1_3  and  C2_4 
REMARK    3  A    between atoms: N2_11  and  C9_13 
REMARK    4  A    between atoms: C9_13  and  C10_14 
REMARK    5  A    between atoms: C10_14  and  C11_15 
REMARK    6  A    between atoms: C11_15  and  C12_16 
REMARK    7  A    between atoms: C17_22  and  O2_23 
ROOT
HETATM    1  O1  UNL     1      25.028   5.632  50.019  1.00  0.00    -0.238 OA
HETATM    2  C1  UNL     1      25.323   4.565  50.582  1.00  0.00     0.244 A 
HETATM    3  N2  UNL     1      24.039   4.539  51.175  1.00  0.00    -0.276 N 
HETATM    4  S1  UNL     1      23.434   6.037  50.470  1.00  0.00     0.014 SA
HETATM    5  H9  UNL     1      23.062   5.835  49.147  1.00  0.00     0.145 HD
ENDROOT
BRANCH   3   6
HETATM    6  C9  UNL     1      23.252   3.677  52.089  1.00  0.00     0.142 C 
BRANCH   6   7
HETATM    7  C10 UNL     1      22.486   2.754  51.215  1.00  0.00     0.026 C 
BRANCH   7   8
HETATM    8  C11 UNL     1      22.869   1.319  51.229  1.00  0.00     0.043 C 
BRANCH   8   9
HETATM    9  C12 UNL     1      22.192   0.535  52.283  1.00  0.00    -0.023 A 
HETATM   10  C13 UNL     1      22.964   0.126  53.379  1.00  0.00     0.010 A 
HETATM   11  C14 UNL     1      22.508  -0.625  54.441  1.00  0.00     0.002 A 
HETATM   12  C15 UNL     1      21.186  -1.014  54.444  1.00  0.00     0.026 A 
HETATM   13  C16 UNL     1      20.375  -0.633  53.378  1.00  0.00     0.067 A 
HETATM   14 CL1  UNL     1      18.690  -1.102  53.334  1.00  0.00    -0.081 Cl
HETATM   15  C17 UNL     1      20.883   0.115  52.346  1.00  0.00     0.093 A 
BRANCH  15  16
HETATM   16  O2  UNL     1      20.063   0.485  51.303  1.00  0.00    -0.358 OA
HETATM   17  H19 UNL     1      20.338   0.224  50.356  1.00  0.00     0.217 HD
ENDBRANCH  15  16
ENDBRANCH   8   9
ENDBRANCH   7   8
ENDBRANCH   6   7
ENDBRANCH   3   6
BRANCH   2  18
HETATM   18  N1  UNL     1      26.471   3.739  50.606  1.00  0.00    -0.330 N 
HETATM   19  H1  UNL     1      27.175   4.416  50.256  1.00  0.00     0.168 HD
BRANCH  18  20
HETATM   20  C2  UNL     1      26.515   2.393  51.012  1.00  0.00     0.099 C 
HETATM   21  C3  UNL     1      26.493   1.666  52.081  1.00  0.00    -0.039 A 
HETATM   22  C4  UNL     1      26.397   2.099  53.484  1.00  0.00     0.067 A 
HETATM   23  C8  UNL     1      26.577   0.216  51.816  1.00  0.00     0.009 A 
HETATM   24  C5  UNL     1      26.403   0.913  54.409  1.00  0.00    -0.022 A 
HETATM   25  C6  UNL     1      26.478  -0.378  54.143  1.00  0.00    -0.004 A 
HETATM   26  C7  UNL     1      26.571  -0.720  52.738  1.00  0.00     0.000 A 
ENDBRANCH  18  20
ENDBRANCH   2  18
TORSDOF 7
ENDMDL
MODEL 3
REMARK VINA RESULT:      -7.5      3.074      4.641
REMARK  7 active torsions:
REMARK  status: ('A' for Active; 'I' for Inactive)
REMARK    1  A    between atoms: C1_2  and  N1_3 
REMARK    2  A    between atoms: N1_3  and  C2_4 
REMARK    3  A    between atoms: N2_11  and  C9_13 
REMARK    4  A    between atoms: C9_13  and  C10_14 
REMARK    5  A    between atoms: C10_14  and  C11_15 
REMARK    6  A    between atoms: C11_15  and  C12_16 
REMARK    7  A    between atoms: C17_22  and  O2_23 
ROOT
HETATM    1  O1  UNL     1      28.290  -0.520  54.532  1.00  0.00    -0.238 OA
HETATM    2  C1  UNL     1      27.125  -0.168  54.283  1.00  0.00     0.244 A 
HETATM    3  N2  UNL     1      27.628   0.971  53.611  1.00  0.00    -0.276 N 
HETATM    4  S1  UNL     1      29.342   0.642  53.863  1.00  0.00     0.014 SA
HETATM    5  H9  UNL     1      29.783  -0.338  52.982  1.00  0.00     0.145 HD
ENDROOT
BRANCH   3   6
HETATM    6  C9  UNL     1      27.110   2.152  52.881  1.00  0.00     0.142 C 
BRANCH   6   7
HETATM    7  C10 UNL     1      26.725   1.659  51.535  1.00  0.00     0.026 C 
BRANCH   7   8
HETATM    8  C11 UNL     1      26.487   2.672  50.475  1.00  0.00     0.043 C 
BRANCH   8   9
HETATM    9  C12 UNL     1      25.182   3.355  50.589  1.00  0.00    -0.023 A 
HETATM   10  C13 UNL     1      24.049   2.553  50.784  1.00  0.00     0.010 A 
HETATM   11  C14 UNL     1      22.754   3.013  50.893  1.00  0.00     0.002 A 
HETATM   12  C15 UNL     1      22.535   4.371  50.807  1.00  0.00     0.026 A 
HETATM   13  C16 UNL     1      23.628   5.212  50.614  1.00  0.00     0.067 A 
HETATM   14 CL1  UNL     1      23.403   6.944  50.498  1.00  0.00    -0.081 Cl
HETATM   15  C17 UNL     1      24.896   4.699  50.513  1.00  0.00     0.093 A 
BRANCH  15  16
HETATM   16  O2  UNL     1      25.964   5.550  50.326  1.00  0.00    -0.358 OA
HETATM   17  H19 UNL     1      25.842   6.536  50.556  1.00  0.00     0.217 HD
ENDBRANCH  15  16
ENDBRANCH   8   9
ENDBRANCH   7   8
ENDBRANCH   6   7
ENDBRANCH   3   6
BRANCH   2  18
HETATM   18  N1  UNL     1      25.845  -0.700  54.564  1.00  0.00    -0.330 N 
HETATM   19  H1  UNL     1      26.074  -1.260  55.406  1.00  0.00     0.168 HD
BRANCH  18  20
HETATM   20  C2  UNL     1      24.669  -0.459  53.831  1.00  0.00     0.099 C 
HETATM   21  C3  UNL     1      23.387  -0.610  53.912  1.00  0.00    -0.039 A 
HETATM   22  C4  UNL     1      22.598  -1.193  55.009  1.00  0.00     0.067 A 
HETATM   23  C8  UNL     1      22.654  -0.118  52.728  1.00  0.00     0.009 A 
HETATM   24  C5  UNL     1      21.130  -1.166  54.682  1.00  0.00    -0.022 A 
HETATM   25  C6  UNL     1      20.502  -0.717  53.611  1.00  0.00    -0.004 A 
HETATM   26  C7  UNL     1      21.350  -0.160  52.578  1.00  0.00     0.000 A 
ENDBRANCH  18  20
ENDBRANCH   2  18
TORSDOF 7
ENDMDL
MODEL 4
REMARK VINA RESULT:      -7.4      3.472      5.488
REMARK  7 active torsions:
REMARK  status: ('A' for Active; 'I' for Inactive)
REMARK    1  A    between atoms: C1_2  and  N1_3 
REMARK    2  A    between atoms: N1_3  and  C2_4 
REMARK    3  A    between atoms: N2_11  and  C9_13 
REMARK    4  A    between atoms: C9_13  and  C10_14 
REMARK    5  A    between atoms: C10_14  and  C11_15 
REMARK    6  A    between atoms: C11_15  and  C12_16 
REMARK    7  A    between atoms: C17_22  and  O2_23 
ROOT
HETATM    1  O1  UNL     1      21.703   3.355  49.242  1.00  0.00    -0.238 OA
HETATM    2  C1  UNL     1      21.500   3.217  50.460  1.00  0.00     0.244 A 
HETATM    3  N2  UNL     1      22.800   3.712  50.718  1.00  0.00    -0.276 N 
HETATM    4  S1  UNL     1      23.278   3.978  49.042  1.00  0.00     0.014 SA
HETATM    5  H9  UNL     1      22.700   5.143  48.552  1.00  0.00     0.145 HD
ENDROOT
BRANCH   3   6
HETATM    6  C9  UNL     1      23.671   3.996  51.883  1.00  0.00     0.142 C 
BRANCH   6   7
HETATM    7  C10 UNL     1      24.079   2.673  52.415  1.00  0.00     0.026 C 
BRANCH   7   8
HETATM    8  C11 UNL     1      25.141   2.649  53.454  1.00  0.00     0.043 C 
BRANCH   8   9
HETATM    9  C12 UNL     1      26.072   1.508  53.325  1.00  0.00    -0.023 A 
HETATM   10  C13 UNL     1      25.530   0.274  52.943  1.00  0.00     0.010 A 
HETATM   11  C14 UNL     1      26.241  -0.898  52.792  1.00  0.00     0.002 A 
HETATM   12  C15 UNL     1      27.598  -0.873  53.032  1.00  0.00     0.026 A 
HETATM   13  C16 UNL     1      28.186   0.331  53.413  1.00  0.00     0.067 A 
HETATM   14 CL1  UNL     1      29.905   0.415  53.729  1.00  0.00    -0.081 Cl
HETATM   15  C17 UNL     1      27.429   1.467  53.548  1.00  0.00     0.093 A 
BRANCH  15  16
HETATM   16  O2  UNL     1      28.032   2.648  53.923  1.00  0.00    -0.358 OA
HETATM   17  H19 UNL     1      28.885   2.599  54.480  1.00  0.00     0.217 HD
ENDBRANCH  15  16
ENDBRANCH   8   9
ENDBRANCH   7   8
ENDBRANCH   6   7
ENDBRANCH   3   6
BRANCH   2  18
HETATM   18  N1  UNL     1      20.413   2.756  51.240  1.00  0.00    -0.330 N 
HETATM   19  H1  UNL     1      19.629   3.165  50.697  1.00  0.00     0.168 HD
BRANCH  18  20
HETATM   20  C2  UNL     1      20.503   1.971  52.402  1.00  0.00     0.099 C 
HETATM   21  C3  UNL     1      21.047   0.881  52.838  1.00  0.00    -0.039 A 
HETATM   22  C4  UNL     1      21.912  -0.066  52.117  1.00  0.00     0.067 A 
HETATM   23  C8  UNL     1      20.735   0.585  54.251  1.00  0.00     0.009 A 
HETATM   24  C5  UNL     1      22.323  -1.201  53.015  1.00  0.00    -0.022 A 
HETATM   25  C6  UNL     1      22.029  -1.440  54.279  1.00  0.00    -0.004 A 
HETATM   26  C7  UNL     1      21.172  -0.460  54.916  1.00  0.00     0.000 A 
ENDBRANCH  18  20
ENDBRANCH   2  18
TORSDOF 7
ENDMDL
MODEL 5
REMARK VINA RESULT:      -7.3      3.892      5.769
REMARK  7 active torsions:
REMARK  status: ('A' for Active; 'I' for Inactive)
REMARK    1  A    between atoms: C1_2  and  N1_3 
REMARK    2  A    between atoms: N1_3  and  C2_4 
REMARK    3  A    between atoms: N2_11  and  C9_13 
REMARK    4  A    between atoms: C9_13  and  C10_14 
REMARK    5  A    between atoms: C10_14  and  C11_15 
REMARK    6  A    between atoms: C11_15  and  C12_16 
REMARK    7  A    between atoms: C17_22  and  O2_23 
ROOT
HETATM    1  O1  UNL     1      22.209   5.026  52.348  1.00  0.00    -0.238 OA
HETATM    2  C1  UNL     1      23.159   4.247  52.164  1.00  0.00     0.244 A 
HETATM    3  N2  UNL     1      22.611   3.898  50.907  1.00  0.00    -0.276 N 
HETATM    4  S1  UNL     1      21.193   4.943  50.980  1.00  0.00     0.014 SA
HETATM    5  H9  UNL     1      21.545   6.258  50.702  1.00  0.00     0.145 HD
ENDROOT
BRANCH   3   6
HETATM    6  C9  UNL     1      22.925   3.007  49.765  1.00  0.00     0.142 C 
BRANCH   6   7
HETATM    7  C10 UNL     1      22.708   1.625  50.259  1.00  0.00     0.026 C 
BRANCH   7   8
HETATM    8  C11 UNL     1      21.324   1.087  50.208  1.00  0.00     0.043 C 
BRANCH   8   9
HETATM    9  C12 UNL     1      20.905   0.412  51.454  1.00  0.00    -0.023 A 
HETATM   10  C13 UNL     1      21.899   0.124  52.398  1.00  0.00     0.010 A 
HETATM   11  C14 UNL     1      21.696  -0.515  53.603  1.00  0.00     0.002 A 
HETATM   12  C15 UNL     1      20.415  -0.912  53.922  1.00  0.00     0.026 A 
HETATM   13  C16 UNL     1      19.389  -0.648  53.017  1.00  0.00     0.067 A 
HETATM   14 CL1  UNL     1      17.746  -1.131  53.376  1.00  0.00    -0.081 Cl
HETATM   15  C17 UNL     1      19.650  -0.008  51.833  1.00  0.00     0.093 A 
BRANCH  15  16
HETATM   16  O2  UNL     1      18.619   0.246  50.953  1.00  0.00    -0.358 OA
HETATM   17  H19 UNL     1      18.272   1.202  50.879  1.00  0.00     0.217 HD
ENDBRANCH  15  16
ENDBRANCH   8   9
ENDBRANCH   7   8
ENDBRANCH   6   7
ENDBRANCH   3   6
BRANCH   2  18
HETATM   18  N1  UNL     1      24.300   3.878  52.914  1.00  0.00    -0.330 N 
HETATM   19  H1  UNL     1      24.752   4.808  53.003  1.00  0.00     0.168 HD
BRANCH  18  20
HETATM   20  C2  UNL     1      24.619   2.582  53.354  1.00  0.00     0.099 C 
HETATM   21  C3  UNL     1      25.301   1.541  53.001  1.00  0.00    -0.039 A 
HETATM   22  C4  UNL     1      26.117   1.344  51.792  1.00  0.00     0.067 A 
HETATM   23  C8  UNL     1      25.225   0.425  53.965  1.00  0.00     0.009 A 
HETATM   24  C5  UNL     1      26.740  -0.025  51.787  1.00  0.00    -0.022 A 
HETATM   25  C6  UNL     1      26.655  -1.005  52.667  1.00  0.00    -0.004 A 
HETATM   26  C7  UNL     1      25.831  -0.733  53.827  1.00  0.00     0.000 A 
ENDBRANCH  18  20
ENDBRANCH   2  18
TORSDOF 7
ENDMDL
MODEL 6
REMARK VINA RESULT:      -7.3      3.660      6.658
REMARK  7 active torsions:
REMARK  status: ('A' for Active; 'I' for Inactive)
REMARK    1  A    between atoms: C1_2  and  N1_3 
REMARK    2  A    between atoms: N1_3  and  C2_4 
REMARK    3  A    between atoms: N2_11  and  C9_13 
REMARK    4  A    between atoms: C9_13  and  C10_14 
REMARK    5  A    between atoms: C10_14  and  C11_15 
REMARK    6  A    between atoms: C11_15  and  C12_16 
REMARK    7  A    between atoms: C17_22  and  O2_23 
ROOT
HETATM    1  O1  UNL     1      28.383   1.781  53.681  1.00  0.00    -0.238 OA
HETATM    2  C1  UNL     1      27.483   1.843  52.827  1.00  0.00     0.244 A 
HETATM    3  N2  UNL     1      26.980   0.602  53.287  1.00  0.00    -0.276 N 
HETATM    4  S1  UNL     1      28.174   0.333  54.557  1.00  0.00     0.014 SA
HETATM    5  H9  UNL     1      27.881   1.109  55.671  1.00  0.00     0.145 HD
ENDROOT
BRANCH   3   6
HETATM    6  C9  UNL     1      25.872  -0.332  52.980  1.00  0.00     0.142 C 
BRANCH   6   7
HETATM    7  C10 UNL     1      24.642   0.314  53.500  1.00  0.00     0.026 C 
BRANCH   7   8
HETATM    8  C11 UNL     1      23.546  -0.572  53.968  1.00  0.00     0.043 C 
BRANCH   8   9
HETATM    9  C12 UNL     1      22.261  -0.345  53.275  1.00  0.00    -0.023 A 
HETATM   10  C13 UNL     1      22.288   0.422  52.103  1.00  0.00     0.010 A 
HETATM   11  C14 UNL     1      21.189   0.751  51.338  1.00  0.00     0.002 A 
HETATM   12  C15 UNL     1      19.953   0.295  51.743  1.00  0.00     0.026 A 
HETATM   13  C16 UNL     1      19.872  -0.473  52.902  1.00  0.00     0.067 A 
HETATM   14 CL1  UNL     1      18.326  -1.076  53.459  1.00  0.00    -0.081 Cl
HETATM   15  C17 UNL     1      21.000  -0.770  53.624  1.00  0.00     0.093 A 
BRANCH  15  16
HETATM   16  O2  UNL     1      20.897  -1.535  54.766  1.00  0.00    -0.358 OA
HETATM   17  H19 UNL     1      20.381  -2.413  54.714  1.00  0.00     0.217 HD
ENDBRANCH  15  16
ENDBRANCH   8   9
ENDBRANCH   7   8
ENDBRANCH   6   7
ENDBRANCH   3   6
BRANCH   2  18
HETATM   18  N1  UNL     1      27.128   2.774  51.824  1.00  0.00    -0.330 N 
HETATM   19  H1  UNL     1      27.984   3.359  51.824  1.00  0.00     0.168 HD
BRANCH  18  20
HETATM   20  C2  UNL     1      25.921   2.794  51.102  1.00  0.00     0.099 C 
HETATM   21  C3  UNL     1      25.248   3.545  50.292  1.00  0.00    -0.039 A 
HETATM   22  C4  UNL     1      25.599   4.875  49.767  1.00  0.00     0.067 A 
HETATM   23  C8  UNL     1      23.966   2.954  49.859  1.00  0.00     0.009 A 
HETATM   24  C5  UNL     1      24.522   5.385  48.849  1.00  0.00    -0.022 A 
HETATM   25  C6  UNL     1      23.382   4.832  48.478  1.00  0.00    -0.004 A 
HETATM   26  C7  UNL     1      23.112   3.524  49.039  1.00  0.00     0.000 A 
ENDBRANCH  18  20
ENDBRANCH   2  18
TORSDOF 7
ENDMDL
MODEL 7
REMARK VINA RESULT:      -7.3      3.071      5.762
REMARK  7 active torsions:
REMARK  status: ('A' for Active; 'I' for Inactive)
REMARK    1  A    between atoms: C1_2  and  N1_3 
REMARK    2  A    between atoms: N1_3  and  C2_4 
REMARK    3  A    between atoms: N2_11  and  C9_13 
REMARK    4  A    between atoms: C9_13  and  C10_14 
REMARK    5  A    between atoms: C10_14  and  C11_15 
REMARK    6  A    between atoms: C11_15  and  C12_16 
REMARK    7  A    between atoms: C17_22  and  O2_23 
ROOT
HETATM    1  O1  UNL     1      21.514   2.550  50.280  1.00  0.00    -0.238 OA
HETATM    2  C1  UNL     1      22.210   3.052  51.179  1.00  0.00     0.244 A 
HETATM    3  N2  UNL     1      22.269   1.790  51.817  1.00  0.00    -0.276 N 
HETATM    4  S1  UNL     1      21.299   0.899  50.646  1.00  0.00     0.014 SA
HETATM    5  H9  UNL     1      22.053   0.602  49.517  1.00  0.00     0.145 HD
ENDROOT
BRANCH   3   6
HETATM    6  C9  UNL     1      22.864   1.185  53.032  1.00  0.00     0.142 C 
BRANCH   6   7
HETATM    7  C10 UNL     1      24.306   1.532  52.992  1.00  0.00     0.026 C 
BRANCH   7   8
HETATM    8  C11 UNL     1      25.243   0.516  52.447  1.00  0.00     0.043 C 
BRANCH   8   9
HETATM    9  C12 UNL     1      26.634   0.678  52.918  1.00  0.00    -0.023 A 
HETATM   10  C13 UNL     1      27.096   1.985  53.126  1.00  0.00     0.010 A 
HETATM   11  C14 UNL     1      28.365   2.326  53.543  1.00  0.00     0.002 A 
HETATM   12  C15 UNL     1      29.268   1.312  53.780  1.00  0.00     0.026 A 
HETATM   13  C16 UNL     1      28.857  -0.005  53.589  1.00  0.00     0.067 A 
HETATM   14 CL1  UNL     1      29.966  -1.329  53.877  1.00  0.00    -0.081 Cl
HETATM   15  C17 UNL     1      27.581  -0.287  53.173  1.00  0.00     0.093 A 
BRANCH  15  16
HETATM   16  O2  UNL     1      27.196  -1.598  52.993  1.00  0.00    -0.358 OA
HETATM   17  H19 UNL     1      26.214  -1.835  53.132  1.00  0.00     0.217 HD
ENDBRANCH  15  16
ENDBRANCH   8   9
ENDBRANCH   7   8
ENDBRANCH   6   7
ENDBRANCH   3   6
BRANCH   2  18
HETATM   18  N1  UNL     1      22.717   4.347  51.437  1.00  0.00    -0.330 N 
HETATM   19  H1  UNL     1      22.145   4.592  52.266  1.00  0.00     0.168 HD
BRANCH  18  20
HETATM   20  C2  UNL     1      23.719   5.005  50.701  1.00  0.00     0.099 C 
HETATM   21  C3  UNL     1      24.864   4.783  50.143  1.00  0.00    -0.039 A 
HETATM   22  C4  UNL     1      25.633   3.529  50.090  1.00  0.00     0.067 A 
HETATM   23  C8  UNL     1      25.443   5.969  49.481  1.00  0.00     0.009 A 
HETATM   24  C5  UNL     1      26.918   3.723  49.332  1.00  0.00    -0.022 A 
HETATM   25  C6  UNL     1      27.411   4.799  48.749  1.00  0.00    -0.004 A 
HETATM   26  C7  UNL     1      26.594   5.992  48.847  1.00  0.00     0.000 A 
ENDBRANCH  18  20
ENDBRANCH   2  18
TORSDOF 7
ENDMDL
MODEL 8
REMARK VINA RESULT:      -7.2      3.973      6.068
REMARK  7 active torsions:
REMARK  status: ('A' for Active; 'I' for Inactive)
REMARK    1  A    between atoms: C1_2  and  N1_3 
REMARK    2  A    between atoms: N1_3  and  C2_4 
REMARK    3  A    between atoms: N2_11  and  C9_13 
REMARK    4  A    between atoms: C9_13  and  C10_14 
REMARK    5  A    between atoms: C10_14  and  C11_15 
REMARK    6  A    between atoms: C11_15  and  C12_16 
REMARK    7  A    between atoms: C17_22  and  O2_23 
ROOT
HETATM    1  O1  UNL     1      24.655   6.409  50.671  1.00  0.00    -0.238 OA
HETATM    2  C1  UNL     1      24.374   5.305  51.166  1.00  0.00     0.244 A 
HETATM    3  N2  UNL     1      25.037   4.670  50.090  1.00  0.00    -0.276 N 
HETATM    4  S1  UNL     1      25.531   6.130  49.234  1.00  0.00     0.014 SA
HETATM    5  H9  UNL     1      26.633   6.707  49.854  1.00  0.00     0.145 HD
ENDROOT
BRANCH   3   6
HETATM    6  C9  UNL     1      25.343   3.296  49.627  1.00  0.00     0.142 C 
BRANCH   6   7
HETATM    7  C10 UNL     1      26.619   2.921  50.285  1.00  0.00     0.026 C 
BRANCH   7   8
HETATM    8  C11 UNL     1      26.607   2.755  51.761  1.00  0.00     0.043 C 
BRANCH   8   9
HETATM    9  C12 UNL     1      26.988   1.399  52.209  1.00  0.00    -0.023 A 
HETATM   10  C13 UNL     1      26.059   0.369  52.010  1.00  0.00     0.010 A 
HETATM   11  C14 UNL     1      26.235  -0.947  52.380  1.00  0.00     0.002 A 
HETATM   12  C15 UNL     1      27.416  -1.299  52.997  1.00  0.00     0.026 A 
HETATM   13  C16 UNL     1      28.374  -0.312  53.216  1.00  0.00     0.067 A 
HETATM   14 CL1  UNL     1      29.890  -0.707  53.996  1.00  0.00    -0.081 Cl
HETATM   15  C17 UNL     1      28.146   0.983  52.827  1.00  0.00     0.093 A 
BRANCH  15  16
HETATM   16  O2  UNL     1      29.108   1.944  53.051  1.00  0.00    -0.358 OA
HETATM   17  H19 UNL     1      29.021   2.531  53.881  1.00  0.00     0.217 HD
ENDBRANCH  15  16
ENDBRANCH   8   9
ENDBRANCH   7   8
ENDBRANCH   6   7
ENDBRANCH   3   6
BRANCH   2  18
HETATM   18  N1  UNL     1      23.679   4.884  52.324  1.00  0.00    -0.330 N 
HETATM   19  H1  UNL     1      23.466   5.810  52.741  1.00  0.00     0.168 HD
BRANCH  18  20
HETATM   20  C2  UNL     1      23.416   3.553  52.693  1.00  0.00     0.099 C 
HETATM   21  C3  UNL     1      22.826   2.488  52.256  1.00  0.00    -0.039 A 
HETATM   22  C4  UNL     1      22.105   2.292  50.988  1.00  0.00     0.067 A 
HETATM   23  C8  UNL     1      22.913   1.339  53.179  1.00  0.00     0.009 A 
HETATM   24  C5  UNL     1      21.577   0.887  50.888  1.00  0.00    -0.022 A 
HETATM   25  C6  UNL     1      21.671  -0.123  51.732  1.00  0.00    -0.004 A 
HETATM   26  C7  UNL     1      22.395   0.152  52.956  1.00  0.00     0.000 A 
ENDBRANCH  18  20
ENDBRANCH   2  18
TORSDOF 7
ENDMDL
MODEL 9
REMARK VINA RESULT:      -7.1      2.927      4.668
REMARK  7 active torsions:
REMARK  status: ('A' for Active; 'I' for Inactive)
REMARK    1  A    between atoms: C1_2  and  N1_3 
REMARK    2  A    between atoms: N1_3  and  C2_4 
REMARK    3  A    between atoms: N2_11  and  C9_13 
REMARK    4  A    between atoms: C9_13  and  C10_14 
REMARK    5  A    between atoms: C10_14  and  C11_15 
REMARK    6  A    between atoms: C11_15  and  C12_16 
REMARK    7  A    between atoms: C17_22  and  O2_23 
ROOT
HETATM    1  O1  UNL     1      26.067  -0.339  55.252  1.00  0.00    -0.238 OA
HETATM    2  C1  UNL     1      25.265  -0.434  54.308  1.00  0.00     0.244 A 
HETATM    3  N2  UNL     1      26.268   0.038  53.428  1.00  0.00    -0.276 N 
HETATM    4  S1  UNL     1      27.544   0.242  54.627  1.00  0.00     0.014 SA
HETATM    5  H9  UNL     1      28.106  -0.986  54.951  1.00  0.00     0.145 HD
ENDROOT
BRANCH   3   6
HETATM    6  C9  UNL     1      26.431   0.337  51.986  1.00  0.00     0.142 C 
BRANCH   6   7
HETATM    7  C10 UNL     1      26.316   1.812  51.863  1.00  0.00     0.026 C 
BRANCH   7   8
HETATM    8  C11 UNL     1      25.185   2.473  52.564  1.00  0.00     0.043 C 
BRANCH   8   9
HETATM    9  C12 UNL     1      24.247   3.165  51.656  1.00  0.00    -0.023 A 
HETATM   10  C13 UNL     1      24.002   2.574  50.409  1.00  0.00     0.010 A 
HETATM   11  C14 UNL     1      23.176   3.086  49.431  1.00  0.00     0.002 A 
HETATM   12  C15 UNL     1      22.529   4.277  49.683  1.00  0.00     0.026 A 
HETATM   13  C16 UNL     1      22.738   4.905  50.908  1.00  0.00     0.067 A 
HETATM   14 CL1  UNL     1      21.939   6.418  51.276  1.00  0.00    -0.081 Cl
HETATM   15  C17 UNL     1      23.571   4.349  51.845  1.00  0.00     0.093 A 
BRANCH  15  16
HETATM   16  O2  UNL     1      23.762   4.986  53.052  1.00  0.00    -0.358 OA
HETATM   17  H19 UNL     1      23.970   5.984  53.044  1.00  0.00     0.217 HD
ENDBRANCH  15  16
ENDBRANCH   8   9
ENDBRANCH   7   8
ENDBRANCH   6   7
ENDBRANCH   3   6
BRANCH   2  18
HETATM   18  N1  UNL     1      23.918  -0.846  54.187  1.00  0.00    -0.330 N 
HETATM   19  H1  UNL     1      23.814  -1.355  55.085  1.00  0.00     0.168 HD
BRANCH  18  20
HETATM   20  C2  UNL     1      23.063  -0.577  53.104  1.00  0.00     0.099 C 
HETATM   21  C3  UNL     1      22.168   0.274  52.719  1.00  0.00    -0.039 A 
HETATM   22  C4  UNL     1      21.662   1.459  53.429  1.00  0.00     0.067 A 
HETATM   23  C8  UNL     1      21.607  -0.017  51.384  1.00  0.00     0.009 A 
HETATM   24  C5  UNL     1      20.621   2.169  52.606  1.00  0.00    -0.022 A 
HETATM   25  C6  UNL     1      20.137   1.884  51.411  1.00  0.00    -0.004 A 
HETATM   26  C7  UNL     1      20.688   0.702  50.781  1.00  0.00     0.000 A 
ENDBRANCH  18  20
ENDBRANCH   2  18
TORSDOF 7
ENDMDL
