MODEL 1
REMARK VINA RESULT:      -7.1      0.000      0.000
REMARK  10 active torsions:
REMARK  status: ('A' for Active; 'I' for Inactive)
REMARK    1  A    between atoms: N1_1  and  C1_2 
REMARK    2  A    between atoms: C2_3  and  C3_4 
REMARK    3  A    between atoms: C3_4  and  C4_5 
REMARK    4  A    between atoms: C4_5  and  C5_6 
REMARK    5  A    between atoms: N2_9  and  C7_10 
REMARK    6  A    between atoms: C7_10  and  N3_11 
REMARK    7  A    between atoms: N3_11  and  C8_12 
REMARK    8  A    between atoms: C12_16  and  O1_17 
REMARK    9  A    between atoms: O1_17  and  C13_18 
REMARK   10  A    between atoms: C13_18  and  C14_21 
ROOT
HETATM    1  N3  UNL     1      22.833   3.195  52.257  1.00  0.00    -0.372 N 
HETATM    2  H11 UNL     1      22.513   3.962  52.890  1.00  0.00     0.161 HD
ENDROOT
BRANCH   1   3
HETATM    3  C7  UNL     1      21.824   2.456  51.519  1.00  0.00     0.270 C 
BRANCH   3   4
HETATM    4  N2  UNL     1      21.076   1.587  52.366  1.00  0.00    -0.275 NA
HETATM    5  C3  UNL     1      21.415   0.439  52.806  1.00  0.00     0.035 C 
BRANCH   5   6
HETATM    6  C2  UNL     1      20.231   0.120  53.583  1.00  0.00     0.043 C 
HETATM    7  C1  UNL     1      19.273  -0.780  53.456  1.00  0.00     0.082 C 
BRANCH   7   8
HETATM    8  N1  UNL     1      18.092  -1.510  53.745  1.00  0.00    -0.408 N 
HETATM    9  H1  UNL     1      17.461  -1.775  52.941  1.00  0.00     0.155 HD
HETATM   10  H2  UNL     1      17.903  -1.758  54.762  1.00  0.00     0.155 HD
ENDBRANCH   7   8
ENDBRANCH   5   6
BRANCH   5  11
HETATM   11  C4  UNL     1      22.358  -0.716  52.942  1.00  0.00     0.088 C 
BRANCH  11  12
HETATM   12  C5  UNL     1      23.217  -0.563  54.142  1.00  0.00     0.009 C 
HETATM   13  C6  UNL     1      23.068  -1.373  55.209  1.00  0.00     0.184 C 
HETATM   14  F1  UNL     1      22.085  -2.253  54.980  1.00  0.00    -0.220 F 
ENDBRANCH  11  12
ENDBRANCH   5  11
ENDBRANCH   3   4
ENDBRANCH   1   3
BRANCH   1  15
HETATM   15  C8  UNL     1      24.209   2.881  52.117  1.00  0.00     0.031 A 
HETATM   16  C9  UNL     1      24.831   3.047  50.905  1.00  0.00     0.029 A 
HETATM   17  C10 UNL     1      26.172   2.715  50.868  1.00  0.00     0.005 A 
HETATM   18  C11 UNL     1      26.885   2.242  51.949  1.00  0.00     0.037 A 
HETATM   19  C12 UNL     1      26.243   2.079  53.165  1.00  0.00     0.077 A 
HETATM   20  C15 UNL     1      24.907   2.409  53.207  1.00  0.00     0.066 A 
BRANCH  19  21
HETATM   21  O1  UNL     1      26.833   1.617  54.326  1.00  0.00    -0.279 OA
BRANCH  21  22
HETATM   22  C13 UNL     1      27.013   0.246  54.620  1.00  0.00     0.418 C 
HETATM   23  F2  UNL     1      26.305  -0.141  55.745  1.00  0.00    -0.169 F 
HETATM   24  F3  UNL     1      26.621  -0.584  53.607  1.00  0.00    -0.169 F 
BRANCH  22  25
HETATM   25  C14 UNL     1      28.506   0.051  54.904  1.00  0.00     0.455 C 
HETATM   26  F4  UNL     1      29.011  -0.968  54.124  1.00  0.00    -0.205 F 
HETATM   27  F5  UNL     1      29.220   1.201  54.591  1.00  0.00    -0.205 F 
ENDBRANCH  22  25
ENDBRANCH  21  22
ENDBRANCH  19  21
ENDBRANCH   1  15
TORSDOF 10
ENDMDL
MODEL 2
REMARK VINA RESULT:      -7.0      3.164      6.179
REMARK  10 active torsions:
REMARK  status: ('A' for Active; 'I' for Inactive)
REMARK    1  A    between atoms: N1_1  and  C1_2 
REMARK    2  A    between atoms: C2_3  and  C3_4 
REMARK    3  A    between atoms: C3_4  and  C4_5 
REMARK    4  A    between atoms: C4_5  and  C5_6 
REMARK    5  A    between atoms: N2_9  and  C7_10 
REMARK    6  A    between atoms: C7_10  and  N3_11 
REMARK    7  A    between atoms: N3_11  and  C8_12 
REMARK    8  A    between atoms: C12_16  and  O1_17 
REMARK    9  A    between atoms: O1_17  and  C13_18 
REMARK   10  A    between atoms: C13_18  and  C14_21 
ROOT
HETATM    1  N3  UNL     1      24.209   4.104  52.967  1.00  0.00    -0.372 N 
HETATM    2  H11 UNL     1      24.960   4.591  53.507  1.00  0.00     0.161 HD
ENDROOT
BRANCH   1   3
HETATM    3  C7  UNL     1      23.280   4.920  52.204  1.00  0.00     0.270 C 
BRANCH   3   4
HETATM    4  N2  UNL     1      23.943   5.979  51.518  1.00  0.00    -0.275 NA
HETATM    5  C3  UNL     1      24.521   5.935  50.381  1.00  0.00     0.035 C 
BRANCH   5   6
HETATM    6  C2  UNL     1      24.968   7.313  50.286  1.00  0.00     0.043 C 
HETATM    7  C1  UNL     1      26.146   7.898  50.400  1.00  0.00     0.082 C 
BRANCH   7   8
HETATM    8  N1  UNL     1      27.116   8.933  50.427  1.00  0.00    -0.408 N 
HETATM    9  H1  UNL     1      27.213   9.546  49.573  1.00  0.00     0.155 HD
HETATM   10  H2  UNL     1      27.697   9.040  51.312  1.00  0.00     0.155 HD
ENDBRANCH   7   8
ENDBRANCH   5   6
BRANCH   5  11
HETATM   11  C4  UNL     1      24.967   5.237  49.134  1.00  0.00     0.088 C 
BRANCH  11  12
HETATM   12  C5  UNL     1      26.070   4.288  49.423  1.00  0.00     0.009 C 
HETATM   13  C6  UNL     1      27.305   4.486  48.920  1.00  0.00     0.184 C 
HETATM   14  F1  UNL     1      27.323   5.604  48.182  1.00  0.00    -0.220 F 
ENDBRANCH  11  12
ENDBRANCH   5  11
ENDBRANCH   3   4
ENDBRANCH   1   3
BRANCH   1  15
HETATM   15  C8  UNL     1      24.095   2.691  52.977  1.00  0.00     0.031 A 
HETATM   16  C9  UNL     1      22.940   2.093  52.537  1.00  0.00     0.029 A 
HETATM   17  C10 UNL     1      22.923   0.712  52.583  1.00  0.00     0.005 A 
HETATM   18  C11 UNL     1      23.971  -0.062  53.035  1.00  0.00     0.037 A 
HETATM   19  C12 UNL     1      25.129   0.556  53.476  1.00  0.00     0.077 A 
HETATM   20  C15 UNL     1      25.151   1.931  53.431  1.00  0.00     0.066 A 
BRANCH  19  21
HETATM   21  O1  UNL     1      26.251  -0.094  53.951  1.00  0.00    -0.279 OA
BRANCH  21  22
HETATM   22  C13 UNL     1      27.222  -0.693  53.116  1.00  0.00     0.418 C 
HETATM   23  F2  UNL     1      27.048  -2.062  53.014  1.00  0.00    -0.169 F 
HETATM   24  F3  UNL     1      27.219  -0.203  51.839  1.00  0.00    -0.169 F 
BRANCH  22  25
HETATM   25  C14 UNL     1      28.583  -0.432  53.769  1.00  0.00     0.455 C 
HETATM   26  F4  UNL     1      29.178   0.678  53.206  1.00  0.00    -0.205 F 
HETATM   27  F5  UNL     1      28.436  -0.174  55.126  1.00  0.00    -0.205 F 
ENDBRANCH  22  25
ENDBRANCH  21  22
ENDBRANCH  19  21
ENDBRANCH   1  15
TORSDOF 10
ENDMDL
MODEL 3
REMARK VINA RESULT:      -7.0      2.967      6.245
REMARK  10 active torsions:
REMARK  status: ('A' for Active; 'I' for Inactive)
REMARK    1  A    between atoms: N1_1  and  C1_2 
REMARK    2  A    between atoms: C2_3  and  C3_4 
REMARK    3  A    between atoms: C3_4  and  C4_5 
REMARK    4  A    between atoms: C4_5  and  C5_6 
REMARK    5  A    between atoms: N2_9  and  C7_10 
REMARK    6  A    between atoms: C7_10  and  N3_11 
REMARK    7  A    between atoms: N3_11  and  C8_12 
REMARK    8  A    between atoms: C12_16  and  O1_17 
REMARK    9  A    between atoms: O1_17  and  C13_18 
REMARK   10  A    between atoms: C13_18  and  C14_21 
ROOT
HETATM    1  N3  UNL     1      23.736   2.527  51.567  1.00  0.00    -0.372 N 
HETATM    2  H11 UNL     1      22.957   3.133  51.911  1.00  0.00     0.161 HD
ENDROOT
BRANCH   1   3
HETATM    3  C7  UNL     1      24.355   2.870  50.299  1.00  0.00     0.270 C 
BRANCH   3   4
HETATM    4  N2  UNL     1      24.749   4.238  50.252  1.00  0.00    -0.275 NA
HETATM    5  C3  UNL     1      25.773   4.741  49.680  1.00  0.00     0.035 C 
BRANCH   5   6
HETATM    6  C2  UNL     1      25.572   6.140  50.012  1.00  0.00     0.043 C 
HETATM    7  C1  UNL     1      24.699   6.780  50.767  1.00  0.00     0.082 C 
BRANCH   7   8
HETATM    8  N1  UNL     1      24.042   7.860  51.411  1.00  0.00    -0.408 N 
HETATM    9  H1  UNL     1      24.471   8.246  52.296  1.00  0.00     0.155 HD
HETATM   10  H2  UNL     1      23.149   8.229  50.967  1.00  0.00     0.155 HD
ENDBRANCH   7   8
ENDBRANCH   5   6
BRANCH   5  11
HETATM   11  C4  UNL     1      27.030   4.653  48.872  1.00  0.00     0.088 C 
BRANCH  11  12
HETATM   12  C5  UNL     1      27.498   6.003  48.470  1.00  0.00     0.009 C 
HETATM   13  C6  UNL     1      28.746   6.192  48.000  1.00  0.00     0.184 C 
HETATM   14  F1  UNL     1      29.406   5.027  47.975  1.00  0.00    -0.220 F 
ENDBRANCH  11  12
ENDBRANCH   5  11
ENDBRANCH   3   4
ENDBRANCH   1   3
BRANCH   1  15
HETATM   15  C8  UNL     1      24.178   1.403  52.311  1.00  0.00     0.031 A 
HETATM   16  C9  UNL     1      23.273   0.648  53.014  1.00  0.00     0.029 A 
HETATM   17  C10 UNL     1      23.798  -0.426  53.707  1.00  0.00     0.005 A 
HETATM   18  C11 UNL     1      25.136  -0.760  53.725  1.00  0.00     0.037 A 
HETATM   19  C12 UNL     1      26.036   0.012  53.010  1.00  0.00     0.077 A 
HETATM   20  C15 UNL     1      25.518   1.084  52.318  1.00  0.00     0.066 A 
BRANCH  19  21
HETATM   21  O1  UNL     1      27.398  -0.206  52.939  1.00  0.00    -0.279 OA
BRANCH  21  22
HETATM   22  C13 UNL     1      28.307   0.185  53.949  1.00  0.00     0.418 C 
HETATM   23  F2  UNL     1      28.763   1.479  53.766  1.00  0.00    -0.169 F 
HETATM   24  F3  UNL     1      27.778   0.131  55.209  1.00  0.00    -0.169 F 
BRANCH  22  25
HETATM   25  C14 UNL     1      29.507  -0.763  53.849  1.00  0.00     0.455 C 
HETATM   26  F4  UNL     1      29.172  -1.881  53.115  1.00  0.00    -0.205 F 
HETATM   27  F5  UNL     1      30.567  -0.146  53.197  1.00  0.00    -0.205 F 
ENDBRANCH  22  25
ENDBRANCH  21  22
ENDBRANCH  19  21
ENDBRANCH   1  15
TORSDOF 10
ENDMDL
MODEL 4
REMARK VINA RESULT:      -6.9      2.855      5.333
REMARK  10 active torsions:
REMARK  status: ('A' for Active; 'I' for Inactive)
REMARK    1  A    between atoms: N1_1  and  C1_2 
REMARK    2  A    between atoms: C2_3  and  C3_4 
REMARK    3  A    between atoms: C3_4  and  C4_5 
REMARK    4  A    between atoms: C4_5  and  C5_6 
REMARK    5  A    between atoms: N2_9  and  C7_10 
REMARK    6  A    between atoms: C7_10  and  N3_11 
REMARK    7  A    between atoms: N3_11  and  C8_12 
REMARK    8  A    between atoms: C12_16  and  O1_17 
REMARK    9  A    between atoms: O1_17  and  C13_18 
REMARK   10  A    between atoms: C13_18  and  C14_21 
ROOT
HETATM    1  N3  UNL     1      24.355   3.660  53.105  1.00  0.00    -0.372 N 
HETATM    2  H11 UNL     1      25.110   4.067  53.702  1.00  0.00     0.161 HD
ENDROOT
BRANCH   1   3
HETATM    3  C7  UNL     1      23.582   4.567  52.273  1.00  0.00     0.270 C 
BRANCH   3   4
HETATM    4  N2  UNL     1      24.253   4.873  51.054  1.00  0.00    -0.275 NA
HETATM    5  C3  UNL     1      24.242   4.208  49.965  1.00  0.00     0.035 C 
BRANCH   5   6
HETATM    6  C2  UNL     1      25.104   5.053  49.158  1.00  0.00     0.043 C 
HETATM    7  C1  UNL     1      26.137   5.827  49.435  1.00  0.00     0.082 C 
BRANCH   7   8
HETATM    8  N1  UNL     1      27.213   6.728  49.227  1.00  0.00    -0.408 N 
HETATM    9  H1  UNL     1      27.046   7.754  49.415  1.00  0.00     0.155 HD
HETATM   10  H2  UNL     1      28.137   6.322  48.891  1.00  0.00     0.155 HD
ENDBRANCH   7   8
ENDBRANCH   5   6
BRANCH   5  11
HETATM   11  C4  UNL     1      23.823   3.055  49.106  1.00  0.00     0.088 C 
BRANCH  11  12
HETATM   12  C5  UNL     1      22.374   3.124  48.795  1.00  0.00     0.009 C 
HETATM   13  C6  UNL     1      21.558   2.084  49.058  1.00  0.00     0.184 C 
HETATM   14  F1  UNL     1      22.259   1.081  49.602  1.00  0.00    -0.220 F 
ENDBRANCH  11  12
ENDBRANCH   5  11
ENDBRANCH   3   4
ENDBRANCH   1   3
BRANCH   1  15
HETATM   15  C8  UNL     1      24.089   2.267  53.102  1.00  0.00     0.031 A 
HETATM   16  C9  UNL     1      22.825   1.811  52.823  1.00  0.00     0.029 A 
HETATM   17  C10 UNL     1      22.663   0.440  52.843  1.00  0.00     0.005 A 
HETATM   18  C11 UNL     1      23.673  -0.457  53.121  1.00  0.00     0.037 A 
HETATM   19  C12 UNL     1      24.943   0.018  53.401  1.00  0.00     0.077 A 
HETATM   20  C15 UNL     1      25.109   1.385  53.382  1.00  0.00     0.066 A 
BRANCH  19  21
HETATM   21  O1  UNL     1      26.043  -0.764  53.695  1.00  0.00    -0.279 OA
BRANCH  21  22
HETATM   22  C13 UNL     1      27.005  -1.153  52.734  1.00  0.00     0.418 C 
HETATM   23  F2  UNL     1      27.035  -2.525  52.555  1.00  0.00    -0.169 F 
HETATM   24  F3  UNL     1      26.797  -0.602  51.500  1.00  0.00    -0.169 F 
BRANCH  22  25
HETATM   25  C14 UNL     1      28.369  -0.712  53.277  1.00  0.00     0.455 C 
HETATM   26  F4  UNL     1      28.263  -0.365  54.608  1.00  0.00    -0.205 F 
HETATM   27  F5  UNL     1      29.289  -1.749  53.195  1.00  0.00    -0.205 F 
ENDBRANCH  22  25
ENDBRANCH  21  22
ENDBRANCH  19  21
ENDBRANCH   1  15
TORSDOF 10
ENDMDL
MODEL 5
REMARK VINA RESULT:      -6.7      2.253      5.116
REMARK  10 active torsions:
REMARK  status: ('A' for Active; 'I' for Inactive)
REMARK    1  A    between atoms: N1_1  and  C1_2 
REMARK    2  A    between atoms: C2_3  and  C3_4 
REMARK    3  A    between atoms: C3_4  and  C4_5 
REMARK    4  A    between atoms: C4_5  and  C5_6 
REMARK    5  A    between atoms: N2_9  and  C7_10 
REMARK    6  A    between atoms: C7_10  and  N3_11 
REMARK    7  A    between atoms: N3_11  and  C8_12 
REMARK    8  A    between atoms: C12_16  and  O1_17 
REMARK    9  A    between atoms: O1_17  and  C13_18 
REMARK   10  A    between atoms: C13_18  and  C14_21 
ROOT
HETATM    1  N3  UNL     1      22.067   1.009  51.747  1.00  0.00    -0.372 N 
HETATM    2  H11 UNL     1      22.077   0.643  50.768  1.00  0.00     0.161 HD
ENDROOT
BRANCH   1   3
HETATM    3  C7  UNL     1      21.353   2.248  52.002  1.00  0.00     0.270 C 
BRANCH   3   4
HETATM    4  N2  UNL     1      22.234   3.367  52.057  1.00  0.00    -0.275 NA
HETATM    5  C3  UNL     1      23.152   3.683  51.230  1.00  0.00     0.035 C 
BRANCH   5   6
HETATM    6  C2  UNL     1      23.644   4.892  51.867  1.00  0.00     0.043 C 
HETATM    7  C1  UNL     1      23.835   6.129  51.447  1.00  0.00     0.082 C 
BRANCH   7   8
HETATM    8  N1  UNL     1      24.193   7.501  51.482  1.00  0.00    -0.408 N 
HETATM    9  H1  UNL     1      25.190   7.749  51.727  1.00  0.00     0.155 HD
HETATM   10  H2  UNL     1      23.436   8.214  51.258  1.00  0.00     0.155 HD
ENDBRANCH   7   8
ENDBRANCH   5   6
BRANCH   5  11
HETATM   11  C4  UNL     1      23.965   3.474  49.990  1.00  0.00     0.088 C 
BRANCH  11  12
HETATM   12  C5  UNL     1      25.307   2.934  50.320  1.00  0.00     0.009 C 
HETATM   13  C6  UNL     1      26.421   3.467  49.780  1.00  0.00     0.184 C 
HETATM   14  F1  UNL     1      26.094   4.481  48.969  1.00  0.00    -0.220 F 
ENDBRANCH  11  12
ENDBRANCH   5  11
ENDBRANCH   3   4
ENDBRANCH   1   3
BRANCH   1  15
HETATM   15  C8  UNL     1      22.728   0.322  52.797  1.00  0.00     0.031 A 
HETATM   16  C9  UNL     1      22.005  -0.445  53.675  1.00  0.00     0.029 A 
HETATM   17  C10 UNL     1      22.735  -1.076  54.664  1.00  0.00     0.005 A 
HETATM   18  C11 UNL     1      24.103  -0.973  54.803  1.00  0.00     0.037 A 
HETATM   19  C12 UNL     1      24.819  -0.194  53.909  1.00  0.00     0.077 A 
HETATM   20  C15 UNL     1      24.095   0.436  52.922  1.00  0.00     0.066 A 
BRANCH  19  21
HETATM   21  O1  UNL     1      26.187  -0.003  53.930  1.00  0.00    -0.279 OA
BRANCH  21  22
HETATM   22  C13 UNL     1      27.083  -0.670  53.064  1.00  0.00     0.418 C 
HETATM   23  F2  UNL     1      26.790  -2.018  52.949  1.00  0.00    -0.169 F 
HETATM   24  F3  UNL     1      27.093  -0.163  51.794  1.00  0.00    -0.169 F 
BRANCH  22  25
HETATM   25  C14 UNL     1      28.476  -0.536  53.688  1.00  0.00     0.455 C 
HETATM   26  F4  UNL     1      29.161   0.510  53.105  1.00  0.00    -0.205 F 
HETATM   27  F5  UNL     1      28.382  -0.259  55.046  1.00  0.00    -0.205 F 
ENDBRANCH  22  25
ENDBRANCH  21  22
ENDBRANCH  19  21
ENDBRANCH   1  15
TORSDOF 10
ENDMDL
MODEL 6
REMARK VINA RESULT:      -6.7      4.084      7.269
REMARK  10 active torsions:
REMARK  status: ('A' for Active; 'I' for Inactive)
REMARK    1  A    between atoms: N1_1  and  C1_2 
REMARK    2  A    between atoms: C2_3  and  C3_4 
REMARK    3  A    between atoms: C3_4  and  C4_5 
REMARK    4  A    between atoms: C4_5  and  C5_6 
REMARK    5  A    between atoms: N2_9  and  C7_10 
REMARK    6  A    between atoms: C7_10  and  N3_11 
REMARK    7  A    between atoms: N3_11  and  C8_12 
REMARK    8  A    between atoms: C12_16  and  O1_17 
REMARK    9  A    between atoms: O1_17  and  C13_18 
REMARK   10  A    between atoms: C13_18  and  C14_21 
ROOT
HETATM    1  N3  UNL     1      26.416   3.770  50.653  1.00  0.00    -0.372 N 
HETATM    2  H11 UNL     1      26.540   4.708  51.097  1.00  0.00     0.161 HD
ENDROOT
BRANCH   1   3
HETATM    3  C7  UNL     1      26.709   3.644  49.236  1.00  0.00     0.270 C 
BRANCH   3   4
HETATM    4  N2  UNL     1      27.729   4.548  48.822  1.00  0.00    -0.275 NA
HETATM    5  C3  UNL     1      27.601   5.770  48.476  1.00  0.00     0.035 C 
BRANCH   5   6
HETATM    6  C2  UNL     1      28.988   6.085  48.186  1.00  0.00     0.043 C 
HETATM    7  C1  UNL     1      30.051   5.350  47.915  1.00  0.00     0.082 C 
BRANCH   7   8
HETATM    8  N1  UNL     1      31.397   5.030  47.602  1.00  0.00    -0.408 N 
HETATM    9  H1  UNL     1      31.724   5.173  46.608  1.00  0.00     0.155 HD
HETATM   10  H2  UNL     1      32.011   4.662  48.388  1.00  0.00     0.155 HD
ENDBRANCH   7   8
ENDBRANCH   5   6
BRANCH   5  11
HETATM   11  C4  UNL     1      26.802   7.010  48.219  1.00  0.00     0.088 C 
BRANCH  11  12
HETATM   12  C5  UNL     1      26.578   7.767  49.475  1.00  0.00     0.009 C 
HETATM   13  C6  UNL     1      25.535   7.483  50.279  1.00  0.00     0.184 C 
HETATM   14  F1  UNL     1      24.818   6.478  49.759  1.00  0.00    -0.220 F 
ENDBRANCH  11  12
ENDBRANCH   5  11
ENDBRANCH   3   4
ENDBRANCH   1   3
BRANCH   1  15
HETATM   15  C8  UNL     1      25.975   2.651  51.405  1.00  0.00     0.031 A 
HETATM   16  C9  UNL     1      24.640   2.496  51.684  1.00  0.00     0.029 A 
HETATM   17  C10 UNL     1      24.307   1.376  52.422  1.00  0.00     0.005 A 
HETATM   18  C11 UNL     1      25.219   0.445  52.874  1.00  0.00     0.037 A 
HETATM   19  C12 UNL     1      26.562   0.616  52.585  1.00  0.00     0.077 A 
HETATM   20  C15 UNL     1      26.899   1.731  51.850  1.00  0.00     0.066 A 
BRANCH  19  21
HETATM   21  O1  UNL     1      27.579  -0.235  52.973  1.00  0.00    -0.279 OA
BRANCH  21  22
HETATM   22  C13 UNL     1      28.439   0.020  54.066  1.00  0.00     0.418 C 
HETATM   23  F2  UNL     1      28.896   1.326  54.074  1.00  0.00    -0.169 F 
HETATM   24  F3  UNL     1      27.852  -0.197  55.282  1.00  0.00    -0.169 F 
BRANCH  22  25
HETATM   25  C14 UNL     1      29.646  -0.908  53.898  1.00  0.00     0.455 C 
HETATM   26  F4  UNL     1      29.361  -1.903  52.987  1.00  0.00    -0.205 F 
HETATM   27  F5  UNL     1      30.741  -0.206  53.410  1.00  0.00    -0.205 F 
ENDBRANCH  22  25
ENDBRANCH  21  22
ENDBRANCH  19  21
ENDBRANCH   1  15
TORSDOF 10
ENDMDL
MODEL 7
REMARK VINA RESULT:      -6.6      2.712      4.800
REMARK  10 active torsions:
REMARK  status: ('A' for Active; 'I' for Inactive)
REMARK    1  A    between atoms: N1_1  and  C1_2 
REMARK    2  A    between atoms: C2_3  and  C3_4 
REMARK    3  A    between atoms: C3_4  and  C4_5 
REMARK    4  A    between atoms: C4_5  and  C5_6 
REMARK    5  A    between atoms: N2_9  and  C7_10 
REMARK    6  A    between atoms: C7_10  and  N3_11 
REMARK    7  A    between atoms: N3_11  and  C8_12 
REMARK    8  A    between atoms: C12_16  and  O1_17 
REMARK    9  A    between atoms: O1_17  and  C13_18 
REMARK   10  A    between atoms: C13_18  and  C14_21 
ROOT
HETATM    1  N3  UNL     1      24.314   3.742  52.765  1.00  0.00    -0.372 N 
HETATM    2  H11 UNL     1      24.986   4.425  53.182  1.00  0.00     0.161 HD
ENDROOT
BRANCH   1   3
HETATM    3  C7  UNL     1      23.162   4.269  52.053  1.00  0.00     0.270 C 
BRANCH   3   4
HETATM    4  N2  UNL     1      23.031   3.694  50.756  1.00  0.00    -0.275 NA
HETATM    5  C3  UNL     1      23.943   3.511  49.883  1.00  0.00     0.035 C 
BRANCH   5   6
HETATM    6  C2  UNL     1      23.151   2.903  48.829  1.00  0.00     0.043 C 
HETATM    7  C1  UNL     1      21.963   2.326  48.801  1.00  0.00     0.082 C 
BRANCH   7   8
HETATM    8  N1  UNL     1      20.822   1.665  48.278  1.00  0.00    -0.408 N 
HETATM    9  H1  UNL     1      20.075   2.253  47.818  1.00  0.00     0.155 HD
HETATM   10  H2  UNL     1      20.778   0.607  48.376  1.00  0.00     0.155 HD
ENDBRANCH   7   8
ENDBRANCH   5   6
BRANCH   5  11
HETATM   11  C4  UNL     1      25.354   3.590  49.387  1.00  0.00     0.088 C 
BRANCH  11  12
HETATM   12  C5  UNL     1      25.792   5.001  49.254  1.00  0.00     0.009 C 
HETATM   13  C6  UNL     1      27.026   5.304  48.806  1.00  0.00     0.184 C 
HETATM   14  F1  UNL     1      27.702   4.180  48.535  1.00  0.00    -0.220 F 
ENDBRANCH  11  12
ENDBRANCH   5  11
ENDBRANCH   3   4
ENDBRANCH   1   3
BRANCH   1  15
HETATM   15  C8  UNL     1      24.514   2.344  52.887  1.00  0.00     0.031 A 
HETATM   16  C9  UNL     1      23.446   1.516  53.127  1.00  0.00     0.029 A 
HETATM   17  C10 UNL     1      23.740   0.170  53.230  1.00  0.00     0.005 A 
HETATM   18  C11 UNL     1      25.007  -0.359  53.110  1.00  0.00     0.037 A 
HETATM   19  C12 UNL     1      26.075   0.489  52.868  1.00  0.00     0.077 A 
HETATM   20  C15 UNL     1      25.787   1.831  52.765  1.00  0.00     0.066 A 
BRANCH  19  21
HETATM   21  O1  UNL     1      27.392   0.097  52.725  1.00  0.00    -0.279 OA
BRANCH  21  22
HETATM   22  C13 UNL     1      28.208  -0.313  53.805  1.00  0.00     0.418 C 
HETATM   23  F2  UNL     1      27.542  -0.243  55.016  1.00  0.00    -0.169 F 
HETATM   24  F3  UNL     1      28.668  -1.595  53.685  1.00  0.00    -0.169 F 
BRANCH  22  25
HETATM   25  C14 UNL     1      29.391   0.660  53.853  1.00  0.00     0.455 C 
HETATM   26  F4  UNL     1      30.504   0.088  53.273  1.00  0.00    -0.205 F 
HETATM   27  F5  UNL     1      29.105   1.817  53.140  1.00  0.00    -0.205 F 
ENDBRANCH  22  25
ENDBRANCH  21  22
ENDBRANCH  19  21
ENDBRANCH   1  15
TORSDOF 10
ENDMDL
MODEL 8
REMARK VINA RESULT:      -6.6      3.699      5.869
REMARK  10 active torsions:
REMARK  status: ('A' for Active; 'I' for Inactive)
REMARK    1  A    between atoms: N1_1  and  C1_2 
REMARK    2  A    between atoms: C2_3  and  C3_4 
REMARK    3  A    between atoms: C3_4  and  C4_5 
REMARK    4  A    between atoms: C4_5  and  C5_6 
REMARK    5  A    between atoms: N2_9  and  C7_10 
REMARK    6  A    between atoms: C7_10  and  N3_11 
REMARK    7  A    between atoms: N3_11  and  C8_12 
REMARK    8  A    between atoms: C12_16  and  O1_17 
REMARK    9  A    between atoms: O1_17  and  C13_18 
REMARK   10  A    between atoms: C13_18  and  C14_21 
ROOT
HETATM    1  N3  UNL     1      26.794   2.720  51.772  1.00  0.00    -0.372 N 
HETATM    2  H11 UNL     1      27.391   3.339  52.366  1.00  0.00     0.161 HD
ENDROOT
BRANCH   1   3
HETATM    3  C7  UNL     1      26.439   3.189  50.444  1.00  0.00     0.270 C 
BRANCH   3   4
HETATM    4  N2  UNL     1      25.338   4.094  50.476  1.00  0.00    -0.275 NA
HETATM    5  C3  UNL     1      24.098   3.824  50.344  1.00  0.00     0.035 C 
BRANCH   5   6
HETATM    6  C2  UNL     1      23.546   5.160  50.475  1.00  0.00     0.043 C 
HETATM    7  C1  UNL     1      23.978   6.272  51.040  1.00  0.00     0.082 C 
BRANCH   7   8
HETATM    8  N1  UNL     1      23.991   7.626  51.466  1.00  0.00    -0.408 N 
HETATM    9  H1  UNL     1      23.837   8.377  50.739  1.00  0.00     0.155 HD
HETATM   10  H2  UNL     1      24.155   7.816  52.499  1.00  0.00     0.155 HD
ENDBRANCH   7   8
ENDBRANCH   5   6
BRANCH   5  11
HETATM   11  C4  UNL     1      22.948   2.889  50.132  1.00  0.00     0.088 C 
BRANCH  11  12
HETATM   12  C5  UNL     1      22.727   2.637  48.687  1.00  0.00     0.009 C 
HETATM   13  C6  UNL     1      22.001   1.581  48.270  1.00  0.00     0.184 C 
HETATM   14  F1  UNL     1      21.566   0.881  49.326  1.00  0.00    -0.220 F 
ENDBRANCH  11  12
ENDBRANCH   5  11
ENDBRANCH   3   4
ENDBRANCH   1   3
BRANCH   1  15
HETATM   15  C8  UNL     1      26.340   1.462  52.243  1.00  0.00     0.031 A 
HETATM   16  C9  UNL     1      27.110   0.342  52.056  1.00  0.00     0.029 A 
HETATM   17  C10 UNL     1      26.585  -0.837  52.550  1.00  0.00     0.005 A 
HETATM   18  C11 UNL     1      25.371  -0.936  53.195  1.00  0.00     0.037 A 
HETATM   19  C12 UNL     1      24.605   0.204  53.376  1.00  0.00     0.077 A 
HETATM   20  C15 UNL     1      25.124   1.381  52.886  1.00  0.00     0.066 A 
BRANCH  19  21
HETATM   21  O1  UNL     1      23.375   0.250  54.003  1.00  0.00    -0.279 OA
BRANCH  21  22
HETATM   22  C13 UNL     1      22.174  -0.194  53.404  1.00  0.00     0.418 C 
HETATM   23  F2  UNL     1      21.124   0.678  53.634  1.00  0.00    -0.169 F 
HETATM   24  F3  UNL     1      22.265  -0.345  52.048  1.00  0.00    -0.169 F 
BRANCH  22  25
HETATM   25  C14 UNL     1      21.830  -1.537  54.055  1.00  0.00     0.455 C 
HETATM   26  F4  UNL     1      22.523  -1.685  55.238  1.00  0.00    -0.205 F 
HETATM   27  F5  UNL     1      20.477  -1.604  54.360  1.00  0.00    -0.205 F 
ENDBRANCH  22  25
ENDBRANCH  21  22
ENDBRANCH  19  21
ENDBRANCH   1  15
TORSDOF 10
ENDMDL
MODEL 9
REMARK VINA RESULT:      -6.5      3.497      6.522
REMARK  10 active torsions:
REMARK  status: ('A' for Active; 'I' for Inactive)
REMARK    1  A    between atoms: N1_1  and  C1_2 
REMARK    2  A    between atoms: C2_3  and  C3_4 
REMARK    3  A    between atoms: C3_4  and  C4_5 
REMARK    4  A    between atoms: C4_5  and  C5_6 
REMARK    5  A    between atoms: N2_9  and  C7_10 
REMARK    6  A    between atoms: C7_10  and  N3_11 
REMARK    7  A    between atoms: N3_11  and  C8_12 
REMARK    8  A    between atoms: C12_16  and  O1_17 
REMARK    9  A    between atoms: O1_17  and  C13_18 
REMARK   10  A    between atoms: C13_18  and  C14_21 
ROOT
HETATM    1  N3  UNL     1      24.730   3.292  52.256  1.00  0.00    -0.372 N 
HETATM    2  H11 UNL     1      25.227   3.981  52.866  1.00  0.00     0.161 HD
ENDROOT
BRANCH   1   3
HETATM    3  C7  UNL     1      24.407   3.694  50.898  1.00  0.00     0.270 C 
BRANCH   3   4
HETATM    4  N2  UNL     1      25.578   3.935  50.122  1.00  0.00    -0.275 NA
HETATM    5  C3  UNL     1      25.904   5.005  49.507  1.00  0.00     0.035 C 
BRANCH   5   6
HETATM    6  C2  UNL     1      27.171   4.579  48.941  1.00  0.00     0.043 C 
HETATM    7  C1  UNL     1      28.246   5.225  48.527  1.00  0.00     0.082 C 
BRANCH   7   8
HETATM    8  N1  UNL     1      29.542   5.435  47.990  1.00  0.00    -0.408 N 
HETATM    9  H1  UNL     1      29.842   6.428  47.789  1.00  0.00     0.155 HD
HETATM   10  H2  UNL     1      30.150   4.580  47.819  1.00  0.00     0.155 HD
ENDBRANCH   7   8
ENDBRANCH   5   6
BRANCH   5  11
HETATM   11  C4  UNL     1      25.679   6.420  49.075  1.00  0.00     0.088 C 
BRANCH  11  12
HETATM   12  C5  UNL     1      25.517   7.314  50.248  1.00  0.00     0.009 C 
HETATM   13  C6  UNL     1      24.297   7.590  50.747  1.00  0.00     0.184 C 
HETATM   14  F1  UNL     1      23.358   6.952  50.035  1.00  0.00    -0.220 F 
ENDBRANCH  11  12
ENDBRANCH   5  11
ENDBRANCH   3   4
ENDBRANCH   1   3
BRANCH   1  15
HETATM   15  C8  UNL     1      24.381   2.004  52.734  1.00  0.00     0.031 A 
HETATM   16  C9  UNL     1      23.060   1.659  52.873  1.00  0.00     0.029 A 
HETATM   17  C10 UNL     1      22.818   0.383  53.345  1.00  0.00     0.005 A 
HETATM   18  C11 UNL     1      23.805  -0.524  53.672  1.00  0.00     0.037 A 
HETATM   19  C12 UNL     1      25.133  -0.161  53.527  1.00  0.00     0.077 A 
HETATM   20  C15 UNL     1      25.379   1.110  53.057  1.00  0.00     0.066 A 
BRANCH  19  21
HETATM   21  O1  UNL     1      26.219  -0.965  53.814  1.00  0.00    -0.279 OA
BRANCH  21  22
HETATM   22  C13 UNL     1      27.157  -1.389  52.846  1.00  0.00     0.418 C 
HETATM   23  F2  UNL     1      27.236  -2.768  52.766  1.00  0.00    -0.169 F 
HETATM   24  F3  UNL     1      26.879  -0.940  51.584  1.00  0.00    -0.169 F 
BRANCH  22  25
HETATM   25  C14 UNL     1      28.522  -0.858  53.297  1.00  0.00     0.455 C 
HETATM   26  F4  UNL     1      28.447  -0.389  54.592  1.00  0.00    -0.205 F 
HETATM   27  F5  UNL     1      29.473  -1.869  53.281  1.00  0.00    -0.205 F 
ENDBRANCH  22  25
ENDBRANCH  21  22
ENDBRANCH  19  21
ENDBRANCH   1  15
TORSDOF 10
ENDMDL
