MODEL 1
REMARK VINA RESULT:      -7.0      0.000      0.000
REMARK  8 active torsions:
REMARK  status: ('A' for Active; 'I' for Inactive)
REMARK    1  A    between atoms: C4_6  and  C5_7 
REMARK    2  A    between atoms: C5_7  and  C6_8 
REMARK    3  A    between atoms: C6_8  and  C7_9 
REMARK    4  A    between atoms: C7_9  and  O2_10 
REMARK    5  A    between atoms: O2_10  and  C8_11 
REMARK    6  A    between atoms: C8_11  and  C9_12 
REMARK    7  A    between atoms: C12_15  and  N2_16 
REMARK       I    between atoms: N3_17  and  C13_18 
REMARK    8  A    between atoms: C13_18  and  C14_20 
ROOT
HETATM    1  C9  UNL     1      22.481   0.510  53.140  1.00  0.00     0.044 A 
HETATM    2  C10 UNL     1      21.319   0.371  53.902  1.00  0.00     0.031 A 
HETATM    3  C11 UNL     1      21.535  -0.474  54.967  1.00  0.00     0.044 A 
HETATM    4  C12 UNL     1      22.855  -0.856  54.846  1.00  0.00     0.087 A 
HETATM    5  N3  UNL     1      23.384  -0.262  53.764  1.00  0.00    -0.273 N 
HETATM    6  C13 UNL     1      24.687  -0.358  53.251  1.00  0.00     0.254 C 
HETATM    7  O3  UNL     1      25.168   0.211  52.240  1.00  0.00    -0.270 OA
ENDROOT
BRANCH   1   8
HETATM    8  C8  UNL     1      22.463   1.378  51.948  1.00  0.00     0.225 C 
BRANCH   8   9
HETATM    9  O2  UNL     1      21.490   1.068  51.029  1.00  0.00    -0.385 OA
BRANCH   9  10
HETATM   10  C7  UNL     1      21.897   1.258  49.710  1.00  0.00     0.168 C 
BRANCH  10  11
HETATM   11  C6  UNL     1      21.932   2.723  49.337  1.00  0.00     0.030 C 
BRANCH  11  12
HETATM   12  C5  UNL     1      23.279   3.020  48.726  1.00  0.00     0.066 C 
BRANCH  12  13
HETATM   13  C4  UNL     1      23.851   4.336  49.131  1.00  0.00     0.358 C 
HETATM   14  N1  UNL     1      25.280   4.291  49.353  1.00  0.00     0.115 N 
HETATM   15  C1  UNL     1      25.592   3.310  50.372  1.00  0.00     0.313 C 
HETATM   16  C2  UNL     1      25.492   5.589  49.970  1.00  0.00     0.301 C 
HETATM   17  C3  UNL     1      24.215   5.711  50.796  1.00  0.00     0.201 C 
HETATM   18  O1  UNL     1      23.409   4.655  50.415  1.00  0.00    -0.355 OA
ENDBRANCH  12  13
ENDBRANCH  11  12
ENDBRANCH  10  11
ENDBRANCH   9  10
ENDBRANCH   8   9
ENDBRANCH   1   8
BRANCH   4  19
HETATM   19  N2  UNL     1      23.505  -1.737  55.749  1.00  0.00    -0.288 NA
HETATM   20  H19 UNL     1      23.263  -2.178  56.662  1.00  0.00     0.125 HD
HETATM   21  H20 UNL     1      23.024  -2.035  56.623  1.00  0.00     0.125 HD
ENDBRANCH   4  19
BRANCH   6  22
HETATM   22  C14 UNL     1      25.874  -1.108  53.686  1.00  0.00     0.204 C 
HETATM   23  C15 UNL     1      27.044  -0.897  52.715  1.00  0.00     0.215 C 
HETATM   24  O4  UNL     1      27.443   0.422  53.070  1.00  0.00    -0.301 OA
HETATM   25  C16 UNL     1      27.511   0.436  54.456  1.00  0.00     0.361 C 
HETATM   26  O5  UNL     1      28.295   1.024  55.262  1.00  0.00    -0.238 OA
HETATM   27  N4  UNL     1      26.438  -0.410  54.856  1.00  0.00    -0.321 N 
HETATM   28  H24 UNL     1      26.088  -0.530  55.853  1.00  0.00     0.165 HD
ENDBRANCH   6  22
TORSDOF 8
ENDMDL
MODEL 2
REMARK VINA RESULT:      -6.9      1.140      1.763
REMARK  8 active torsions:
REMARK  status: ('A' for Active; 'I' for Inactive)
REMARK    1  A    between atoms: C4_6  and  C5_7 
REMARK    2  A    between atoms: C5_7  and  C6_8 
REMARK    3  A    between atoms: C6_8  and  C7_9 
REMARK    4  A    between atoms: C7_9  and  O2_10 
REMARK    5  A    between atoms: O2_10  and  C8_11 
REMARK    6  A    between atoms: C8_11  and  C9_12 
REMARK    7  A    between atoms: C12_15  and  N2_16 
REMARK       I    between atoms: N3_17  and  C13_18 
REMARK    8  A    between atoms: C13_18  and  C14_20 
ROOT
HETATM    1  C9  UNL     1      22.555   0.456  53.055  1.00  0.00     0.044 A 
HETATM    2  C10 UNL     1      21.376   0.357  53.797  1.00  0.00     0.031 A 
HETATM    3  C11 UNL     1      21.562  -0.444  54.901  1.00  0.00     0.044 A 
HETATM    4  C12 UNL     1      22.882  -0.838  54.824  1.00  0.00     0.087 A 
HETATM    5  N3  UNL     1      23.438  -0.295  53.731  1.00  0.00    -0.273 N 
HETATM    6  C13 UNL     1      24.752  -0.420  53.251  1.00  0.00     0.254 C 
HETATM    7  O3  UNL     1      25.258   0.103  52.228  1.00  0.00    -0.270 OA
ENDROOT
BRANCH   1   8
HETATM    8  C8  UNL     1      22.569   1.273  51.828  1.00  0.00     0.225 C 
BRANCH   8   9
HETATM    9  O2  UNL     1      22.465   2.626  52.039  1.00  0.00    -0.385 OA
BRANCH   9  10
HETATM   10  C7  UNL     1      23.583   3.175  52.662  1.00  0.00     0.168 C 
BRANCH  10  11
HETATM   11  C6  UNL     1      23.515   4.684  52.714  1.00  0.00     0.030 C 
BRANCH  11  12
HETATM   12  C5  UNL     1      22.721   5.159  51.522  1.00  0.00     0.066 C 
BRANCH  12  13
HETATM   13  C4  UNL     1      23.518   5.948  50.540  1.00  0.00     0.358 C 
HETATM   14  N1  UNL     1      23.274   5.560  49.167  1.00  0.00     0.115 N 
HETATM   15  C1  UNL     1      23.572   4.153  48.991  1.00  0.00     0.313 C 
HETATM   16  C2  UNL     1      24.341   6.282  48.496  1.00  0.00     0.301 C 
HETATM   17  C3  UNL     1      25.451   6.156  49.535  1.00  0.00     0.201 C 
HETATM   18  O1  UNL     1      24.865   5.610  50.660  1.00  0.00    -0.355 OA
ENDBRANCH  12  13
ENDBRANCH  11  12
ENDBRANCH  10  11
ENDBRANCH   9  10
ENDBRANCH   8   9
ENDBRANCH   1   8
BRANCH   4  19
HETATM   19  N2  UNL     1      23.506  -1.686  55.778  1.00  0.00    -0.288 NA
HETATM   20  H19 UNL     1      23.795  -2.686  55.808  1.00  0.00     0.125 HD
HETATM   21  H20 UNL     1      23.689  -2.684  55.548  1.00  0.00     0.125 HD
ENDBRANCH   4  19
BRANCH   6  22
HETATM   22  C14 UNL     1      25.924  -1.158  53.743  1.00  0.00     0.204 C 
HETATM   23  C15 UNL     1      27.116  -0.994  52.791  1.00  0.00     0.215 C 
HETATM   24  O4  UNL     1      27.516   0.337  53.102  1.00  0.00    -0.301 OA
HETATM   25  C16 UNL     1      27.553   0.406  54.487  1.00  0.00     0.361 C 
HETATM   26  O5  UNL     1      28.322   1.022  55.286  1.00  0.00    -0.238 OA
HETATM   27  N4  UNL     1      26.466  -0.417  54.896  1.00  0.00    -0.321 N 
HETATM   28  H24 UNL     1      26.093  -0.494  55.889  1.00  0.00     0.165 HD
ENDBRANCH   6  22
TORSDOF 8
ENDMDL
MODEL 3
REMARK VINA RESULT:      -6.8      2.172      6.271
REMARK  8 active torsions:
REMARK  status: ('A' for Active; 'I' for Inactive)
REMARK    1  A    between atoms: C4_6  and  C5_7 
REMARK    2  A    between atoms: C5_7  and  C6_8 
REMARK    3  A    between atoms: C6_8  and  C7_9 
REMARK    4  A    between atoms: C7_9  and  O2_10 
REMARK    5  A    between atoms: O2_10  and  C8_11 
REMARK    6  A    between atoms: C8_11  and  C9_12 
REMARK    7  A    between atoms: C12_15  and  N2_16 
REMARK       I    between atoms: N3_17  and  C13_18 
REMARK    8  A    between atoms: C13_18  and  C14_20 
ROOT
HETATM    1  C9  UNL     1      22.704   1.571  51.530  1.00  0.00     0.044 A 
HETATM    2  C10 UNL     1      21.663   0.756  51.079  1.00  0.00     0.031 A 
HETATM    3  C11 UNL     1      21.490   0.897  49.721  1.00  0.00     0.044 A 
HETATM    4  C12 UNL     1      22.446   1.816  49.342  1.00  0.00     0.087 A 
HETATM    5  N3  UNL     1      23.143   2.193  50.425  1.00  0.00    -0.273 N 
HETATM    6  C13 UNL     1      24.205   3.106  50.520  1.00  0.00     0.254 C 
HETATM    7  O3  UNL     1      24.852   3.442  51.542  1.00  0.00    -0.270 OA
ENDROOT
BRANCH   1   8
HETATM    8  C8  UNL     1      23.054   1.568  52.963  1.00  0.00     0.225 C 
BRANCH   8   9
HETATM    9  O2  UNL     1      24.241   0.946  53.261  1.00  0.00    -0.385 OA
BRANCH   9  10
HETATM   10  C7  UNL     1      24.081  -0.367  53.696  1.00  0.00     0.168 C 
BRANCH  10  11
HETATM   11  C6  UNL     1      25.202  -0.796  54.616  1.00  0.00     0.030 C 
BRANCH  11  12
HETATM   12  C5  UNL     1      26.103   0.393  54.843  1.00  0.00     0.066 C 
BRANCH  12  13
HETATM   13  C4  UNL     1      27.554   0.093  54.681  1.00  0.00     0.358 C 
HETATM   14  N1  UNL     1      28.267   1.114  53.944  1.00  0.00     0.115 N 
HETATM   15  C1  UNL     1      27.673   1.283  52.633  1.00  0.00     0.313 C 
HETATM   16  C2  UNL     1      29.536   0.443  53.724  1.00  0.00     0.301 C 
HETATM   17  C3  UNL     1      29.054  -0.988  53.510  1.00  0.00     0.201 C 
HETATM   18  O1  UNL     1      27.708  -0.991  53.818  1.00  0.00    -0.355 OA
ENDBRANCH  12  13
ENDBRANCH  11  12
ENDBRANCH  10  11
ENDBRANCH   9  10
ENDBRANCH   8   9
ENDBRANCH   1   8
BRANCH   4  19
HETATM   19  N2  UNL     1      22.625   2.259  48.005  1.00  0.00    -0.288 NA
HETATM   20  H19 UNL     1      22.077   2.196  47.121  1.00  0.00     0.125 HD
HETATM   21  H20 UNL     1      21.898   2.058  47.288  1.00  0.00     0.125 HD
ENDBRANCH   4  19
BRANCH   6  22
HETATM   22  C14 UNL     1      24.893   3.939  49.522  1.00  0.00     0.204 C 
HETATM   23  C15 UNL     1      23.915   4.913  48.850  1.00  0.00     0.215 C 
HETATM   24  O4  UNL     1      23.744   5.868  49.892  1.00  0.00    -0.301 OA
HETATM   25  C16 UNL     1      25.021   6.166  50.345  1.00  0.00     0.361 C 
HETATM   26  O5  UNL     1      25.544   7.243  50.763  1.00  0.00    -0.238 OA
HETATM   27  N4  UNL     1      25.711   4.924  50.251  1.00  0.00    -0.321 N 
HETATM   28  H24 UNL     1      26.679   4.727  50.646  1.00  0.00     0.165 HD
ENDBRANCH   6  22
TORSDOF 8
ENDMDL
MODEL 4
REMARK VINA RESULT:      -6.7      3.799      5.178
REMARK  8 active torsions:
REMARK  status: ('A' for Active; 'I' for Inactive)
REMARK    1  A    between atoms: C4_6  and  C5_7 
REMARK    2  A    between atoms: C5_7  and  C6_8 
REMARK    3  A    between atoms: C6_8  and  C7_9 
REMARK    4  A    between atoms: C7_9  and  O2_10 
REMARK    5  A    between atoms: O2_10  and  C8_11 
REMARK    6  A    between atoms: C8_11  and  C9_12 
REMARK    7  A    between atoms: C12_15  and  N2_16 
REMARK       I    between atoms: N3_17  and  C13_18 
REMARK    8  A    between atoms: C13_18  and  C14_20 
ROOT
HETATM    1  C9  UNL     1      25.373   2.841  50.866  1.00  0.00     0.044 A 
HETATM    2  C10 UNL     1      24.055   2.754  50.411  1.00  0.00     0.031 A 
HETATM    3  C11 UNL     1      23.315   1.924  51.222  1.00  0.00     0.044 A 
HETATM    4  C12 UNL     1      24.204   1.499  52.187  1.00  0.00     0.087 A 
HETATM    5  N3  UNL     1      25.404   2.053  51.952  1.00  0.00    -0.273 N 
HETATM    6  C13 UNL     1      26.602   1.907  52.668  1.00  0.00     0.254 C 
HETATM    7  O3  UNL     1      27.715   2.440  52.437  1.00  0.00    -0.270 OA
ENDROOT
BRANCH   1   8
HETATM    8  C8  UNL     1      26.336   3.685  50.134  1.00  0.00     0.225 C 
BRANCH   8   9
HETATM    9  O2  UNL     1      25.909   4.970  49.901  1.00  0.00    -0.385 OA
BRANCH   9  10
HETATM   10  C7  UNL     1      26.617   5.610  48.886  1.00  0.00     0.168 C 
BRANCH  10  11
HETATM   11  C6  UNL     1      27.921   4.909  48.581  1.00  0.00     0.030 C 
BRANCH  11  12
HETATM   12  C5  UNL     1      28.903   5.942  48.084  1.00  0.00     0.066 C 
BRANCH  12  13
HETATM   13  C4  UNL     1      30.296   5.738  48.576  1.00  0.00     0.358 C 
HETATM   14  N1  UNL     1      31.036   6.974  48.713  1.00  0.00     0.115 N 
HETATM   15  C1  UNL     1      31.084   7.666  47.442  1.00  0.00     0.313 C 
HETATM   16  C2  UNL     1      32.375   6.455  48.937  1.00  0.00     0.301 C 
HETATM   17  C3  UNL     1      32.353   5.237  48.018  1.00  0.00     0.201 C 
HETATM   18  O1  UNL     1      31.047   5.105  47.586  1.00  0.00    -0.355 OA
ENDBRANCH  12  13
ENDBRANCH  11  12
ENDBRANCH  10  11
ENDBRANCH   9  10
ENDBRANCH   8   9
ENDBRANCH   1   8
BRANCH   4  19
HETATM   19  N2  UNL     1      23.856   0.615  53.243  1.00  0.00    -0.288 NA
HETATM   20  H19 UNL     1      24.307   0.296  54.126  1.00  0.00     0.125 HD
HETATM   21  H20 UNL     1      24.511   0.470  54.038  1.00  0.00     0.125 HD
ENDBRANCH   4  19
BRANCH   6  22
HETATM   22  C14 UNL     1      26.957   1.128  53.864  1.00  0.00     0.204 C 
HETATM   23  C15 UNL     1      26.780  -0.376  53.613  1.00  0.00     0.215 C 
HETATM   24  O4  UNL     1      27.919  -0.640  52.800  1.00  0.00    -0.301 OA
HETATM   25  C16 UNL     1      28.989  -0.033  53.441  1.00  0.00     0.361 C 
HETATM   26  O5  UNL     1      30.206  -0.368  53.564  1.00  0.00    -0.238 OA
HETATM   27  N4  UNL     1      28.425   1.153  53.992  1.00  0.00    -0.321 N 
HETATM   28  H24 UNL     1      28.976   1.947  54.435  1.00  0.00     0.165 HD
ENDBRANCH   6  22
TORSDOF 8
ENDMDL
MODEL 5
REMARK VINA RESULT:      -6.5      2.299      3.301
REMARK  8 active torsions:
REMARK  status: ('A' for Active; 'I' for Inactive)
REMARK    1  A    between atoms: C4_6  and  C5_7 
REMARK    2  A    between atoms: C5_7  and  C6_8 
REMARK    3  A    between atoms: C6_8  and  C7_9 
REMARK    4  A    between atoms: C7_9  and  O2_10 
REMARK    5  A    between atoms: O2_10  and  C8_11 
REMARK    6  A    between atoms: C8_11  and  C9_12 
REMARK    7  A    between atoms: C12_15  and  N2_16 
REMARK       I    between atoms: N3_17  and  C13_18 
REMARK    8  A    between atoms: C13_18  and  C14_20 
ROOT
HETATM    1  C9  UNL     1      22.470   0.588  53.214  1.00  0.00     0.044 A 
HETATM    2  C10 UNL     1      21.310   0.434  53.978  1.00  0.00     0.031 A 
HETATM    3  C11 UNL     1      21.521  -0.456  55.007  1.00  0.00     0.044 A 
HETATM    4  C12 UNL     1      22.835  -0.848  54.863  1.00  0.00     0.087 A 
HETATM    5  N3  UNL     1      23.366  -0.220  53.802  1.00  0.00    -0.273 N 
HETATM    6  C13 UNL     1      24.665  -0.311  53.278  1.00  0.00     0.254 C 
HETATM    7  O3  UNL     1      25.147   0.292  52.288  1.00  0.00    -0.270 OA
ENDROOT
BRANCH   1   8
HETATM    8  C8  UNL     1      22.456   1.503  52.058  1.00  0.00     0.225 C 
BRANCH   8   9
HETATM    9  O2  UNL     1      21.873   0.987  50.926  1.00  0.00    -0.385 OA
BRANCH   9  10
HETATM   10  C7  UNL     1      22.307   1.599  49.753  1.00  0.00     0.168 C 
BRANCH  10  11
HETATM   11  C6  UNL     1      21.260   1.538  48.665  1.00  0.00     0.030 C 
BRANCH  11  12
HETATM   12  C5  UNL     1      19.904   1.459  49.323  1.00  0.00     0.066 C 
BRANCH  12  13
HETATM   13  C4  UNL     1      19.146   2.743  49.305  1.00  0.00     0.358 C 
HETATM   14  N1  UNL     1      19.297   3.510  50.523  1.00  0.00     0.115 N 
HETATM   15  C1  UNL     1      18.860   2.724  51.659  1.00  0.00     0.313 C 
HETATM   16  C2  UNL     1      18.276   4.525  50.323  1.00  0.00     0.301 C 
HETATM   17  C3  UNL     1      17.202   3.697  49.624  1.00  0.00     0.201 C 
HETATM   18  O1  UNL     1      17.778   2.473  49.347  1.00  0.00    -0.355 OA
ENDBRANCH  12  13
ENDBRANCH  11  12
ENDBRANCH  10  11
ENDBRANCH   9  10
ENDBRANCH   8   9
ENDBRANCH   1   8
BRANCH   4  19
HETATM   19  N2  UNL     1      23.479  -1.773  55.727  1.00  0.00    -0.288 NA
HETATM   20  H19 UNL     1      24.466  -2.045  55.924  1.00  0.00     0.125 HD
HETATM   21  H20 UNL     1      24.517  -1.849  55.729  1.00  0.00     0.125 HD
ENDBRANCH   4  19
BRANCH   6  22
HETATM   22  C14 UNL     1      25.845  -1.092  53.676  1.00  0.00     0.204 C 
HETATM   23  C15 UNL     1      27.007  -0.869  52.699  1.00  0.00     0.215 C 
HETATM   24  O4  UNL     1      27.430   0.433  53.091  1.00  0.00    -0.301 OA
HETATM   25  C16 UNL     1      27.514   0.402  54.476  1.00  0.00     0.361 C 
HETATM   26  O5  UNL     1      28.315   0.952  55.291  1.00  0.00    -0.238 OA
HETATM   27  N4  UNL     1      26.432  -0.441  54.861  1.00  0.00    -0.321 N 
HETATM   28  H24 UNL     1      26.091  -0.586  55.858  1.00  0.00     0.165 HD
ENDBRANCH   6  22
TORSDOF 8
ENDMDL
MODEL 6
REMARK VINA RESULT:      -6.5      2.467      3.784
REMARK  8 active torsions:
REMARK  status: ('A' for Active; 'I' for Inactive)
REMARK    1  A    between atoms: C4_6  and  C5_7 
REMARK    2  A    between atoms: C5_7  and  C6_8 
REMARK    3  A    between atoms: C6_8  and  C7_9 
REMARK    4  A    between atoms: C7_9  and  O2_10 
REMARK    5  A    between atoms: O2_10  and  C8_11 
REMARK    6  A    between atoms: C8_11  and  C9_12 
REMARK    7  A    between atoms: C12_15  and  N2_16 
REMARK       I    between atoms: N3_17  and  C13_18 
REMARK    8  A    between atoms: C13_18  and  C14_20 
ROOT
HETATM    1  C9  UNL     1      24.085   2.087  51.013  1.00  0.00     0.044 A 
HETATM    2  C10 UNL     1      24.446   2.888  49.928  1.00  0.00     0.031 A 
HETATM    3  C11 UNL     1      25.755   3.301  50.042  1.00  0.00     0.044 A 
HETATM    4  C12 UNL     1      26.194   2.738  51.222  1.00  0.00     0.087 A 
HETATM    5  N3  UNL     1      25.193   2.032  51.769  1.00  0.00    -0.273 N 
HETATM    6  C13 UNL     1      25.180   1.295  52.964  1.00  0.00     0.254 C 
HETATM    7  O3  UNL     1      24.234   0.633  53.458  1.00  0.00    -0.270 OA
ENDROOT
BRANCH   1   8
HETATM    8  C8  UNL     1      22.718   1.539  51.083  1.00  0.00     0.225 C 
BRANCH   8   9
HETATM    9  O2  UNL     1      21.828   2.310  51.790  1.00  0.00    -0.385 OA
BRANCH   9  10
HETATM   10  C7  UNL     1      20.657   2.586  51.086  1.00  0.00     0.168 C 
BRANCH  10  11
HETATM   11  C6  UNL     1      20.815   3.785  50.180  1.00  0.00     0.030 C 
BRANCH  11  12
HETATM   12  C5  UNL     1      20.897   5.019  51.045  1.00  0.00     0.066 C 
BRANCH  12  13
HETATM   13  C4  UNL     1      22.130   5.830  50.829  1.00  0.00     0.358 C 
HETATM   14  N1  UNL     1      21.902   7.253  50.950  1.00  0.00     0.115 N 
HETATM   15  C1  UNL     1      20.891   7.675  50.002  1.00  0.00     0.313 C 
HETATM   16  C2  UNL     1      23.164   7.766  50.443  1.00  0.00     0.301 C 
HETATM   17  C3  UNL     1      23.449   6.748  49.343  1.00  0.00     0.201 C 
HETATM   18  O1  UNL     1      22.505   5.749  49.488  1.00  0.00    -0.355 OA
ENDBRANCH  12  13
ENDBRANCH  11  12
ENDBRANCH  10  11
ENDBRANCH   9  10
ENDBRANCH   8   9
ENDBRANCH   1   8
BRANCH   4  19
HETATM   19  N2  UNL     1      27.509   2.907  51.732  1.00  0.00    -0.288 NA
HETATM   20  H19 UNL     1      28.191   2.309  52.244  1.00  0.00     0.125 HD
HETATM   21  H20 UNL     1      27.983   2.120  52.220  1.00  0.00     0.125 HD
ENDBRANCH   4  19
BRANCH   6  22
HETATM   22  C14 UNL     1      26.201   1.052  53.994  1.00  0.00     0.204 C 
HETATM   23  C15 UNL     1      25.831  -0.159  54.860  1.00  0.00     0.215 C 
HETATM   24  O4  UNL     1      26.130  -1.223  53.962  1.00  0.00    -0.301 OA
HETATM   25  C16 UNL     1      27.383  -0.936  53.441  1.00  0.00     0.361 C 
HETATM   26  O5  UNL     1      28.358  -1.680  53.115  1.00  0.00    -0.238 OA
HETATM   27  N4  UNL     1      27.384   0.483  53.323  1.00  0.00    -0.321 N 
HETATM   28  H24 UNL     1      28.127   1.058  52.826  1.00  0.00     0.165 HD
ENDBRANCH   6  22
TORSDOF 8
ENDMDL
MODEL 7
REMARK VINA RESULT:      -6.4      1.574      2.391
REMARK  8 active torsions:
REMARK  status: ('A' for Active; 'I' for Inactive)
REMARK    1  A    between atoms: C4_6  and  C5_7 
REMARK    2  A    between atoms: C5_7  and  C6_8 
REMARK    3  A    between atoms: C6_8  and  C7_9 
REMARK    4  A    between atoms: C7_9  and  O2_10 
REMARK    5  A    between atoms: O2_10  and  C8_11 
REMARK    6  A    between atoms: C8_11  and  C9_12 
REMARK    7  A    between atoms: C12_15  and  N2_16 
REMARK       I    between atoms: N3_17  and  C13_18 
REMARK    8  A    between atoms: C13_18  and  C14_20 
ROOT
HETATM    1  C9  UNL     1      23.384   1.129  52.096  1.00  0.00     0.044 A 
HETATM    2  C10 UNL     1      22.090   1.244  52.607  1.00  0.00     0.031 A 
HETATM    3  C11 UNL     1      21.936   0.451  53.722  1.00  0.00     0.044 A 
HETATM    4  C12 UNL     1      23.162  -0.157  53.888  1.00  0.00     0.087 A 
HETATM    5  N3  UNL     1      23.992   0.260  52.919  1.00  0.00    -0.273 N 
HETATM    6  C13 UNL     1      25.331  -0.092  52.688  1.00  0.00     0.254 C 
HETATM    7  O3  UNL     1      26.096   0.314  51.779  1.00  0.00    -0.270 OA
ENDROOT
BRANCH   1   8
HETATM    8  C8  UNL     1      23.759   1.901  50.897  1.00  0.00     0.225 C 
BRANCH   8   9
HETATM    9  O2  UNL     1      24.122   3.202  51.144  1.00  0.00    -0.385 OA
BRANCH   9  10
HETATM   10  C7  UNL     1      25.492   3.424  51.026  1.00  0.00     0.168 C 
BRANCH  10  11
HETATM   11  C6  UNL     1      25.884   3.792  49.613  1.00  0.00     0.030 C 
BRANCH  11  12
HETATM   12  C5  UNL     1      25.040   4.967  49.184  1.00  0.00     0.066 C 
BRANCH  12  13
HETATM   13  C4  UNL     1      25.784   6.258  49.131  1.00  0.00     0.358 C 
HETATM   14  N1  UNL     1      25.692   7.018  50.359  1.00  0.00     0.115 N 
HETATM   15  C1  UNL     1      24.304   7.289  50.670  1.00  0.00     0.313 C 
HETATM   16  C2  UNL     1      26.260   8.285  49.928  1.00  0.00     0.301 C 
HETATM   17  C3  UNL     1      25.720   8.355  48.503  1.00  0.00     0.201 C 
HETATM   18  O1  UNL     1      25.139   7.127  48.251  1.00  0.00    -0.355 OA
ENDBRANCH  12  13
ENDBRANCH  11  12
ENDBRANCH  10  11
ENDBRANCH   9  10
ENDBRANCH   8   9
ENDBRANCH   1   8
BRANCH   4  19
HETATM   19  N2  UNL     1      23.451  -1.071  54.935  1.00  0.00    -0.288 NA
HETATM   20  H19 UNL     1      24.292  -1.311  55.502  1.00  0.00     0.125 HD
HETATM   21  H20 UNL     1      24.408  -1.111  55.343  1.00  0.00     0.125 HD
ENDBRANCH   4  19
BRANCH   6  22
HETATM   22  C14 UNL     1      26.254  -1.002  53.383  1.00  0.00     0.204 C 
HETATM   23  C15 UNL     1      27.634  -1.004  52.711  1.00  0.00     0.215 C 
HETATM   24  O4  UNL     1      28.142   0.249  53.156  1.00  0.00    -0.301 OA
HETATM   25  C16 UNL     1      27.890   0.296  54.520  1.00  0.00     0.361 C 
HETATM   26  O5  UNL     1      28.550   0.782  55.489  1.00  0.00    -0.238 OA
HETATM   27  N4  UNL     1      26.636  -0.362  54.655  1.00  0.00    -0.321 N 
HETATM   28  H24 UNL     1      26.051  -0.395  55.543  1.00  0.00     0.165 HD
ENDBRANCH   6  22
TORSDOF 8
ENDMDL
MODEL 8
REMARK VINA RESULT:      -6.4      3.215      5.812
REMARK  8 active torsions:
REMARK  status: ('A' for Active; 'I' for Inactive)
REMARK    1  A    between atoms: C4_6  and  C5_7 
REMARK    2  A    between atoms: C5_7  and  C6_8 
REMARK    3  A    between atoms: C6_8  and  C7_9 
REMARK    4  A    between atoms: C7_9  and  O2_10 
REMARK    5  A    between atoms: O2_10  and  C8_11 
REMARK    6  A    between atoms: C8_11  and  C9_12 
REMARK    7  A    between atoms: C12_15  and  N2_16 
REMARK       I    between atoms: N3_17  and  C13_18 
REMARK    8  A    between atoms: C13_18  and  C14_20 
ROOT
HETATM    1  C9  UNL     1      24.018   2.079  51.189  1.00  0.00     0.044 A 
HETATM    2  C10 UNL     1      24.273   2.852  50.054  1.00  0.00     0.031 A 
HETATM    3  C11 UNL     1      25.582   3.279  50.041  1.00  0.00     0.044 A 
HETATM    4  C12 UNL     1      26.129   2.754  51.194  1.00  0.00     0.087 A 
HETATM    5  N3  UNL     1      25.187   2.055  51.846  1.00  0.00    -0.273 N 
HETATM    6  C13 UNL     1      25.287   1.353  53.058  1.00  0.00     0.254 C 
HETATM    7  O3  UNL     1      24.395   0.697  53.651  1.00  0.00    -0.270 OA
ENDROOT
BRANCH   1   8
HETATM    8  C8  UNL     1      22.668   1.522  51.394  1.00  0.00     0.225 C 
BRANCH   8   9
HETATM    9  O2  UNL     1      21.846   2.287  52.184  1.00  0.00    -0.385 OA
BRANCH   9  10
HETATM   10  C7  UNL     1      20.640   1.661  52.494  1.00  0.00     0.168 C 
BRANCH  10  11
HETATM   11  C6  UNL     1      20.384   0.463  51.609  1.00  0.00     0.030 C 
BRANCH  11  12
HETATM   12  C5  UNL     1      19.064   0.672  50.908  1.00  0.00     0.066 C 
BRANCH  12  13
HETATM   13  C4  UNL     1      18.033  -0.352  51.241  1.00  0.00     0.358 C 
HETATM   14  N1  UNL     1      16.688   0.067  50.911  1.00  0.00     0.115 N 
HETATM   15  C1  UNL     1      16.370   1.298  51.606  1.00  0.00     0.313 C 
HETATM   16  C2  UNL     1      15.918  -0.975  51.569  1.00  0.00     0.301 C 
HETATM   17  C3  UNL     1      16.769  -1.195  52.816  1.00  0.00     0.201 C 
HETATM   18  O1  UNL     1      17.927  -0.466  52.627  1.00  0.00    -0.355 OA
ENDBRANCH  12  13
ENDBRANCH  11  12
ENDBRANCH  10  11
ENDBRANCH   9  10
ENDBRANCH   8   9
ENDBRANCH   1   8
BRANCH   4  19
HETATM   19  N2  UNL     1      27.481   2.949  51.582  1.00  0.00    -0.288 NA
HETATM   20  H19 UNL     1      28.212   2.372  52.049  1.00  0.00     0.125 HD
HETATM   21  H20 UNL     1      28.005   2.181  52.049  1.00  0.00     0.125 HD
ENDBRANCH   4  19
BRANCH   6  22
HETATM   22  C14 UNL     1      26.396   1.149  54.001  1.00  0.00     0.204 C 
HETATM   23  C15 UNL     1      26.087   0.004  54.975  1.00  0.00     0.215 C 
HETATM   24  O4  UNL     1      26.278  -1.121  54.122  1.00  0.00    -0.301 OA
HETATM   25  C16 UNL     1      27.481  -0.899  53.469  1.00  0.00     0.361 C 
HETATM   26  O5  UNL     1      28.406  -1.686  53.101  1.00  0.00    -0.238 OA
HETATM   27  N4  UNL     1      27.498   0.509  53.260  1.00  0.00    -0.321 N 
HETATM   28  H24 UNL     1      28.202   1.033  52.659  1.00  0.00     0.165 HD
ENDBRANCH   6  22
TORSDOF 8
ENDMDL
MODEL 9
REMARK VINA RESULT:      -6.4      3.020      4.855
REMARK  8 active torsions:
REMARK  status: ('A' for Active; 'I' for Inactive)
REMARK    1  A    between atoms: C4_6  and  C5_7 
REMARK    2  A    between atoms: C5_7  and  C6_8 
REMARK    3  A    between atoms: C6_8  and  C7_9 
REMARK    4  A    between atoms: C7_9  and  O2_10 
REMARK    5  A    between atoms: O2_10  and  C8_11 
REMARK    6  A    between atoms: C8_11  and  C9_12 
REMARK    7  A    between atoms: C12_15  and  N2_16 
REMARK       I    between atoms: N3_17  and  C13_18 
REMARK    8  A    between atoms: C13_18  and  C14_20 
ROOT
HETATM    1  C9  UNL     1      22.646   0.542  53.150  1.00  0.00     0.044 A 
HETATM    2  C10 UNL     1      21.510   0.356  53.940  1.00  0.00     0.031 A 
HETATM    3  C11 UNL     1      21.769  -0.525  54.965  1.00  0.00     0.044 A 
HETATM    4  C12 UNL     1      23.091  -0.880  54.792  1.00  0.00     0.087 A 
HETATM    5  N3  UNL     1      23.579  -0.238  53.719  1.00  0.00    -0.273 N 
HETATM    6  C13 UNL     1      24.868  -0.293  53.166  1.00  0.00     0.254 C 
HETATM    7  O3  UNL     1      25.310   0.321  52.163  1.00  0.00    -0.270 OA
ENDROOT
BRANCH   1   8
HETATM    8  C8  UNL     1      22.580   1.453  51.992  1.00  0.00     0.225 C 
BRANCH   8   9
HETATM    9  O2  UNL     1      21.415   2.174  51.896  1.00  0.00    -0.385 OA
BRANCH   9  10
HETATM   10  C7  UNL     1      20.833   2.115  50.632  1.00  0.00     0.168 C 
BRANCH  10  11
HETATM   11  C6  UNL     1      20.066   0.830  50.424  1.00  0.00     0.030 C 
BRANCH  11  12
HETATM   12  C5  UNL     1      18.890   0.827  51.370  1.00  0.00     0.066 C 
BRANCH  12  13
HETATM   13  C4  UNL     1      17.834  -0.167  51.020  1.00  0.00     0.358 C 
HETATM   14  N1  UNL     1      17.082   0.195  49.839  1.00  0.00     0.115 N 
HETATM   15  C1  UNL     1      16.463   1.492  50.025  1.00  0.00     0.313 C 
HETATM   16  C2  UNL     1      16.003  -0.776  49.905  1.00  0.00     0.301 C 
HETATM   17  C3  UNL     1      15.790  -0.843  51.414  1.00  0.00     0.201 C 
HETATM   18  O1  UNL     1      16.825  -0.125  51.982  1.00  0.00    -0.355 OA
ENDBRANCH  12  13
ENDBRANCH  11  12
ENDBRANCH  10  11
ENDBRANCH   9  10
ENDBRANCH   8   9
ENDBRANCH   1   8
BRANCH   4  19
HETATM   19  N2  UNL     1      23.780  -1.784  55.643  1.00  0.00    -0.288 NA
HETATM   20  H19 UNL     1      24.760  -1.884  55.983  1.00  0.00     0.125 HD
HETATM   21  H20 UNL     1      24.797  -1.654  55.826  1.00  0.00     0.125 HD
ENDBRANCH   4  19
BRANCH   6  22
HETATM   22  C14 UNL     1      26.079  -1.039  53.538  1.00  0.00     0.204 C 
HETATM   23  C15 UNL     1      27.244  -0.699  52.599  1.00  0.00     0.215 C 
HETATM   24  O4  UNL     1      27.595   0.595  53.079  1.00  0.00    -0.301 OA
HETATM   25  C16 UNL     1      27.657   0.482  54.460  1.00  0.00     0.361 C 
HETATM   26  O5  UNL     1      28.416   1.019  55.323  1.00  0.00    -0.238 OA
HETATM   27  N4  UNL     1      26.613  -0.435  54.771  1.00  0.00    -0.321 N 
HETATM   28  H24 UNL     1      26.263  -0.659  55.750  1.00  0.00     0.165 HD
ENDBRANCH   6  22
TORSDOF 8
ENDMDL
