MODEL 1
REMARK VINA RESULT:      -7.5      0.000      0.000
REMARK  4 active torsions:
REMARK  status: ('A' for Active; 'I' for Inactive)
REMARK    1  A    between atoms: O1_2  and  C2_3 
REMARK    2  A    between atoms: C2_3  and  C3_4 
REMARK    3  A    between atoms: C3_4  and  O2_20 
REMARK    4  A    between atoms: C4_5  and  C5_6 
ROOT
HETATM    1  C5  UNL     1      25.390  -0.219  52.512  1.00  0.00     0.062 A 
HETATM    2  C6  UNL     1      24.270  -0.497  53.419  1.00  0.00    -0.052 A 
HETATM    3  C7  UNL     1      23.308  -0.806  54.311  1.00  0.00     0.005 C 
HETATM    4  C8  UNL     1      21.914  -0.627  54.579  1.00  0.00     0.000 C 
HETATM    5  C9  UNL     1      20.787  -0.155  54.182  1.00  0.00     0.001 C 
HETATM    6  C10 UNL     1      20.116   0.545  53.121  1.00  0.00     0.017 C 
HETATM    7  C11 UNL     1      20.690   0.918  51.996  1.00  0.00     0.085 C 
HETATM    8  N1  UNL     1      22.063   0.582  51.847  1.00  0.00    -0.375 N 
HETATM    9  C12 UNL     1      23.445   1.092  51.608  1.00  0.00     0.225 A 
HETATM   10  N2  UNL     1      23.306   2.520  51.404  1.00  0.00    -0.256 NA
HETATM   11  C13 UNL     1      23.751   3.469  52.106  1.00  0.00     0.228 A 
HETATM   12  N3  UNL     1      24.522   3.246  53.278  1.00  0.00    -0.257 NA
HETATM   13  C14 UNL     1      24.743   2.006  53.542  1.00  0.00     0.110 A 
HETATM   14  C15 UNL     1      24.294   0.800  52.754  1.00  0.00     0.069 A 
HETATM   15  H13 UNL     1      22.187  -0.453  51.938  1.00  0.00     0.161 HD
ENDROOT
BRANCH   1  16
HETATM   16  C4  UNL     1      26.703   0.167  52.994  1.00  0.00     0.018 C 
HETATM   17  C3  UNL     1      27.795  -0.425  53.433  1.00  0.00     0.066 C 
BRANCH  17  18
HETATM   18  C2  UNL     1      29.074   0.200  53.892  1.00  0.00     0.231 C 
BRANCH  18  19
HETATM   19  O1  UNL     1      28.803   1.369  54.577  1.00  0.00    -0.390 OA
HETATM   20  C1  UNL     1      28.957   2.502  53.788  1.00  0.00     0.201 C 
ENDBRANCH  18  19
ENDBRANCH  17  18
BRANCH  17  21
HETATM   21  O2  UNL     1      27.791  -1.832  53.493  1.00  0.00    -0.358 OA
HETATM   22  C16 UNL     1      29.029  -2.483  53.184  1.00  0.00     0.209 C 
ENDBRANCH  17  21
ENDBRANCH   1  16
TORSDOF 4
ENDMDL
MODEL 2
REMARK VINA RESULT:      -7.4      2.975      6.138
REMARK  4 active torsions:
REMARK  status: ('A' for Active; 'I' for Inactive)
REMARK    1  A    between atoms: O1_2  and  C2_3 
REMARK    2  A    between atoms: C2_3  and  C3_4 
REMARK    3  A    between atoms: C3_4  and  O2_20 
REMARK    4  A    between atoms: C4_5  and  C5_6 
ROOT
HETATM    1  C5  UNL     1      24.685  -0.199  53.696  1.00  0.00     0.062 A 
HETATM    2  C6  UNL     1      25.665  -1.180  53.216  1.00  0.00    -0.052 A 
HETATM    3  C7  UNL     1      26.486  -2.136  52.737  1.00  0.00     0.005 C 
HETATM    4  C8  UNL     1      27.864  -2.509  52.662  1.00  0.00     0.000 C 
HETATM    5  C9  UNL     1      29.077  -2.245  52.995  1.00  0.00     0.001 C 
HETATM    6  C10 UNL     1      29.923  -1.347  53.729  1.00  0.00     0.017 C 
HETATM    7  C11 UNL     1      29.486  -0.337  54.452  1.00  0.00     0.085 C 
HETATM    8  N1  UNL     1      28.077  -0.156  54.496  1.00  0.00    -0.375 N 
HETATM    9  C12 UNL     1      26.938   0.774  54.240  1.00  0.00     0.225 A 
HETATM   10  N2  UNL     1      27.538   2.019  53.806  1.00  0.00    -0.256 NA
HETATM   11  C13 UNL     1      27.444   2.598  52.690  1.00  0.00     0.228 A 
HETATM   12  N3  UNL     1      26.663   2.071  51.628  1.00  0.00    -0.257 NA
HETATM   13  C14 UNL     1      26.048   0.976  51.910  1.00  0.00     0.110 A 
HETATM   14  C15 UNL     1      26.059   0.223  53.218  1.00  0.00     0.069 A 
HETATM   15  H13 UNL     1      27.620  -1.025  54.857  1.00  0.00     0.161 HD
ENDROOT
BRANCH   1  16
HETATM   16  C4  UNL     1      23.581   0.263  52.874  1.00  0.00     0.018 C 
HETATM   17  C3  UNL     1      22.280   0.432  52.991  1.00  0.00     0.066 C 
BRANCH  17  18
HETATM   18  C2  UNL     1      21.311   0.941  51.972  1.00  0.00     0.231 C 
BRANCH  18  19
HETATM   19  O1  UNL     1      20.512   1.919  52.535  1.00  0.00    -0.390 OA
HETATM   20  C1  UNL     1      21.006   3.201  52.327  1.00  0.00     0.201 C 
ENDBRANCH  18  19
ENDBRANCH  17  18
BRANCH  17  21
HETATM   21  O2  UNL     1      21.690   0.096  54.225  1.00  0.00    -0.358 OA
HETATM   22  C16 UNL     1      21.176  -1.235  54.340  1.00  0.00     0.209 C 
ENDBRANCH  17  21
ENDBRANCH   1  16
TORSDOF 4
ENDMDL
MODEL 3
REMARK VINA RESULT:      -7.3      1.445      2.152
REMARK  4 active torsions:
REMARK  status: ('A' for Active; 'I' for Inactive)
REMARK    1  A    between atoms: O1_2  and  C2_3 
REMARK    2  A    between atoms: C2_3  and  C3_4 
REMARK    3  A    between atoms: C3_4  and  O2_20 
REMARK    4  A    between atoms: C4_5  and  C5_6 
ROOT
HETATM    1  C5  UNL     1      24.803   0.390  52.459  1.00  0.00     0.062 A 
HETATM    2  C6  UNL     1      23.606   0.029  53.230  1.00  0.00    -0.052 A 
HETATM    3  C7  UNL     1      22.572  -0.335  54.013  1.00  0.00     0.005 C 
HETATM    4  C8  UNL     1      21.143  -0.385  54.047  1.00  0.00     0.000 C 
HETATM    5  C9  UNL     1      20.037  -0.186  53.424  1.00  0.00     0.001 C 
HETATM    6  C10 UNL     1      19.449   0.232  52.182  1.00  0.00     0.017 C 
HETATM    7  C11 UNL     1      20.135   0.556  51.105  1.00  0.00     0.085 C 
HETATM    8  N1  UNL     1      21.551   0.464  51.208  1.00  0.00    -0.375 N 
HETATM    9  C12 UNL     1      22.850   1.188  51.091  1.00  0.00     0.225 A 
HETATM   10  N2  UNL     1      22.517   2.526  50.647  1.00  0.00    -0.256 NA
HETATM   11  C13 UNL     1      22.676   3.624  51.247  1.00  0.00     0.228 A 
HETATM   12  N3  UNL     1      23.265   3.702  52.537  1.00  0.00    -0.257 NA
HETATM   13  C14 UNL     1      23.638   2.571  53.023  1.00  0.00     0.110 A 
HETATM   14  C15 UNL     1      23.531   1.210  52.379  1.00  0.00     0.069 A 
HETATM   15  H13 UNL     1      21.824  -0.509  51.478  1.00  0.00     0.161 HD
ENDROOT
BRANCH   1  16
HETATM   16  C4  UNL     1      25.936   1.072  53.057  1.00  0.00     0.018 C 
HETATM   17  C3  UNL     1      26.984   1.761  52.655  1.00  0.00     0.066 C 
BRANCH  17  18
HETATM   18  C2  UNL     1      28.058   2.393  53.483  1.00  0.00     0.231 C 
BRANCH  18  19
HETATM   19  O1  UNL     1      28.493   1.501  54.444  1.00  0.00    -0.390 OA
HETATM   20  C1  UNL     1      29.413   0.585  53.949  1.00  0.00     0.201 C 
ENDBRANCH  18  19
ENDBRANCH  17  18
BRANCH  17  21
HETATM   21  O2  UNL     1      27.148   1.944  51.269  1.00  0.00    -0.358 OA
HETATM   22  C16 UNL     1      26.507   3.092  50.701  1.00  0.00     0.209 C 
ENDBRANCH  17  21
ENDBRANCH   1  16
TORSDOF 4
ENDMDL
MODEL 4
REMARK VINA RESULT:      -7.2      2.934      5.678
REMARK  4 active torsions:
REMARK  status: ('A' for Active; 'I' for Inactive)
REMARK    1  A    between atoms: O1_2  and  C2_3 
REMARK    2  A    between atoms: C2_3  and  C3_4 
REMARK    3  A    between atoms: C3_4  and  O2_20 
REMARK    4  A    between atoms: C4_5  and  C5_6 
ROOT
HETATM    1  C5  UNL     1      24.504   2.678  52.568  1.00  0.00     0.062 A 
HETATM    2  C6  UNL     1      25.466   2.828  51.469  1.00  0.00    -0.052 A 
HETATM    3  C7  UNL     1      26.384   2.870  50.483  1.00  0.00     0.005 C 
HETATM    4  C8  UNL     1      26.897   3.717  49.451  1.00  0.00     0.000 C 
HETATM    5  C9  UNL     1      26.864   4.866  48.877  1.00  0.00     0.001 C 
HETATM    6  C10 UNL     1      26.262   6.170  48.896  1.00  0.00     0.017 C 
HETATM    7  C11 UNL     1      25.392   6.575  49.798  1.00  0.00     0.085 C 
HETATM    8  N1  UNL     1      25.056   5.640  50.814  1.00  0.00    -0.375 N 
HETATM    9  C12 UNL     1      23.960   4.882  51.487  1.00  0.00     0.225 A 
HETATM   10  N2  UNL     1      22.732   5.327  50.859  1.00  0.00    -0.256 NA
HETATM   11  C13 UNL     1      21.912   4.668  50.165  1.00  0.00     0.228 A 
HETATM   12  N3  UNL     1      22.090   3.284  49.894  1.00  0.00    -0.257 NA
HETATM   13  C14 UNL     1      23.137   2.766  50.434  1.00  0.00     0.110 A 
HETATM   14  C15 UNL     1      24.158   3.450  51.310  1.00  0.00     0.069 A 
HETATM   15  H13 UNL     1      25.921   5.339  51.320  1.00  0.00     0.161 HD
ENDROOT
BRANCH   1  16
HETATM   16  C4  UNL     1      23.740   1.461  52.771  1.00  0.00     0.018 C 
HETATM   17  C3  UNL     1      23.934   0.258  53.269  1.00  0.00     0.066 C 
BRANCH  17  18
HETATM   18  C2  UNL     1      22.962  -0.875  53.377  1.00  0.00     0.231 C 
BRANCH  18  19
HETATM   19  O1  UNL     1      22.441  -0.922  54.655  1.00  0.00    -0.390 OA
HETATM   20  C1  UNL     1      21.212  -0.281  54.759  1.00  0.00     0.201 C 
ENDBRANCH  18  19
ENDBRANCH  17  18
BRANCH  17  21
HETATM   21  O2  UNL     1      25.215  -0.037  53.774  1.00  0.00    -0.358 OA
HETATM   22  C16 UNL     1      26.096  -0.743  52.893  1.00  0.00     0.209 C 
ENDBRANCH  17  21
ENDBRANCH   1  16
TORSDOF 4
ENDMDL
MODEL 5
REMARK VINA RESULT:      -6.9      2.049      3.668
REMARK  4 active torsions:
REMARK  status: ('A' for Active; 'I' for Inactive)
REMARK    1  A    between atoms: O1_2  and  C2_3 
REMARK    2  A    between atoms: C2_3  and  C3_4 
REMARK    3  A    between atoms: C3_4  and  O2_20 
REMARK    4  A    between atoms: C4_5  and  C5_6 
ROOT
HETATM    1  C5  UNL     1      23.527   1.642  53.050  1.00  0.00     0.062 A 
HETATM    2  C6  UNL     1      22.947   1.480  51.711  1.00  0.00    -0.052 A 
HETATM    3  C7  UNL     1      22.510   1.340  50.443  1.00  0.00     0.005 C 
HETATM    4  C8  UNL     1      21.321   1.155  49.671  1.00  0.00     0.000 C 
HETATM    5  C9  UNL     1      20.040   1.054  49.663  1.00  0.00     0.001 C 
HETATM    6  C10 UNL     1      18.856   1.079  50.476  1.00  0.00     0.017 C 
HETATM    7  C11 UNL     1      18.847   1.318  51.771  1.00  0.00     0.085 C 
HETATM    8  N1  UNL     1      20.108   1.575  52.373  1.00  0.00    -0.375 N 
HETATM    9  C12 UNL     1      21.087   1.165  53.423  1.00  0.00     0.225 A 
HETATM   10  N2  UNL     1      20.456   0.079  54.145  1.00  0.00    -0.256 NA
HETATM   11  C13 UNL     1      20.809  -1.128  54.231  1.00  0.00     0.228 A 
HETATM   12  N3  UNL     1      21.976  -1.622  53.590  1.00  0.00    -0.257 NA
HETATM   13  C14 UNL     1      22.645  -0.733  52.942  1.00  0.00     0.110 A 
HETATM   14  C15 UNL     1      22.335   0.737  52.806  1.00  0.00     0.069 A 
HETATM   15  H13 UNL     1      20.566   2.391  51.903  1.00  0.00     0.161 HD
ENDROOT
BRANCH   1  16
HETATM   16  C4  UNL     1      24.741   0.958  53.458  1.00  0.00     0.018 C 
HETATM   17  C3  UNL     1      26.042   1.146  53.375  1.00  0.00     0.066 C 
BRANCH  17  18
HETATM   18  C2  UNL     1      27.144   0.275  53.889  1.00  0.00     0.231 C 
BRANCH  18  19
HETATM   19  O1  UNL     1      27.912   0.979  54.796  1.00  0.00    -0.390 OA
HETATM   20  C1  UNL     1      29.229   1.133  54.380  1.00  0.00     0.201 C 
ENDBRANCH  18  19
ENDBRANCH  17  18
BRANCH  17  21
HETATM   21  O2  UNL     1      26.490   2.310  52.721  1.00  0.00    -0.358 OA
HETATM   22  C16 UNL     1      26.676   2.209  51.305  1.00  0.00     0.209 C 
ENDBRANCH  17  21
ENDBRANCH   1  16
TORSDOF 4
ENDMDL
MODEL 6
REMARK VINA RESULT:      -6.8      3.204      6.510
REMARK  4 active torsions:
REMARK  status: ('A' for Active; 'I' for Inactive)
REMARK    1  A    between atoms: O1_2  and  C2_3 
REMARK    2  A    between atoms: C2_3  and  C3_4 
REMARK    3  A    between atoms: C3_4  and  O2_20 
REMARK    4  A    between atoms: C4_5  and  C5_6 
ROOT
HETATM    1  C5  UNL     1      22.391   0.985  53.483  1.00  0.00     0.062 A 
HETATM    2  C6  UNL     1      23.569   0.129  53.297  1.00  0.00    -0.052 A 
HETATM    3  C7  UNL     1      24.586  -0.739  53.132  1.00  0.00     0.005 C 
HETATM    4  C8  UNL     1      26.004  -0.799  52.954  1.00  0.00     0.000 C 
HETATM    5  C9  UNL     1      27.115  -0.157  52.886  1.00  0.00     0.001 C 
HETATM    6  C10 UNL     1      27.727   1.140  52.964  1.00  0.00     0.017 C 
HETATM    7  C11 UNL     1      27.080   2.253  53.241  1.00  0.00     0.085 C 
HETATM    8  N1  UNL     1      25.684   2.127  53.484  1.00  0.00    -0.375 N 
HETATM    9  C12 UNL     1      24.313   2.555  53.079  1.00  0.00     0.225 A 
HETATM   10  N2  UNL     1      24.501   3.538  52.031  1.00  0.00    -0.256 NA
HETATM   11  C13 UNL     1      24.162   3.479  50.819  1.00  0.00     0.228 A 
HETATM   12  N3  UNL     1      23.481   2.356  50.277  1.00  0.00    -0.257 NA
HETATM   13  C14 UNL     1      23.225   1.427  51.129  1.00  0.00     0.110 A 
HETATM   14  C15 UNL     1      23.550   1.410  52.602  1.00  0.00     0.069 A 
HETATM   15  H13 UNL     1      25.521   1.460  54.273  1.00  0.00     0.161 HD
ENDROOT
BRANCH   1  16
HETATM   16  C4  UNL     1      21.142   0.752  52.781  1.00  0.00     0.018 C 
HETATM   17  C3  UNL     1      20.064   1.434  52.453  1.00  0.00     0.066 C 
BRANCH  17  18
HETATM   18  C2  UNL     1      18.859   0.967  51.700  1.00  0.00     0.231 C 
BRANCH  18  19
HETATM   19  O1  UNL     1      18.670  -0.385  51.914  1.00  0.00    -0.390 OA
HETATM   20  C1  UNL     1      17.332  -0.721  52.082  1.00  0.00     0.201 C 
ENDBRANCH  18  19
ENDBRANCH  17  18
BRANCH  17  21
HETATM   21  O2  UNL     1      20.004   2.784  52.850  1.00  0.00    -0.358 OA
HETATM   22  C16 UNL     1      20.453   3.746  51.890  1.00  0.00     0.209 C 
ENDBRANCH  17  21
ENDBRANCH   1  16
TORSDOF 4
ENDMDL
MODEL 7
REMARK VINA RESULT:      -6.8      1.383      1.762
REMARK  4 active torsions:
REMARK  status: ('A' for Active; 'I' for Inactive)
REMARK    1  A    between atoms: O1_2  and  C2_3 
REMARK    2  A    between atoms: C2_3  and  C3_4 
REMARK    3  A    between atoms: C3_4  and  O2_20 
REMARK    4  A    between atoms: C4_5  and  C5_6 
ROOT
HETATM    1  C5  UNL     1      24.382   0.261  52.534  1.00  0.00     0.062 A 
HETATM    2  C6  UNL     1      23.001   0.363  53.021  1.00  0.00    -0.052 A 
HETATM    3  C7  UNL     1      21.764   0.405  53.553  1.00  0.00     0.005 C 
HETATM    4  C8  UNL     1      20.434   0.861  53.290  1.00  0.00     0.000 C 
HETATM    5  C9  UNL     1      19.626   1.421  52.462  1.00  0.00     0.001 C 
HETATM    6  C10 UNL     1      19.498   1.990  51.149  1.00  0.00     0.017 C 
HETATM    7  C11 UNL     1      20.465   2.026  50.257  1.00  0.00     0.085 C 
HETATM    8  N1  UNL     1      21.703   1.445  50.644  1.00  0.00    -0.375 N 
HETATM    9  C12 UNL     1      23.167   1.662  50.837  1.00  0.00     0.225 A 
HETATM   10  N2  UNL     1      23.423   3.021  50.404  1.00  0.00    -0.256 NA
HETATM   11  C13 UNL     1      23.824   4.006  51.080  1.00  0.00     0.228 A 
HETATM   12  N3  UNL     1      24.116   3.904  52.467  1.00  0.00    -0.257 NA
HETATM   13  C14 UNL     1      23.960   2.725  52.959  1.00  0.00     0.110 A 
HETATM   14  C15 UNL     1      23.524   1.474  52.236  1.00  0.00     0.069 A 
HETATM   15  H13 UNL     1      21.557   0.444  50.913  1.00  0.00     0.161 HD
ENDROOT
BRANCH   1  16
HETATM   16  C4  UNL     1      25.528   0.516  53.388  1.00  0.00     0.018 C 
HETATM   17  C3  UNL     1      26.490  -0.176  53.964  1.00  0.00     0.066 C 
BRANCH  17  18
HETATM   18  C2  UNL     1      27.603   0.320  54.831  1.00  0.00     0.231 C 
BRANCH  18  19
HETATM   19  O1  UNL     1      28.724  -0.468  54.649  1.00  0.00    -0.390 OA
HETATM   20  C1  UNL     1      29.625   0.080  53.745  1.00  0.00     0.201 C 
ENDBRANCH  18  19
ENDBRANCH  17  18
BRANCH  17  21
HETATM   21  O2  UNL     1      26.500  -1.569  53.759  1.00  0.00    -0.358 OA
HETATM   22  C16 UNL     1      26.903  -2.014  52.459  1.00  0.00     0.209 C 
ENDBRANCH  17  21
ENDBRANCH   1  16
TORSDOF 4
ENDMDL
MODEL 8
REMARK VINA RESULT:      -6.5      4.136      5.696
REMARK  4 active torsions:
REMARK  status: ('A' for Active; 'I' for Inactive)
REMARK    1  A    between atoms: O1_2  and  C2_3 
REMARK    2  A    between atoms: C2_3  and  C3_4 
REMARK    3  A    between atoms: C3_4  and  O2_20 
REMARK    4  A    between atoms: C4_5  and  C5_6 
ROOT
HETATM    1  C5  UNL     1      25.740   3.765  49.296  1.00  0.00     0.062 A 
HETATM    2  C6  UNL     1      26.070   3.070  50.547  1.00  0.00    -0.052 A 
HETATM    3  C7  UNL     1      26.471   2.465  51.683  1.00  0.00     0.005 C 
HETATM    4  C8  UNL     1      25.996   1.651  52.758  1.00  0.00     0.000 C 
HETATM    5  C9  UNL     1      25.015   0.999  53.271  1.00  0.00     0.001 C 
HETATM    6  C10 UNL     1      23.644   0.608  53.091  1.00  0.00     0.017 C 
HETATM    7  C11 UNL     1      22.920   0.897  52.030  1.00  0.00     0.085 C 
HETATM    8  N1  UNL     1      23.572   1.638  51.006  1.00  0.00    -0.375 N 
HETATM    9  C12 UNL     1      23.558   2.876  50.173  1.00  0.00     0.225 A 
HETATM   10  N2  UNL     1      22.352   3.588  50.547  1.00  0.00    -0.256 NA
HETATM   11  C13 UNL     1      22.235   4.713  51.103  1.00  0.00     0.228 A 
HETATM   12  N3  UNL     1      23.361   5.504  51.455  1.00  0.00    -0.257 NA
HETATM   13  C14 UNL     1      24.495   4.987  51.137  1.00  0.00     0.110 A 
HETATM   14  C15 UNL     1      24.748   3.674  50.438  1.00  0.00     0.069 A 
HETATM   15  H13 UNL     1      24.421   1.121  50.680  1.00  0.00     0.161 HD
ENDROOT
BRANCH   1  16
HETATM   16  C4  UNL     1      26.216   5.105  49.003  1.00  0.00     0.018 C 
HETATM   17  C3  UNL     1      27.346   5.687  48.658  1.00  0.00     0.066 C 
BRANCH  17  18
HETATM   18  C2  UNL     1      27.607   7.137  48.400  1.00  0.00     0.231 C 
BRANCH  18  19
HETATM   19  O1  UNL     1      27.102   7.894  49.440  1.00  0.00    -0.390 OA
HETATM   20  C1  UNL     1      26.254   8.905  49.005  1.00  0.00     0.201 C 
ENDBRANCH  18  19
ENDBRANCH  17  18
BRANCH  17  21
HETATM   21  O2  UNL     1      28.478   4.864  48.504  1.00  0.00    -0.358 OA
HETATM   22  C16 UNL     1      29.674   5.510  48.052  1.00  0.00     0.209 C 
ENDBRANCH  17  21
ENDBRANCH   1  16
TORSDOF 4
ENDMDL
MODEL 9
REMARK VINA RESULT:      -6.5      2.107      4.315
REMARK  4 active torsions:
REMARK  status: ('A' for Active; 'I' for Inactive)
REMARK    1  A    between atoms: O1_2  and  C2_3 
REMARK    2  A    between atoms: C2_3  and  C3_4 
REMARK    3  A    between atoms: C3_4  and  O2_20 
REMARK    4  A    between atoms: C4_5  and  C5_6 
ROOT
HETATM    1  C5  UNL     1      24.539   2.844  52.886  1.00  0.00     0.062 A 
HETATM    2  C6  UNL     1      24.575   3.054  51.434  1.00  0.00    -0.052 A 
HETATM    3  C7  UNL     1      24.704   3.209  50.101  1.00  0.00     0.005 C 
HETATM    4  C8  UNL     1      24.003   3.668  48.943  1.00  0.00     0.000 C 
HETATM    5  C9  UNL     1      22.940   4.209  48.464  1.00  0.00     0.001 C 
HETATM    6  C10 UNL     1      21.660   4.772  48.793  1.00  0.00     0.017 C 
HETATM    7  C11 UNL     1      21.205   4.921  50.019  1.00  0.00     0.085 C 
HETATM    8  N1  UNL     1      22.067   4.496  51.067  1.00  0.00    -0.375 N 
HETATM    9  C12 UNL     1      22.229   3.608  52.255  1.00  0.00     0.225 A 
HETATM   10  N2  UNL     1      20.955   2.938  52.421  1.00  0.00    -0.256 NA
HETATM   11  C13 UNL     1      20.686   1.710  52.323  1.00  0.00     0.228 A 
HETATM   12  N3  UNL     1      21.680   0.739  52.027  1.00  0.00    -0.257 NA
HETATM   13  C14 UNL     1      22.868   1.216  51.894  1.00  0.00     0.110 A 
HETATM   14  C15 UNL     1      23.305   2.654  52.027  1.00  0.00     0.069 A 
HETATM   15  H13 UNL     1      22.980   5.005  51.003  1.00  0.00     0.161 HD
ENDROOT
BRANCH   1  16
HETATM   16  C4  UNL     1      25.044   1.635  53.510  1.00  0.00     0.018 C 
HETATM   17  C3  UNL     1      26.139   1.237  54.125  1.00  0.00     0.066 C 
BRANCH  17  18
HETATM   18  C2  UNL     1      26.446  -0.107  54.706  1.00  0.00     0.231 C 
BRANCH  18  19
HETATM   19  O1  UNL     1      27.405  -0.739  53.938  1.00  0.00    -0.390 OA
HETATM   20  C1  UNL     1      26.862  -1.423  52.857  1.00  0.00     0.201 C 
ENDBRANCH  18  19
ENDBRANCH  17  18
BRANCH  17  21
HETATM   21  O2  UNL     1      27.179   2.176  54.271  1.00  0.00    -0.358 OA
HETATM   22  C16 UNL     1      28.092   2.285  53.175  1.00  0.00     0.209 C 
ENDBRANCH  17  21
ENDBRANCH   1  16
TORSDOF 4
ENDMDL
