MODEL 1
REMARK VINA RESULT:      -8.4      0.000      0.000
REMARK  3 active torsions:
REMARK  status: ('A' for Active; 'I' for Inactive)
REMARK       I    between atoms: N1_2  and  C2_3 
REMARK    1  A    between atoms: C2_3  and  C3_5 
REMARK    2  A    between atoms: C4_6  and  N2_7 
REMARK    3  A    between atoms: N2_7  and  N3_9 
ROOT
HETATM    1  C3  UNL     1      25.769  -0.265  54.422  1.00  0.00     0.034 C 
HETATM    2  C4  UNL     1      25.231   0.517  53.509  1.00  0.00     0.046 C 
HETATM    3  C6  UNL     1      23.822   0.435  53.163  1.00  0.00     0.043 A 
HETATM    4  C7  UNL     1      23.565   1.240  52.062  1.00  0.00     0.065 A 
HETATM    5  C8  UNL     1      22.309   1.271  51.586  1.00  0.00     0.034 A 
HETATM    6  N4  UNL     1      22.262   0.501  52.531  1.00  0.00     0.000 N 
HETATM    7  C9  UNL     1      21.603  -0.260  53.250  1.00  0.00     0.041 C 
HETATM    8  C10 UNL     1      22.835  -0.355  53.811  1.00  0.00     0.035 A 
HETATM    9  C11 UNL     1      22.416  -1.252  54.865  1.00  0.00     0.030 C 
HETATM   10  C12 UNL     1      23.664  -0.799  55.706  1.00  0.00     0.007 C 
HETATM   11  C13 UNL     1      24.968  -1.260  55.175  1.00  0.00     0.046 C 
HETATM   12  N5  UNL     1      20.385  -0.814  53.449  1.00  0.00    -0.387 N 
HETATM   13  C14 UNL     1      20.994  -1.941  54.178  1.00  0.00     0.137 C 
HETATM   14  C15 UNL     1      19.260  -0.057  52.847  1.00  0.00     0.123 C 
HETATM   15  C16 UNL     1      19.595   0.723  51.685  1.00  0.00     0.039 C 
HETATM   16  C17 UNL     1      20.072   1.551  50.663  1.00  0.00     0.121 C 
HETATM   17  N6  UNL     1      21.549   1.831  50.654  1.00  0.00    -0.391 N 
HETATM   18  H26 UNL     1      22.477   2.257  50.319  1.00  0.00     0.159 HD
ENDROOT
BRANCH   1  19
HETATM   19  C2  UNL     1      27.176   0.047  54.515  1.00  0.00     0.249 C 
HETATM   20  N1  UNL     1      28.098  -0.839  53.929  1.00  0.00    -0.361 N 
HETATM   21  C1  UNL     1      29.509  -0.513  54.032  1.00  0.00     0.149 C 
HETATM   22  H4  UNL     1      27.784  -1.700  53.436  1.00  0.00     0.162 HD
HETATM   23  O1  UNL     1      27.695   1.036  55.071  1.00  0.00    -0.268 OA
ENDBRANCH   1  19
BRANCH   2  24
HETATM   24  N2  UNL     1      25.799   1.507  52.708  1.00  0.00    -0.322 N 
HETATM   25  C5  UNL     1      26.409   1.166  51.439  1.00  0.00     0.171 C 
BRANCH  24  26
HETATM   26  N3  UNL     1      25.771   2.831  53.158  1.00  0.00    -0.248 NA
HETATM   27  H8  UNL     1      26.394   3.445  52.591  1.00  0.00     0.143 HD
HETATM   28  H9  UNL     1      24.796   3.196  53.242  1.00  0.00     0.143 HD
ENDBRANCH  24  26
ENDBRANCH   2  24
TORSDOF 3
ENDMDL
MODEL 2
REMARK VINA RESULT:      -8.3      1.833      2.426
REMARK  3 active torsions:
REMARK  status: ('A' for Active; 'I' for Inactive)
REMARK       I    between atoms: N1_2  and  C2_3 
REMARK    1  A    between atoms: C2_3  and  C3_5 
REMARK    2  A    between atoms: C4_6  and  N2_7 
REMARK    3  A    between atoms: N2_7  and  N3_9 
ROOT
HETATM    1  C3  UNL     1      25.065  -0.139  53.411  1.00  0.00     0.034 C 
HETATM    2  C4  UNL     1      25.076   1.125  53.044  1.00  0.00     0.046 C 
HETATM    3  C6  UNL     1      23.868   1.810  52.614  1.00  0.00     0.043 A 
HETATM    4  C7  UNL     1      24.194   3.065  52.121  1.00  0.00     0.065 A 
HETATM    5  C8  UNL     1      23.198   3.836  51.656  1.00  0.00     0.034 A 
HETATM    6  N4  UNL     1      22.650   2.808  52.018  1.00  0.00     0.000 N 
HETATM    7  C9  UNL     1      21.613   2.147  52.154  1.00  0.00     0.041 C 
HETATM    8  C10 UNL     1      22.544   1.297  52.653  1.00  0.00     0.035 A 
HETATM    9  C11 UNL     1      21.589   0.272  53.010  1.00  0.00     0.030 C 
HETATM   10  C12 UNL     1      22.628  -0.295  54.045  1.00  0.00     0.007 C 
HETATM   11  C13 UNL     1      23.816  -0.938  53.438  1.00  0.00     0.046 C 
HETATM   12  N5  UNL     1      20.279   2.127  51.933  1.00  0.00    -0.387 N 
HETATM   13  C14 UNL     1      20.276   0.653  51.963  1.00  0.00     0.137 C 
HETATM   14  C15 UNL     1      19.662   3.466  51.769  1.00  0.00     0.123 C 
HETATM   15  C16 UNL     1      20.535   4.487  51.252  1.00  0.00     0.039 C 
HETATM   16  C17 UNL     1      21.513   5.419  50.889  1.00  0.00     0.121 C 
HETATM   17  N6  UNL     1      22.943   5.030  51.135  1.00  0.00    -0.391 N 
HETATM   18  H26 UNL     1      24.013   5.136  51.153  1.00  0.00     0.159 HD
ENDROOT
BRANCH   1  19
HETATM   19  C2  UNL     1      26.414  -0.524  53.757  1.00  0.00     0.249 C 
HETATM   20  N1  UNL     1      27.196  -1.169  52.781  1.00  0.00    -0.361 N 
HETATM   21  C1  UNL     1      28.549  -1.550  53.143  1.00  0.00     0.149 C 
HETATM   22  H4  UNL     1      26.822  -1.365  51.831  1.00  0.00     0.162 HD
HETATM   23  O1  UNL     1      26.992  -0.353  54.849  1.00  0.00    -0.268 OA
ENDBRANCH   1  19
BRANCH   2  24
HETATM   24  N2  UNL     1      26.126   2.040  52.959  1.00  0.00    -0.322 N 
HETATM   25  C5  UNL     1      26.802   2.267  51.699  1.00  0.00     0.171 C 
BRANCH  24  26
HETATM   26  N3  UNL     1      26.511   2.726  54.115  1.00  0.00    -0.248 NA
HETATM   27  H8  UNL     1      26.549   3.757  53.957  1.00  0.00     0.143 HD
HETATM   28  H9  UNL     1      25.933   2.456  54.942  1.00  0.00     0.143 HD
ENDBRANCH  24  26
ENDBRANCH   2  24
TORSDOF 3
ENDMDL
MODEL 3
REMARK VINA RESULT:      -8.2      1.792      3.350
REMARK  3 active torsions:
REMARK  status: ('A' for Active; 'I' for Inactive)
REMARK       I    between atoms: N1_2  and  C2_3 
REMARK    1  A    between atoms: C2_3  and  C3_5 
REMARK    2  A    between atoms: C4_6  and  N2_7 
REMARK    3  A    between atoms: N2_7  and  N3_9 
ROOT
HETATM    1  C3  UNL     1      25.577   2.125  52.671  1.00  0.00     0.034 C 
HETATM    2  C4  UNL     1      25.083   0.977  53.083  1.00  0.00     0.046 C 
HETATM    3  C6  UNL     1      23.653   0.717  53.096  1.00  0.00     0.043 A 
HETATM    4  C7  UNL     1      23.404  -0.490  53.735  1.00  0.00     0.065 A 
HETATM    5  C8  UNL     1      22.126  -0.883  53.859  1.00  0.00     0.034 A 
HETATM    6  N4  UNL     1      22.064   0.188  53.277  1.00  0.00     0.000 N 
HETATM    7  C9  UNL     1      21.379   1.075  52.753  1.00  0.00     0.041 C 
HETATM    8  C10 UNL     1      22.635   1.556  52.570  1.00  0.00     0.035 A 
HETATM    9  C11 UNL     1      22.205   2.734  51.848  1.00  0.00     0.030 C 
HETATM   10  C12 UNL     1      23.641   2.834  51.216  1.00  0.00     0.007 C 
HETATM   11  C13 UNL     1      24.709   3.218  52.168  1.00  0.00     0.046 C 
HETATM   12  N5  UNL     1      20.119   1.487  52.491  1.00  0.00    -0.387 N 
HETATM   13  C14 UNL     1      20.576   2.885  52.387  1.00  0.00     0.137 C 
HETATM   14  C15 UNL     1      19.103   0.405  52.496  1.00  0.00     0.123 C 
HETATM   15  C16 UNL     1      19.410  -0.722  53.337  1.00  0.00     0.039 C 
HETATM   16  C17 UNL     1      19.885  -1.816  54.067  1.00  0.00     0.121 C 
HETATM   17  N6  UNL     1      21.367  -1.869  54.318  1.00  0.00    -0.391 N 
HETATM   18  H26 UNL     1      22.299  -2.262  54.681  1.00  0.00     0.159 HD
ENDROOT
BRANCH   1  19
HETATM   19  C2  UNL     1      27.015   2.075  52.801  1.00  0.00     0.249 C 
HETATM   20  N1  UNL     1      27.586   2.405  54.043  1.00  0.00    -0.361 N 
HETATM   21  C1  UNL     1      29.032   2.350  54.160  1.00  0.00     0.149 C 
HETATM   22  H4  UNL     1      26.995   2.677  54.855  1.00  0.00     0.162 HD
HETATM   23  O1  UNL     1      27.842   1.767  51.920  1.00  0.00    -0.268 OA
ENDBRANCH   1  19
BRANCH   2  24
HETATM   24  N2  UNL     1      25.717  -0.164  53.577  1.00  0.00    -0.322 N 
HETATM   25  C5  UNL     1      26.120  -1.227  52.680  1.00  0.00     0.171 C 
BRANCH  24  26
HETATM   26  N3  UNL     1      25.948  -0.258  54.953  1.00  0.00    -0.248 NA
HETATM   27  H8  UNL     1      25.055  -0.299  55.491  1.00  0.00     0.143 HD
HETATM   28  H9  UNL     1      26.608  -1.032  55.187  1.00  0.00     0.143 HD
ENDBRANCH  24  26
ENDBRANCH   2  24
TORSDOF 3
ENDMDL
MODEL 4
REMARK VINA RESULT:      -8.2      2.555      4.382
REMARK  3 active torsions:
REMARK  status: ('A' for Active; 'I' for Inactive)
REMARK       I    between atoms: N1_2  and  C2_3 
REMARK    1  A    between atoms: C2_3  and  C3_5 
REMARK    2  A    between atoms: C4_6  and  N2_7 
REMARK    3  A    between atoms: N2_7  and  N3_9 
ROOT
HETATM    1  C3  UNL     1      25.839   2.960  51.027  1.00  0.00     0.034 C 
HETATM    2  C4  UNL     1      24.539   2.753  50.998  1.00  0.00     0.046 C 
HETATM    3  C6  UNL     1      23.899   1.766  51.852  1.00  0.00     0.043 A 
HETATM    4  C7  UNL     1      22.565   1.635  51.495  1.00  0.00     0.065 A 
HETATM    5  C8  UNL     1      21.818   0.744  52.168  1.00  0.00     0.034 A 
HETATM    6  N4  UNL     1      22.928   0.658  52.668  1.00  0.00     0.000 N 
HETATM    7  C9  UNL     1      23.682   0.136  53.499  1.00  0.00     0.041 C 
HETATM    8  C10 UNL     1      24.517   1.013  52.886  1.00  0.00     0.035 A 
HETATM    9  C11 UNL     1      25.655   0.694  53.719  1.00  0.00     0.030 C 
HETATM   10  C12 UNL     1      26.276   2.091  53.355  1.00  0.00     0.007 C 
HETATM   11  C13 UNL     1      26.731   2.218  51.951  1.00  0.00     0.046 C 
HETATM   12  N5  UNL     1      23.778  -0.801  54.469  1.00  0.00    -0.387 N 
HETATM   13  C14 UNL     1      25.237  -0.882  54.275  1.00  0.00     0.137 C 
HETATM   14  C15 UNL     1      22.482  -1.189  55.080  1.00  0.00     0.123 C 
HETATM   15  C16 UNL     1      21.333  -1.047  54.225  1.00  0.00     0.039 C 
HETATM   16  C17 UNL     1      20.284  -0.728  53.357  1.00  0.00     0.121 C 
HETATM   17  N6  UNL     1      20.588   0.256  52.262  1.00  0.00    -0.391 N 
HETATM   18  H26 UNL     1      20.400   0.883  51.410  1.00  0.00     0.159 HD
ENDROOT
BRANCH   1  19
HETATM   19  C2  UNL     1      26.159   3.979  50.055  1.00  0.00     0.249 C 
HETATM   20  N1  UNL     1      25.796   5.308  50.336  1.00  0.00    -0.361 N 
HETATM   21  C1  UNL     1      26.124   6.322  49.350  1.00  0.00     0.149 C 
HETATM   22  H4  UNL     1      25.310   5.562  51.220  1.00  0.00     0.162 HD
HETATM   23  O1  UNL     1      26.736   3.823  48.960  1.00  0.00    -0.268 OA
ENDBRANCH   1  19
BRANCH   2  24
HETATM   24  N2  UNL     1      23.539   3.341  50.223  1.00  0.00    -0.322 N 
HETATM   25  C5  UNL     1      23.230   2.823  48.907  1.00  0.00     0.171 C 
BRANCH  24  26
HETATM   26  N3  UNL     1      22.851   4.442  50.741  1.00  0.00    -0.248 NA
HETATM   27  H8  UNL     1      23.085   5.320  50.229  1.00  0.00     0.143 HD
HETATM   28  H9  UNL     1      21.823   4.266  50.809  1.00  0.00     0.143 HD
ENDBRANCH  24  26
ENDBRANCH   2  24
TORSDOF 3
ENDMDL
MODEL 5
REMARK VINA RESULT:      -8.0      1.599      3.618
REMARK  3 active torsions:
REMARK  status: ('A' for Active; 'I' for Inactive)
REMARK       I    between atoms: N1_2  and  C2_3 
REMARK    1  A    between atoms: C2_3  and  C3_5 
REMARK    2  A    between atoms: C4_6  and  N2_7 
REMARK    3  A    between atoms: N2_7  and  N3_9 
ROOT
HETATM    1  C3  UNL     1      27.213   1.289  52.976  1.00  0.00     0.034 C 
HETATM    2  C4  UNL     1      26.155   0.533  53.181  1.00  0.00     0.046 C 
HETATM    3  C6  UNL     1      24.864   0.842  52.586  1.00  0.00     0.043 A 
HETATM    4  C7  UNL     1      23.898  -0.008  53.105  1.00  0.00     0.065 A 
HETATM    5  C8  UNL     1      22.632   0.148  52.682  1.00  0.00     0.034 A 
HETATM    6  N4  UNL     1      23.265   1.004  52.086  1.00  0.00     0.000 N 
HETATM    7  C9  UNL     1      23.285   1.944  51.282  1.00  0.00     0.041 C 
HETATM    8  C10 UNL     1      24.591   1.864  51.638  1.00  0.00     0.035 A 
HETATM    9  C11 UNL     1      25.021   2.924  50.754  1.00  0.00     0.030 C 
HETATM   10  C12 UNL     1      26.477   2.334  50.800  1.00  0.00     0.007 C 
HETATM   11  C13 UNL     1      27.165   2.487  52.103  1.00  0.00     0.046 C 
HETATM   12  N5  UNL     1      22.528   2.732  50.485  1.00  0.00    -0.387 N 
HETATM   13  C14 UNL     1      23.550   3.794  50.530  1.00  0.00     0.137 C 
HETATM   14  C15 UNL     1      21.224   2.143  50.095  1.00  0.00     0.123 C 
HETATM   15  C16 UNL     1      20.671   1.201  51.032  1.00  0.00     0.039 C 
HETATM   16  C17 UNL     1      20.312   0.199  51.940  1.00  0.00     0.121 C 
HETATM   17  N6  UNL     1      21.410  -0.351  52.808  1.00  0.00    -0.391 N 
HETATM   18  H26 UNL     1      21.867  -0.975  53.554  1.00  0.00     0.159 HD
ENDROOT
BRANCH   1  19
HETATM   19  C2  UNL     1      28.321   0.731  53.715  1.00  0.00     0.249 C 
HETATM   20  N1  UNL     1      29.030  -0.344  53.147  1.00  0.00    -0.361 N 
HETATM   21  C1  UNL     1      30.141  -0.896  53.902  1.00  0.00     0.149 C 
HETATM   22  H4  UNL     1      28.771  -0.732  52.218  1.00  0.00     0.162 HD
HETATM   23  O1  UNL     1      28.743   1.092  54.832  1.00  0.00    -0.268 OA
ENDBRANCH   1  19
BRANCH   2  24
HETATM   24  N2  UNL     1      25.994  -0.622  53.947  1.00  0.00    -0.322 N 
HETATM   25  C5  UNL     1      25.513  -0.538  55.309  1.00  0.00     0.171 C 
BRANCH  24  26
HETATM   26  N3  UNL     1      26.313  -1.856  53.371  1.00  0.00    -0.248 NA
HETATM   27  H8  UNL     1      26.369  -2.612  54.088  1.00  0.00     0.143 HD
HETATM   28  H9  UNL     1      25.683  -2.090  52.572  1.00  0.00     0.143 HD
ENDBRANCH  24  26
ENDBRANCH   2  24
TORSDOF 3
ENDMDL
MODEL 6
REMARK VINA RESULT:      -8.0      2.465      5.948
REMARK  3 active torsions:
REMARK  status: ('A' for Active; 'I' for Inactive)
REMARK       I    between atoms: N1_2  and  C2_3 
REMARK    1  A    between atoms: C2_3  and  C3_5 
REMARK    2  A    between atoms: C4_6  and  N2_7 
REMARK    3  A    between atoms: N2_7  and  N3_9 
ROOT
HETATM    1  C3  UNL     1      20.962   1.578  52.589  1.00  0.00     0.034 C 
HETATM    2  C4  UNL     1      22.057   2.189  52.185  1.00  0.00     0.046 C 
HETATM    3  C6  UNL     1      23.380   1.728  52.572  1.00  0.00     0.043 A 
HETATM    4  C7  UNL     1      24.333   2.647  52.156  1.00  0.00     0.065 A 
HETATM    5  C8  UNL     1      25.620   2.393  52.449  1.00  0.00     0.034 A 
HETATM    6  N4  UNL     1      25.004   1.451  52.921  1.00  0.00     0.000 N 
HETATM    7  C9  UNL     1      25.011   0.380  53.540  1.00  0.00     0.041 C 
HETATM    8  C10 UNL     1      23.688   0.540  53.287  1.00  0.00     0.035 A 
HETATM    9  C11 UNL     1      23.298  -0.709  53.904  1.00  0.00     0.030 C 
HETATM   10  C12 UNL     1      21.978  -0.684  53.051  1.00  0.00     0.007 C 
HETATM   11  C13 UNL     1      21.009   0.365  53.441  1.00  0.00     0.046 C 
HETATM   12  N5  UNL     1      25.788  -0.514  54.191  1.00  0.00    -0.387 N 
HETATM   13  C14 UNL     1      24.626  -0.991  54.964  1.00  0.00     0.137 C 
HETATM   14  C15 UNL     1      27.222  -0.475  53.813  1.00  0.00     0.123 C 
HETATM   15  C16 UNL     1      27.700   0.801  53.349  1.00  0.00     0.039 C 
HETATM   16  C17 UNL     1      28.008   2.041  52.779  1.00  0.00     0.121 C 
HETATM   17  N6  UNL     1      26.849   2.867  52.294  1.00  0.00    -0.391 N 
HETATM   18  H26 UNL     1      26.345   3.703  51.845  1.00  0.00     0.159 HD
ENDROOT
BRANCH   1  19
HETATM   19  C2  UNL     1      19.823   2.287  52.055  1.00  0.00     0.249 C 
HETATM   20  N1  UNL     1      19.132   1.720  50.969  1.00  0.00    -0.361 N 
HETATM   21  C1  UNL     1      17.989   2.444  50.442  1.00  0.00     0.149 C 
HETATM   22  H4  UNL     1      19.425   0.812  50.554  1.00  0.00     0.162 HD
HETATM   23  O1  UNL     1      19.359   3.376  52.448  1.00  0.00    -0.268 OA
ENDBRANCH   1  19
BRANCH   2  24
HETATM   24  N2  UNL     1      22.228   3.319  51.386  1.00  0.00    -0.322 N 
HETATM   25  C5  UNL     1      22.438   3.186  49.959  1.00  0.00     0.171 C 
BRANCH  24  26
HETATM   26  N3  UNL     1      22.198   4.579  51.993  1.00  0.00    -0.248 NA
HETATM   27  H8  UNL     1      22.942   4.676  52.717  1.00  0.00     0.143 HD
HETATM   28  H9  UNL     1      22.201   5.352  51.291  1.00  0.00     0.143 HD
ENDBRANCH  24  26
ENDBRANCH   2  24
TORSDOF 3
ENDMDL
MODEL 7
REMARK VINA RESULT:      -7.5      3.146      5.856
REMARK  3 active torsions:
REMARK  status: ('A' for Active; 'I' for Inactive)
REMARK       I    between atoms: N1_2  and  C2_3 
REMARK    1  A    between atoms: C2_3  and  C3_5 
REMARK    2  A    between atoms: C4_6  and  N2_7 
REMARK    3  A    between atoms: N2_7  and  N3_9 
ROOT
HETATM    1  C3  UNL     1      24.367   3.568  49.792  1.00  0.00     0.034 C 
HETATM    2  C4  UNL     1      23.412   3.177  50.609  1.00  0.00     0.046 C 
HETATM    3  C6  UNL     1      23.623   2.123  51.587  1.00  0.00     0.043 A 
HETATM    4  C7  UNL     1      22.415   1.795  52.187  1.00  0.00     0.065 A 
HETATM    5  C8  UNL     1      22.416   0.818  53.109  1.00  0.00     0.034 A 
HETATM    6  N4  UNL     1      23.577   0.901  52.745  1.00  0.00     0.000 N 
HETATM    7  C9  UNL     1      24.748   0.507  52.827  1.00  0.00     0.041 C 
HETATM    8  C10 UNL     1      24.854   1.484  51.892  1.00  0.00     0.035 A 
HETATM    9  C11 UNL     1      26.286   1.346  51.740  1.00  0.00     0.030 C 
HETATM   10  C12 UNL     1      26.338   2.811  51.174  1.00  0.00     0.007 C 
HETATM   11  C13 UNL     1      25.728   2.978  49.835  1.00  0.00     0.046 C 
HETATM   12  N5  UNL     1      25.573  -0.390  53.413  1.00  0.00    -0.387 N 
HETATM   13  C14 UNL     1      26.531  -0.265  52.300  1.00  0.00     0.137 C 
HETATM   14  C15 UNL     1      25.066  -0.950  54.690  1.00  0.00     0.123 C 
HETATM   15  C16 UNL     1      23.633  -0.989  54.819  1.00  0.00     0.039 C 
HETATM   16  C17 UNL     1      22.244  -0.838  54.887  1.00  0.00     0.121 C 
HETATM   17  N6  UNL     1      21.627   0.161  53.948  1.00  0.00    -0.391 N 
HETATM   18  H26 UNL     1      20.848   0.740  53.487  1.00  0.00     0.159 HD
ENDROOT
BRANCH   1  19
HETATM   19  C2  UNL     1      23.839   4.606  48.938  1.00  0.00     0.249 C 
HETATM   20  N1  UNL     1      24.231   5.935  49.180  1.00  0.00    -0.361 N 
HETATM   21  C1  UNL     1      23.692   6.968  48.314  1.00  0.00     0.149 C 
HETATM   22  H4  UNL     1      24.887   6.174  49.950  1.00  0.00     0.162 HD
HETATM   23  O1  UNL     1      23.050   4.469  47.981  1.00  0.00    -0.268 OA
ENDBRANCH   1  19
BRANCH   2  24
HETATM   24  N2  UNL     1      22.089   3.603  50.735  1.00  0.00    -0.322 N 
HETATM   25  C5  UNL     1      21.736   4.631  51.691  1.00  0.00     0.171 C 
BRANCH  24  26
HETATM   26  N3  UNL     1      21.116   3.011  49.924  1.00  0.00    -0.248 NA
HETATM   27  H8  UNL     1      20.234   2.828  50.451  1.00  0.00     0.143 HD
HETATM   28  H9  UNL     1      20.965   3.546  49.039  1.00  0.00     0.143 HD
ENDBRANCH  24  26
ENDBRANCH   2  24
TORSDOF 3
ENDMDL
MODEL 8
REMARK VINA RESULT:      -7.3      2.707      6.421
REMARK  3 active torsions:
REMARK  status: ('A' for Active; 'I' for Inactive)
REMARK       I    between atoms: N1_2  and  C2_3 
REMARK    1  A    between atoms: C2_3  and  C3_5 
REMARK    2  A    between atoms: C4_6  and  N2_7 
REMARK    3  A    between atoms: N2_7  and  N3_9 
ROOT
HETATM    1  C3  UNL     1      22.131   2.772  50.092  1.00  0.00     0.034 C 
HETATM    2  C4  UNL     1      21.661   2.119  51.134  1.00  0.00     0.046 C 
HETATM    3  C6  UNL     1      22.533   1.385  52.036  1.00  0.00     0.043 A 
HETATM    4  C7  UNL     1      21.766   0.655  52.934  1.00  0.00     0.065 A 
HETATM    5  C8  UNL     1      22.408  -0.107  53.835  1.00  0.00     0.034 A 
HETATM    6  N4  UNL     1      23.297   0.414  53.181  1.00  0.00     0.000 N 
HETATM    7  C9  UNL     1      24.505   0.565  52.960  1.00  0.00     0.041 C 
HETATM    8  C10 UNL     1      23.953   1.370  52.017  1.00  0.00     0.035 A 
HETATM    9  C11 UNL     1      25.222   1.833  51.499  1.00  0.00     0.030 C 
HETATM   10  C12 UNL     1      24.491   3.099  50.922  1.00  0.00     0.007 C 
HETATM   11  C13 UNL     1      23.582   2.824  49.786  1.00  0.00     0.046 C 
HETATM   12  N5  UNL     1      25.751   0.183  53.321  1.00  0.00    -0.387 N 
HETATM   13  C14 UNL     1      26.273   0.562  51.996  1.00  0.00     0.137 C 
HETATM   14  C15 UNL     1      25.850  -0.374  54.693  1.00  0.00     0.123 C 
HETATM   15  C16 UNL     1      24.653  -0.999  55.191  1.00  0.00     0.039 C 
HETATM   16  C17 UNL     1      23.397  -1.443  55.616  1.00  0.00     0.121 C 
HETATM   17  N6  UNL     1      22.206  -0.925  54.859  1.00  0.00    -0.391 N 
HETATM   18  H26 UNL     1      21.169  -0.793  54.609  1.00  0.00     0.159 HD
ENDROOT
BRANCH   1  19
HETATM   19  C2  UNL     1      21.019   3.373  49.393  1.00  0.00     0.249 C 
HETATM   20  N1  UNL     1      20.561   4.632  49.823  1.00  0.00    -0.361 N 
HETATM   21  C1  UNL     1      19.443   5.224  49.111  1.00  0.00     0.149 C 
HETATM   22  H4  UNL     1      21.007   5.127  50.622  1.00  0.00     0.162 HD
HETATM   23  O1  UNL     1      20.392   2.901  48.424  1.00  0.00    -0.268 OA
ENDBRANCH   1  19
BRANCH   2  24
HETATM   24  N2  UNL     1      20.355   1.957  51.595  1.00  0.00    -0.322 N 
HETATM   25  C5  UNL     1      19.557   0.830  51.162  1.00  0.00     0.171 C 
BRANCH  24  26
HETATM   26  N3  UNL     1      19.834   2.909  52.478  1.00  0.00    -0.248 NA
HETATM   27  H8  UNL     1      20.313   2.880  53.404  1.00  0.00     0.143 HD
HETATM   28  H9  UNL     1      19.809   3.864  52.055  1.00  0.00     0.143 HD
ENDBRANCH  24  26
ENDBRANCH   2  24
TORSDOF 3
ENDMDL
MODEL 9
REMARK VINA RESULT:      -7.2      6.447      8.225
REMARK  3 active torsions:
REMARK  status: ('A' for Active; 'I' for Inactive)
REMARK       I    between atoms: N1_2  and  C2_3 
REMARK    1  A    between atoms: C2_3  and  C3_5 
REMARK    2  A    between atoms: C4_6  and  N2_7 
REMARK    3  A    between atoms: N2_7  and  N3_9 
ROOT
HETATM    1  C3  UNL     1      28.033   6.933  48.612  1.00  0.00     0.034 C 
HETATM    2  C4  UNL     1      27.071   7.608  49.206  1.00  0.00     0.046 C 
HETATM    3  C6  UNL     1      25.807   6.987  49.567  1.00  0.00     0.043 A 
HETATM    4  C7  UNL     1      24.922   7.958  50.012  1.00  0.00     0.065 A 
HETATM    5  C8  UNL     1      23.688   7.566  50.371  1.00  0.00     0.034 A 
HETATM    6  N4  UNL     1      24.249   6.540  50.022  1.00  0.00     0.000 N 
HETATM    7  C9  UNL     1      24.212   5.316  49.845  1.00  0.00     0.041 C 
HETATM    8  C10 UNL     1      25.482   5.608  49.468  1.00  0.00     0.035 A 
HETATM    9  C11 UNL     1      25.841   4.235  49.188  1.00  0.00     0.030 C 
HETATM   10  C12 UNL     1      27.353   4.624  49.368  1.00  0.00     0.007 C 
HETATM   11  C13 UNL     1      27.900   5.489  48.298  1.00  0.00     0.046 C 
HETATM   12  N5  UNL     1      23.429   4.215  49.897  1.00  0.00    -0.387 N 
HETATM   13  C14 UNL     1      24.292   3.530  48.919  1.00  0.00     0.137 C 
HETATM   14  C15 UNL     1      22.253   4.339  50.793  1.00  0.00     0.123 C 
HETATM   15  C16 UNL     1      21.752   5.677  50.970  1.00  0.00     0.039 C 
HETATM   16  C17 UNL     1      21.454   7.027  51.179  1.00  0.00     0.121 C 
HETATM   17  N6  UNL     1      22.536   8.017  50.851  1.00  0.00    -0.391 N 
HETATM   18  H26 UNL     1      23.008   8.979  50.757  1.00  0.00     0.159 HD
ENDROOT
BRANCH   1  19
HETATM   19  C2  UNL     1      29.138   7.831  48.372  1.00  0.00     0.249 C 
HETATM   20  N1  UNL     1      30.055   8.057  49.414  1.00  0.00    -0.361 N 
HETATM   21  C1  UNL     1      31.161   8.963  49.159  1.00  0.00     0.149 C 
HETATM   22  H4  UNL     1      29.950   7.592  50.339  1.00  0.00     0.162 HD
HETATM   23  O1  UNL     1      29.390   8.454  47.321  1.00  0.00    -0.268 OA
ENDBRANCH   1  19
BRANCH   2  24
HETATM   24  N2  UNL     1      27.001   8.947  49.591  1.00  0.00    -0.322 N 
HETATM   25  C5  UNL     1      26.458   9.942  48.690  1.00  0.00     0.171 C 
BRANCH  24  26
HETATM   26  N3  UNL     1      27.471   9.305  50.858  1.00  0.00    -0.248 NA
HETATM   27  H8  UNL     1      28.110  10.128  50.815  1.00  0.00     0.143 HD
HETATM   28  H9  UNL     1      26.693   9.422  51.546  1.00  0.00     0.143 HD
ENDBRANCH  24  26
ENDBRANCH   2  24
TORSDOF 3
ENDMDL
