MODEL 1
REMARK VINA RESULT:      -8.2      0.000      0.000
REMARK  6 active torsions:
REMARK  status: ('A' for Active; 'I' for Inactive)
REMARK    1  A    between atoms: C5_6  and  N1_7 
REMARK    2  A    between atoms: C10_13  and  O1_14 
REMARK    3  A    between atoms: O1_14  and  C11_15 
REMARK    4  A    between atoms: C11_15  and  C12_16 
REMARK    5  A    between atoms: C12_16  and  C13_17 
REMARK    6  A    between atoms: C13_17  and  N3_18 
ROOT
HETATM    1  N1  UNL     1      25.199  -0.088  53.713  1.00  0.00    -0.338 N 
HETATM    2  C6  UNL     1      24.759  -0.957  54.759  1.00  0.00     0.176 A 
HETATM    3  C7  UNL     1      23.276  -1.029  54.746  1.00  0.00     0.110 A 
HETATM    4  N2  UNL     1      22.443  -0.402  53.950  1.00  0.00    -0.261 NA
HETATM    5  C8  UNL     1      22.932   0.464  52.952  1.00  0.00     0.088 A 
HETATM    6  C9  UNL     1      22.115   1.152  52.109  1.00  0.00     0.073 A 
HETATM    7  C10 UNL     1      22.686   1.987  51.170  1.00  0.00     0.107 A 
HETATM    8  C18 UNL     1      24.071   2.126  51.080  1.00  0.00     0.138 A 
HETATM    9  C19 UNL     1      24.901   1.428  51.933  1.00  0.00     0.134 A 
HETATM   10  C20 UNL     1      24.301   0.604  52.858  1.00  0.00     0.101 A 
HETATM   11  O3  UNL     1      26.270   1.595  51.815  1.00  0.00    -0.344 OA
HETATM   12  C21 UNL     1      26.730   2.800  51.232  1.00  0.00     0.202 C 
HETATM   13  C22 UNL     1      26.028   3.005  49.893  1.00  0.00     0.202 C 
HETATM   14  O4  UNL     1      24.625   2.978  50.118  1.00  0.00    -0.344 OA
ENDROOT
BRANCH   7  15
HETATM   15  O1  UNL     1      21.933   2.716  50.284  1.00  0.00    -0.348 OA
BRANCH  15  16
HETATM   16  C11 UNL     1      20.942   3.632  50.649  1.00  0.00     0.177 C 
BRANCH  16  17
HETATM   17  C12 UNL     1      21.563   4.718  51.535  1.00  0.00     0.057 C 
BRANCH  17  18
HETATM   18  C13 UNL     1      22.012   5.839  50.663  1.00  0.00     0.274 C 
BRANCH  18  19
HETATM   19  N3  UNL     1      23.429   5.867  50.383  1.00  0.00     0.092 N 
HETATM   20  C14 UNL     1      23.554   6.408  49.025  1.00  0.00     0.298 C 
HETATM   21  C15 UNL     1      24.974   6.284  48.519  1.00  0.00     0.198 C 
HETATM   22  O2  UNL     1      25.855   6.565  49.561  1.00  0.00    -0.388 OA
HETATM   23  C16 UNL     1      25.250   7.387  50.513  1.00  0.00     0.198 C 
HETATM   24  C17 UNL     1      24.179   6.655  51.306  1.00  0.00     0.298 C 
ENDBRANCH  18  19
ENDBRANCH  17  18
ENDBRANCH  16  17
ENDBRANCH  15  16
ENDBRANCH   7  15
BRANCH   1  25
HETATM   25  C5  UNL     1      26.603  -0.087  53.733  1.00  0.00     0.036 A 
HETATM   26  C4  UNL     1      27.234  -1.166  53.149  1.00  0.00     0.030 A 
HETATM   27  C3  UNL     1      28.616  -1.349  53.041  1.00  0.00     0.004 A 
HETATM   28  C2  UNL     1      29.425  -0.362  53.565  1.00  0.00     0.024 A 
HETATM   29  C1  UNL     1      28.844   0.727  54.153  1.00  0.00     0.036 A 
HETATM   30 CL1  UNL     1      29.765   2.052  54.859  1.00  0.00    -0.084 Cl
HETATM   31  C23 UNL     1      27.495   0.870  54.240  1.00  0.00     0.053 A 
ENDBRANCH   1  25
TORSDOF 6
ENDMDL
MODEL 2
REMARK VINA RESULT:      -7.9      3.253      6.059
REMARK  6 active torsions:
REMARK  status: ('A' for Active; 'I' for Inactive)
REMARK    1  A    between atoms: C5_6  and  N1_7 
REMARK    2  A    between atoms: C10_13  and  O1_14 
REMARK    3  A    between atoms: O1_14  and  C11_15 
REMARK    4  A    between atoms: C11_15  and  C12_16 
REMARK    5  A    between atoms: C12_16  and  C13_17 
REMARK    6  A    between atoms: C13_17  and  N3_18 
ROOT
HETATM    1  N1  UNL     1      25.795   1.826  51.805  1.00  0.00    -0.338 N 
HETATM    2  C6  UNL     1      26.539   2.612  50.871  1.00  0.00     0.176 A 
HETATM    3  C7  UNL     1      25.615   3.523  50.150  1.00  0.00     0.110 A 
HETATM    4  N2  UNL     1      24.314   3.625  50.280  1.00  0.00    -0.261 NA
HETATM    5  C8  UNL     1      23.628   2.807  51.200  1.00  0.00     0.088 A 
HETATM    6  C9  UNL     1      22.278   2.858  51.365  1.00  0.00     0.073 A 
HETATM    7  C10 UNL     1      21.693   2.008  52.282  1.00  0.00     0.107 A 
HETATM    8  C18 UNL     1      22.462   1.115  53.029  1.00  0.00     0.138 A 
HETATM    9  C19 UNL     1      23.831   1.064  52.862  1.00  0.00     0.134 A 
HETATM   10  C20 UNL     1      24.384   1.923  51.941  1.00  0.00     0.101 A 
HETATM   11  O3  UNL     1      24.560   0.162  53.618  1.00  0.00    -0.344 OA
HETATM   12  C21 UNL     1      23.877  -0.978  54.107  1.00  0.00     0.202 C 
HETATM   13  C22 UNL     1      22.619  -0.526  54.842  1.00  0.00     0.202 C 
HETATM   14  O4  UNL     1      21.844   0.265  53.952  1.00  0.00    -0.344 OA
ENDROOT
BRANCH   7  15
HETATM   15  O1  UNL     1      20.339   1.997  52.509  1.00  0.00    -0.348 OA
BRANCH  15  16
HETATM   16  C11 UNL     1      19.413   2.796  51.832  1.00  0.00     0.177 C 
BRANCH  16  17
HETATM   17  C12 UNL     1      18.321   1.902  51.231  1.00  0.00     0.057 C 
BRANCH  17  18
HETATM   18  C13 UNL     1      18.892   0.545  51.006  1.00  0.00     0.274 C 
BRANCH  18  19
HETATM   19  N3  UNL     1      18.062  -0.550  51.450  1.00  0.00     0.092 N 
HETATM   20  C14 UNL     1      18.386  -0.743  52.868  1.00  0.00     0.298 C 
HETATM   21  C15 UNL     1      17.750  -2.006  53.405  1.00  0.00     0.198 C 
HETATM   22  O2  UNL     1      16.471  -2.136  52.866  1.00  0.00    -0.388 OA
HETATM   23  C16 UNL     1      15.959  -0.891  52.501  1.00  0.00     0.198 C 
HETATM   24  C17 UNL     1      16.665  -0.313  51.284  1.00  0.00     0.298 C 
ENDBRANCH  18  19
ENDBRANCH  17  18
ENDBRANCH  16  17
ENDBRANCH  15  16
ENDBRANCH   7  15
BRANCH   1  25
HETATM   25  C5  UNL     1      26.711   1.017  52.495  1.00  0.00     0.036 A 
HETATM   26  C4  UNL     1      27.437   1.617  53.503  1.00  0.00     0.030 A 
HETATM   27  C3  UNL     1      28.379   0.988  54.323  1.00  0.00     0.004 A 
HETATM   28  C2  UNL     1      28.605  -0.355  54.107  1.00  0.00     0.024 A 
HETATM   29  C1  UNL     1      27.908  -0.993  53.118  1.00  0.00     0.036 A 
HETATM   30 CL1  UNL     1      28.106  -2.703  52.743  1.00  0.00    -0.084 Cl
HETATM   31  C23 UNL     1      26.999  -0.348  52.340  1.00  0.00     0.053 A 
ENDBRANCH   1  25
TORSDOF 6
ENDMDL
MODEL 3
REMARK VINA RESULT:      -7.9      2.620      4.562
REMARK  6 active torsions:
REMARK  status: ('A' for Active; 'I' for Inactive)
REMARK    1  A    between atoms: C5_6  and  N1_7 
REMARK    2  A    between atoms: C10_13  and  O1_14 
REMARK    3  A    between atoms: O1_14  and  C11_15 
REMARK    4  A    between atoms: C11_15  and  C12_16 
REMARK    5  A    between atoms: C12_16  and  C13_17 
REMARK    6  A    between atoms: C13_17  and  N3_18 
ROOT
HETATM    1  N1  UNL     1      24.780   2.516  51.933  1.00  0.00    -0.338 N 
HETATM    2  C6  UNL     1      25.685   3.331  51.185  1.00  0.00     0.176 A 
HETATM    3  C7  UNL     1      24.935   4.449  50.558  1.00  0.00     0.110 A 
HETATM    4  N2  UNL     1      23.648   4.694  50.618  1.00  0.00    -0.261 NA
HETATM    5  C8  UNL     1      22.797   3.841  51.351  1.00  0.00     0.088 A 
HETATM    6  C9  UNL     1      21.453   4.037  51.435  1.00  0.00     0.073 A 
HETATM    7  C10 UNL     1      20.700   3.142  52.167  1.00  0.00     0.107 A 
HETATM    8  C18 UNL     1      21.297   2.058  52.811  1.00  0.00     0.138 A 
HETATM    9  C19 UNL     1      22.659   1.859  52.727  1.00  0.00     0.134 A 
HETATM   10  C20 UNL     1      23.383   2.769  51.991  1.00  0.00     0.101 A 
HETATM   11  O3  UNL     1      23.215   0.770  53.377  1.00  0.00    -0.344 OA
HETATM   12  C21 UNL     1      22.367  -0.334  53.635  1.00  0.00     0.202 C 
HETATM   13  C22 UNL     1      21.112   0.158  54.349  1.00  0.00     0.202 C 
HETATM   14  O4  UNL     1      20.511   1.165  53.547  1.00  0.00    -0.344 OA
ENDROOT
BRANCH   7  15
HETATM   15  O1  UNL     1      19.340   3.268  52.301  1.00  0.00    -0.348 OA
BRANCH  15  16
HETATM   16  C11 UNL     1      18.453   3.477  51.241  1.00  0.00     0.177 C 
BRANCH  16  17
HETATM   17  C12 UNL     1      18.620   2.349  50.215  1.00  0.00     0.057 C 
BRANCH  17  18
HETATM   18  C13 UNL     1      18.822   2.960  48.871  1.00  0.00     0.274 C 
BRANCH  18  19
HETATM   19  N3  UNL     1      19.977   2.478  48.147  1.00  0.00     0.092 N 
HETATM   20  C14 UNL     1      20.805   3.661  47.891  1.00  0.00     0.298 C 
HETATM   21  C15 UNL     1      21.940   3.337  46.946  1.00  0.00     0.198 C 
HETATM   22  O2  UNL     1      22.445   2.076  47.257  1.00  0.00    -0.388 OA
HETATM   23  C16 UNL     1      22.196   1.759  48.592  1.00  0.00     0.198 C 
HETATM   24  C17 UNL     1      20.722   1.489  48.854  1.00  0.00     0.298 C 
ENDBRANCH  18  19
ENDBRANCH  17  18
ENDBRANCH  16  17
ENDBRANCH  15  16
ENDBRANCH   7  15
BRANCH   1  25
HETATM   25  C5  UNL     1      25.536   1.503  52.545  1.00  0.00     0.036 A 
HETATM   26  C4  UNL     1      26.074   1.789  53.782  1.00  0.00     0.030 A 
HETATM   27  C3  UNL     1      26.835   0.917  54.568  1.00  0.00     0.004 A 
HETATM   28  C2  UNL     1      27.071  -0.344  54.061  1.00  0.00     0.024 A 
HETATM   29  C1  UNL     1      26.556  -0.672  52.837  1.00  0.00     0.036 A 
HETATM   30 CL1  UNL     1      26.786  -2.247  52.082  1.00  0.00    -0.084 Cl
HETATM   31  C23 UNL     1      25.821   0.203  52.102  1.00  0.00     0.053 A 
ENDBRANCH   1  25
TORSDOF 6
ENDMDL
MODEL 4
REMARK VINA RESULT:      -7.7      3.035      4.737
REMARK  6 active torsions:
REMARK  status: ('A' for Active; 'I' for Inactive)
REMARK    1  A    between atoms: C5_6  and  N1_7 
REMARK    2  A    between atoms: C10_13  and  O1_14 
REMARK    3  A    between atoms: O1_14  and  C11_15 
REMARK    4  A    between atoms: C11_15  and  C12_16 
REMARK    5  A    between atoms: C12_16  and  C13_17 
REMARK    6  A    between atoms: C13_17  and  N3_18 
ROOT
HETATM    1  N1  UNL     1      24.372  -0.234  53.886  1.00  0.00    -0.338 N 
HETATM    2  C6  UNL     1      23.953  -1.125  54.923  1.00  0.00     0.176 A 
HETATM    3  C7  UNL     1      22.477  -1.052  55.066  1.00  0.00     0.110 A 
HETATM    4  N2  UNL     1      21.636  -0.298  54.401  1.00  0.00    -0.261 NA
HETATM    5  C8  UNL     1      22.107   0.582  53.405  1.00  0.00     0.088 A 
HETATM    6  C9  UNL     1      21.283   1.399  52.695  1.00  0.00     0.073 A 
HETATM    7  C10 UNL     1      21.839   2.235  51.748  1.00  0.00     0.107 A 
HETATM    8  C18 UNL     1      23.214   2.246  51.516  1.00  0.00     0.138 A 
HETATM    9  C19 UNL     1      24.050   1.417  52.235  1.00  0.00     0.134 A 
HETATM   10  C20 UNL     1      23.466   0.596  53.171  1.00  0.00     0.101 A 
HETATM   11  O3  UNL     1      25.410   1.459  51.979  1.00  0.00    -0.344 OA
HETATM   12  C21 UNL     1      25.929   2.651  51.418  1.00  0.00     0.202 C 
HETATM   13  C22 UNL     1      25.119   3.010  50.176  1.00  0.00     0.202 C 
HETATM   14  O4  UNL     1      23.752   3.103  50.549  1.00  0.00    -0.344 OA
ENDROOT
BRANCH   7  15
HETATM   15  O1  UNL     1      21.077   3.090  50.989  1.00  0.00    -0.348 OA
BRANCH  15  16
HETATM   16  C11 UNL     1      19.932   3.750  51.445  1.00  0.00     0.177 C 
BRANCH  16  17
HETATM   17  C12 UNL     1      18.782   3.499  50.462  1.00  0.00     0.057 C 
BRANCH  17  18
HETATM   18  C13 UNL     1      17.562   4.180  50.980  1.00  0.00     0.274 C 
BRANCH  18  19
HETATM   19  N3  UNL     1      16.743   3.381  51.863  1.00  0.00     0.092 N 
HETATM   20  C14 UNL     1      15.441   4.054  51.912  1.00  0.00     0.298 C 
HETATM   21  C15 UNL     1      14.555   3.447  52.977  1.00  0.00     0.198 C 
HETATM   22  O2  UNL     1      14.725   2.065  52.977  1.00  0.00    -0.388 OA
HETATM   23  C16 UNL     1      15.157   1.619  51.727  1.00  0.00     0.198 C 
HETATM   24  C17 UNL     1      16.592   2.029  51.434  1.00  0.00     0.298 C 
ENDBRANCH  18  19
ENDBRANCH  17  18
ENDBRANCH  16  17
ENDBRANCH  15  16
ENDBRANCH   7  15
BRANCH   1  25
HETATM   25  C5  UNL     1      25.763  -0.370  53.753  1.00  0.00     0.036 A 
HETATM   26  C4  UNL     1      26.215  -1.414  52.973  1.00  0.00     0.030 A 
HETATM   27  C3  UNL     1      27.553  -1.711  52.695  1.00  0.00     0.004 A 
HETATM   28  C2  UNL     1      28.510  -0.886  53.249  1.00  0.00     0.024 A 
HETATM   29  C1  UNL     1      28.108   0.162  54.029  1.00  0.00     0.036 A 
HETATM   30 CL1  UNL     1      29.230   1.286  54.793  1.00  0.00    -0.084 Cl
HETATM   31  C23 UNL     1      26.797   0.420  54.278  1.00  0.00     0.053 A 
ENDBRANCH   1  25
TORSDOF 6
ENDMDL
MODEL 5
REMARK VINA RESULT:      -7.7      4.825      9.202
REMARK  6 active torsions:
REMARK  status: ('A' for Active; 'I' for Inactive)
REMARK    1  A    between atoms: C5_6  and  N1_7 
REMARK    2  A    between atoms: C10_13  and  O1_14 
REMARK    3  A    between atoms: O1_14  and  C11_15 
REMARK    4  A    between atoms: C11_15  and  C12_16 
REMARK    5  A    between atoms: C12_16  and  C13_17 
REMARK    6  A    between atoms: C13_17  and  N3_18 
ROOT
HETATM    1  N1  UNL     1      29.841   7.783  48.033  1.00  0.00    -0.338 N 
HETATM    2  C6  UNL     1      31.135   7.287  47.682  1.00  0.00     0.176 A 
HETATM    3  C7  UNL     1      31.104   5.803  47.668  1.00  0.00     0.110 A 
HETATM    4  N2  UNL     1      30.096   5.011  47.946  1.00  0.00    -0.261 NA
HETATM    5  C8  UNL     1      28.848   5.555  48.310  1.00  0.00     0.088 A 
HETATM    6  C9  UNL     1      27.772   4.783  48.625  1.00  0.00     0.073 A 
HETATM    7  C10 UNL     1      26.594   5.407  48.982  1.00  0.00     0.107 A 
HETATM    8  C18 UNL     1      26.499   6.798  49.020  1.00  0.00     0.138 A 
HETATM    9  C19 UNL     1      27.589   7.581  48.700  1.00  0.00     0.134 A 
HETATM   10  C20 UNL     1      28.749   6.930  48.348  1.00  0.00     0.101 A 
HETATM   11  O3  UNL     1      27.457   8.958  48.753  1.00  0.00    -0.344 OA
HETATM   12  C21 UNL     1      26.449   9.483  49.597  1.00  0.00     0.202 C 
HETATM   13  C22 UNL     1      25.121   8.810  49.265  1.00  0.00     0.202 C 
HETATM   14  O4  UNL     1      25.293   7.405  49.385  1.00  0.00    -0.344 OA
ENDROOT
BRANCH   7  15
HETATM   15  O1  UNL     1      25.464   4.701  49.314  1.00  0.00    -0.348 OA
BRANCH  15  16
HETATM   16  C11 UNL     1      25.149   4.266  50.604  1.00  0.00     0.177 C 
BRANCH  16  17
HETATM   17  C12 UNL     1      25.364   2.750  50.691  1.00  0.00     0.057 C 
BRANCH  17  18
HETATM   18  C13 UNL     1      26.660   2.496  51.379  1.00  0.00     0.274 C 
BRANCH  18  19
HETATM   19  N3  UNL     1      26.588   1.599  52.510  1.00  0.00     0.092 N 
HETATM   20  C14 UNL     1      26.575   0.246  51.944  1.00  0.00     0.298 C 
HETATM   21  C15 UNL     1      26.277  -0.787  53.007  1.00  0.00     0.198 C 
HETATM   22  O2  UNL     1      26.936  -0.433  54.182  1.00  0.00    -0.388 OA
HETATM   23  C16 UNL     1      28.053   0.355  53.906  1.00  0.00     0.198 C 
HETATM   24  C17 UNL     1      27.670   1.747  53.428  1.00  0.00     0.298 C 
ENDBRANCH  18  19
ENDBRANCH  17  18
ENDBRANCH  16  17
ENDBRANCH  15  16
ENDBRANCH   7  15
BRANCH   1  25
HETATM   25  C5  UNL     1      29.903   9.185  47.988  1.00  0.00     0.036 A 
HETATM   26  C4  UNL     1      30.441   9.819  49.088  1.00  0.00     0.030 A 
HETATM   27  C3  UNL     1      30.615  11.199  49.237  1.00  0.00     0.004 A 
HETATM   28  C2  UNL     1      30.214  12.000  48.189  1.00  0.00     0.024 A 
HETATM   29  C1  UNL     1      29.675  11.416  47.077  1.00  0.00     0.036 A 
HETATM   30 CL1  UNL     1      29.125  12.328  45.674  1.00  0.00    -0.084 Cl
HETATM   31  C23 UNL     1      29.521  10.069  46.968  1.00  0.00     0.053 A 
ENDBRANCH   1  25
TORSDOF 6
ENDMDL
MODEL 6
REMARK VINA RESULT:      -7.5      2.800      4.610
REMARK  6 active torsions:
REMARK  status: ('A' for Active; 'I' for Inactive)
REMARK    1  A    between atoms: C5_6  and  N1_7 
REMARK    2  A    between atoms: C10_13  and  O1_14 
REMARK    3  A    between atoms: O1_14  and  C11_15 
REMARK    4  A    between atoms: C11_15  and  C12_16 
REMARK    5  A    between atoms: C12_16  and  C13_17 
REMARK    6  A    between atoms: C13_17  and  N3_18 
ROOT
HETATM    1  N1  UNL     1      25.915   1.662  51.929  1.00  0.00    -0.338 N 
HETATM    2  C6  UNL     1      26.425   2.500  50.889  1.00  0.00     0.176 A 
HETATM    3  C7  UNL     1      25.293   3.156  50.188  1.00  0.00     0.110 A 
HETATM    4  N2  UNL     1      24.009   3.016  50.416  1.00  0.00    -0.261 NA
HETATM    5  C8  UNL     1      23.561   2.156  51.439  1.00  0.00     0.088 A 
HETATM    6  C9  UNL     1      22.242   1.959  51.710  1.00  0.00     0.073 A 
HETATM    7  C10 UNL     1      21.899   1.088  52.724  1.00  0.00     0.107 A 
HETATM    8  C18 UNL     1      22.878   0.421  53.461  1.00  0.00     0.138 A 
HETATM    9  C19 UNL     1      24.215   0.621  53.188  1.00  0.00     0.134 A 
HETATM   10  C20 UNL     1      24.525   1.496  52.172  1.00  0.00     0.101 A 
HETATM   11  O3  UNL     1      25.158  -0.061  53.939  1.00  0.00    -0.344 OA
HETATM   12  C21 UNL     1      24.748  -1.268  54.555  1.00  0.00     0.202 C 
HETATM   13  C22 UNL     1      23.477  -1.011  55.358  1.00  0.00     0.202 C 
HETATM   14  O4  UNL     1      22.504  -0.456  54.485  1.00  0.00    -0.344 OA
ENDROOT
BRANCH   7  15
HETATM   15  O1  UNL     1      20.592   0.834  53.059  1.00  0.00    -0.348 OA
BRANCH  15  16
HETATM   16  C11 UNL     1      19.793  -0.143  52.457  1.00  0.00     0.177 C 
BRANCH  16  17
HETATM   17  C12 UNL     1      19.158   0.439  51.188  1.00  0.00     0.057 C 
BRANCH  17  18
HETATM   18  C13 UNL     1      18.243   1.546  51.582  1.00  0.00     0.274 C 
BRANCH  18  19
HETATM   19  N3  UNL     1      18.666   2.865  51.170  1.00  0.00     0.092 N 
HETATM   20  C14 UNL     1      19.184   2.708  49.807  1.00  0.00     0.298 C 
HETATM   21  C15 UNL     1      19.866   3.973  49.335  1.00  0.00     0.198 C 
HETATM   22  O2  UNL     1      19.137   5.075  49.776  1.00  0.00    -0.388 OA
HETATM   23  C16 UNL     1      17.800   4.733  49.986  1.00  0.00     0.198 C 
HETATM   24  C17 UNL     1      17.620   3.835  51.199  1.00  0.00     0.298 C 
ENDBRANCH  18  19
ENDBRANCH  17  18
ENDBRANCH  16  17
ENDBRANCH  15  16
ENDBRANCH   7  15
BRANCH   1  25
HETATM   25  C5  UNL     1      27.017   1.101  52.594  1.00  0.00     0.036 A 
HETATM   26  C4  UNL     1      27.722   1.931  53.440  1.00  0.00     0.030 A 
HETATM   27  C3  UNL     1      28.832   1.567  54.210  1.00  0.00     0.004 A 
HETATM   28  C2  UNL     1      29.262   0.260  54.117  1.00  0.00     0.024 A 
HETATM   29  C1  UNL     1      28.593  -0.600  53.290  1.00  0.00     0.036 A 
HETATM   30 CL1  UNL     1      29.043  -2.290  53.083  1.00  0.00    -0.084 Cl
HETATM   31  C23 UNL     1      27.518  -0.209  52.556  1.00  0.00     0.053 A 
ENDBRANCH   1  25
TORSDOF 6
ENDMDL
MODEL 7
REMARK VINA RESULT:      -7.4      2.052      2.545
REMARK  6 active torsions:
REMARK  status: ('A' for Active; 'I' for Inactive)
REMARK    1  A    between atoms: C5_6  and  N1_7 
REMARK    2  A    between atoms: C10_13  and  O1_14 
REMARK    3  A    between atoms: O1_14  and  C11_15 
REMARK    4  A    between atoms: C11_15  and  C12_16 
REMARK    5  A    between atoms: C12_16  and  C13_17 
REMARK    6  A    between atoms: C13_17  and  N3_18 
ROOT
HETATM    1  N1  UNL     1      24.431  -0.050  53.606  1.00  0.00    -0.338 N 
HETATM    2  C6  UNL     1      23.881  -0.906  54.611  1.00  0.00     0.176 A 
HETATM    3  C7  UNL     1      22.407  -0.734  54.647  1.00  0.00     0.110 A 
HETATM    4  N2  UNL     1      21.667   0.072  53.924  1.00  0.00    -0.261 NA
HETATM    5  C8  UNL     1      22.267   0.913  52.964  1.00  0.00     0.088 A 
HETATM    6  C9  UNL     1      21.552   1.781  52.197  1.00  0.00     0.073 A 
HETATM    7  C10 UNL     1      22.228   2.573  51.292  1.00  0.00     0.107 A 
HETATM    8  C18 UNL     1      23.615   2.491  51.160  1.00  0.00     0.138 A 
HETATM    9  C19 UNL     1      24.340   1.611  51.937  1.00  0.00     0.134 A 
HETATM   10  C20 UNL     1      23.637   0.835  52.829  1.00  0.00     0.101 A 
HETATM   11  O3  UNL     1      25.714   1.561  51.779  1.00  0.00    -0.344 OA
HETATM   12  C21 UNL     1      26.351   2.713  51.256  1.00  0.00     0.202 C 
HETATM   13  C22 UNL     1      25.658   3.120  49.960  1.00  0.00     0.202 C 
HETATM   14  O4  UNL     1      24.276   3.306  50.234  1.00  0.00    -0.344 OA
ENDROOT
BRANCH   7  15
HETATM   15  O1  UNL     1      21.582   3.473  50.482  1.00  0.00    -0.348 OA
BRANCH  15  16
HETATM   16  C11 UNL     1      21.186   4.755  50.875  1.00  0.00     0.177 C 
BRANCH  16  17
HETATM   17  C12 UNL     1      20.706   5.534  49.645  1.00  0.00     0.057 C 
BRANCH  17  18
HETATM   18  C13 UNL     1      20.200   4.560  48.638  1.00  0.00     0.274 C 
BRANCH  18  19
HETATM   19  N3  UNL     1      20.582   4.839  47.272  1.00  0.00     0.092 N 
HETATM   20  C14 UNL     1      21.896   5.485  47.351  1.00  0.00     0.298 C 
HETATM   21  C15 UNL     1      22.315   6.032  46.005  1.00  0.00     0.198 C 
HETATM   22  O2  UNL     1      21.941   5.131  45.011  1.00  0.00    -0.388 OA
HETATM   23  C16 UNL     1      21.843   3.838  45.526  1.00  0.00     0.198 C 
HETATM   24  C17 UNL     1      20.645   3.676  46.448  1.00  0.00     0.298 C 
ENDBRANCH  18  19
ENDBRANCH  17  18
ENDBRANCH  16  17
ENDBRANCH  15  16
ENDBRANCH   7  15
BRANCH   1  25
HETATM   25  C5  UNL     1      25.816  -0.279  53.574  1.00  0.00     0.036 A 
HETATM   26  C4  UNL     1      26.248  -1.386  52.873  1.00  0.00     0.030 A 
HETATM   27  C3  UNL     1      27.578  -1.780  52.699  1.00  0.00     0.004 A 
HETATM   28  C2  UNL     1      28.549  -0.991  53.279  1.00  0.00     0.024 A 
HETATM   29  C1  UNL     1      28.169   0.118  53.983  1.00  0.00     0.036 A 
HETATM   30 CL1  UNL     1      29.311   1.204  54.770  1.00  0.00    -0.084 Cl
HETATM   31  C23 UNL     1      26.864   0.469  54.131  1.00  0.00     0.053 A 
ENDBRANCH   1  25
TORSDOF 6
ENDMDL
MODEL 8
REMARK VINA RESULT:      -7.2      3.847      5.874
REMARK  6 active torsions:
REMARK  status: ('A' for Active; 'I' for Inactive)
REMARK    1  A    between atoms: C5_6  and  N1_7 
REMARK    2  A    between atoms: C10_13  and  O1_14 
REMARK    3  A    between atoms: O1_14  and  C11_15 
REMARK    4  A    between atoms: C11_15  and  C12_16 
REMARK    5  A    between atoms: C12_16  and  C13_17 
REMARK    6  A    between atoms: C13_17  and  N3_18 
ROOT
HETATM    1  N1  UNL     1      24.026   0.562  52.418  1.00  0.00    -0.338 N 
HETATM    2  C6  UNL     1      24.772  -0.606  52.770  1.00  0.00     0.176 A 
HETATM    3  C7  UNL     1      26.205  -0.388  52.451  1.00  0.00     0.110 A 
HETATM    4  N2  UNL     1      26.761   0.669  51.908  1.00  0.00    -0.261 NA
HETATM    5  C8  UNL     1      25.973   1.784  51.557  1.00  0.00     0.088 A 
HETATM    6  C9  UNL     1      26.493   2.900  50.978  1.00  0.00     0.073 A 
HETATM    7  C10 UNL     1      25.640   3.936  50.658  1.00  0.00     0.107 A 
HETATM    8  C18 UNL     1      24.273   3.850  50.923  1.00  0.00     0.138 A 
HETATM    9  C19 UNL     1      23.745   2.719  51.511  1.00  0.00     0.134 A 
HETATM   10  C20 UNL     1      24.621   1.704  51.818  1.00  0.00     0.101 A 
HETATM   11  O3  UNL     1      22.383   2.670  51.754  1.00  0.00    -0.344 OA
HETATM   12  C21 UNL     1      21.550   3.490  50.956  1.00  0.00     0.202 C 
HETATM   13  C22 UNL     1      22.071   4.923  51.003  1.00  0.00     0.202 C 
HETATM   14  O4  UNL     1      23.430   4.916  50.589  1.00  0.00    -0.344 OA
ENDROOT
BRANCH   7  15
HETATM   15  O1  UNL     1      26.084   5.095  50.072  1.00  0.00    -0.348 OA
BRANCH  15  16
HETATM   16  C11 UNL     1      26.407   5.228  48.718  1.00  0.00     0.177 C 
BRANCH  16  17
HETATM   17  C12 UNL     1      27.924   5.093  48.546  1.00  0.00     0.057 C 
BRANCH  17  18
HETATM   18  C13 UNL     1      28.474   6.419  48.149  1.00  0.00     0.274 C 
BRANCH  18  19
HETATM   19  N3  UNL     1      29.879   6.609  48.431  1.00  0.00     0.092 N 
HETATM   20  C14 UNL     1      30.551   5.408  47.925  1.00  0.00     0.298 C 
HETATM   21  C15 UNL     1      32.000   5.373  48.354  1.00  0.00     0.198 C 
HETATM   22  O2  UNL     1      32.528   6.660  48.279  1.00  0.00    -0.388 OA
HETATM   23  C16 UNL     1      31.827   7.429  47.349  1.00  0.00     0.198 C 
HETATM   24  C17 UNL     1      30.429   7.780  47.832  1.00  0.00     0.298 C 
ENDBRANCH  18  19
ENDBRANCH  17  18
ENDBRANCH  16  17
ENDBRANCH  15  16
ENDBRANCH   7  15
BRANCH   1  25
HETATM   25  C5  UNL     1      22.689   0.330  52.779  1.00  0.00     0.036 A 
HETATM   26  C4  UNL     1      22.418   0.225  54.128  1.00  0.00     0.030 A 
HETATM   27  C3  UNL     1      21.158   0.019  54.698  1.00  0.00     0.004 A 
HETATM   28  C2  UNL     1      20.087  -0.089  53.837  1.00  0.00     0.024 A 
HETATM   29  C1  UNL     1      20.307   0.009  52.490  1.00  0.00     0.036 A 
HETATM   30 CL1  UNL     1      19.025  -0.112  51.288  1.00  0.00    -0.084 Cl
HETATM   31  C23 UNL     1      21.548   0.210  51.972  1.00  0.00     0.053 A 
ENDBRANCH   1  25
TORSDOF 6
ENDMDL
MODEL 9
REMARK VINA RESULT:      -7.1      4.595      8.369
REMARK  6 active torsions:
REMARK  status: ('A' for Active; 'I' for Inactive)
REMARK    1  A    between atoms: C5_6  and  N1_7 
REMARK    2  A    between atoms: C10_13  and  O1_14 
REMARK    3  A    between atoms: O1_14  and  C11_15 
REMARK    4  A    between atoms: C11_15  and  C12_16 
REMARK    5  A    between atoms: C12_16  and  C13_17 
REMARK    6  A    between atoms: C13_17  and  N3_18 
ROOT
HETATM    1  N1  UNL     1      17.424   0.049  51.952  1.00  0.00    -0.338 N 
HETATM    2  C6  UNL     1      16.497  -1.007  52.216  1.00  0.00     0.176 A 
HETATM    3  C7  UNL     1      17.125  -1.996  53.128  1.00  0.00     0.110 A 
HETATM    4  N2  UNL     1      18.337  -1.979  53.628  1.00  0.00    -0.261 NA
HETATM    5  C8  UNL     1      19.219  -0.925  53.314  1.00  0.00     0.088 A 
HETATM    6  C9  UNL     1      20.493  -0.864  53.790  1.00  0.00     0.073 A 
HETATM    7  C10 UNL     1      21.286   0.201  53.417  1.00  0.00     0.107 A 
HETATM    8  C18 UNL     1      20.800   1.200  52.573  1.00  0.00     0.138 A 
HETATM    9  C19 UNL     1      19.509   1.139  52.090  1.00  0.00     0.134 A 
HETATM   10  C20 UNL     1      18.743   0.065  52.480  1.00  0.00     0.101 A 
HETATM   11  O3  UNL     1      19.064   2.147  51.252  1.00  0.00    -0.344 OA
HETATM   12  C21 UNL     1      20.043   2.868  50.527  1.00  0.00     0.202 C 
HETATM   13  C22 UNL     1      21.103   3.381  51.496  1.00  0.00     0.202 C 
HETATM   14  O4  UNL     1      21.626   2.270  52.211  1.00  0.00    -0.344 OA
ENDROOT
BRANCH   7  15
HETATM   15  O1  UNL     1      22.581   0.337  53.854  1.00  0.00    -0.348 OA
BRANCH  15  16
HETATM   16  C11 UNL     1      23.644  -0.479  53.454  1.00  0.00     0.177 C 
BRANCH  16  17
HETATM   17  C12 UNL     1      24.968   0.203  53.819  1.00  0.00     0.057 C 
BRANCH  17  18
HETATM   18  C13 UNL     1      25.827   0.247  52.603  1.00  0.00     0.274 C 
BRANCH  18  19
HETATM   19  N3  UNL     1      27.222   0.536  52.849  1.00  0.00     0.092 N 
HETATM   20  C14 UNL     1      27.243   1.832  53.536  1.00  0.00     0.298 C 
HETATM   21  C15 UNL     1      28.655   2.361  53.656  1.00  0.00     0.198 C 
HETATM   22  O2  UNL     1      29.514   1.304  53.946  1.00  0.00    -0.388 OA
HETATM   23  C16 UNL     1      28.827   0.267  54.579  1.00  0.00     0.198 C 
HETATM   24  C17 UNL     1      27.881  -0.457  53.633  1.00  0.00     0.298 C 
ENDBRANCH  18  19
ENDBRANCH  17  18
ENDBRANCH  16  17
ENDBRANCH  15  16
ENDBRANCH   7  15
BRANCH   1  25
HETATM   25  C5  UNL     1      16.774   0.981  51.127  1.00  0.00     0.036 A 
HETATM   26  C4  UNL     1      16.834   0.756  49.768  1.00  0.00     0.030 A 
HETATM   27  C3  UNL     1      16.238   1.546  48.778  1.00  0.00     0.004 A 
HETATM   28  C2  UNL     1      15.525   2.649  49.198  1.00  0.00     0.024 A 
HETATM   29  C1  UNL     1      15.438   2.911  50.537  1.00  0.00     0.036 A 
HETATM   30 CL1  UNL     1      14.559   4.287  51.199  1.00  0.00    -0.084 Cl
HETATM   31  C23 UNL     1      16.031   2.120  51.470  1.00  0.00     0.053 A 
ENDBRANCH   1  25
TORSDOF 6
ENDMDL
