MODEL 1
REMARK VINA RESULT:      -8.3      0.000      0.000
REMARK  2 active torsions:
REMARK  status: ('A' for Active; 'I' for Inactive)
REMARK    1  A    between atoms: C3_3  and  N1_5 
REMARK    2  A    between atoms: N1_5  and  C4_6 
ROOT
HETATM    1  C4  UNL     1      25.701   2.526  51.804  1.00  0.00     0.040 C 
HETATM    2  C5  UNL     1      24.915   2.073  52.900  1.00  0.00     0.030 C 
HETATM    3  C6  UNL     1      23.305   2.192  52.857  1.00  0.00     0.041 C 
HETATM    4  C7  UNL     1      22.513   2.746  51.713  1.00  0.00     0.336 A 
HETATM    5  N2  UNL     1      21.978   1.461  51.555  1.00  0.00     0.384 N 
HETATM    6  C8  UNL     1      21.864   1.032  50.212  1.00  0.00     0.609 A 
HETATM    7  N3  UNL     1      22.397   2.153  49.532  1.00  0.00     0.384 N 
HETATM    8  C9  UNL     1      22.769   3.161  50.406  1.00  0.00     0.337 A 
HETATM    9  C10 UNL     1      24.048   3.126  49.573  1.00  0.00     0.052 C 
HETATM   10  C11 UNL     1      25.288   2.949  50.379  1.00  0.00    -0.009 C 
HETATM   11  C12 UNL     1      26.558   3.221  49.917  1.00  0.00     0.015 C 
HETATM   12  C13 UNL     1      26.451   4.400  49.209  1.00  0.00     0.020 C 
HETATM   13  C14 UNL     1      25.619   5.459  49.494  1.00  0.00     0.012 C 
HETATM   14 BR1  UNL     1      26.511   7.135  49.310  1.00  0.00    -0.051 Br
HETATM   15  C15 UNL     1      24.305   5.411  49.865  1.00  0.00     0.038 C 
HETATM   16  C16 UNL     1      23.387   5.008  50.780  1.00  0.00    -0.005 C 
HETATM   17  C17 UNL     1      22.362   5.570  51.361  1.00  0.00     0.056 C 
HETATM   18  N4  UNL     1      23.033   3.970  51.510  1.00  0.00    -0.196 NA
ENDROOT
BRANCH   1  19
HETATM   19  N1  UNL     1      27.030   2.563  52.133  1.00  0.00    -0.353 N 
HETATM   20  H4  UNL     1      27.472   3.164  51.380  1.00  0.00     0.163 HD
BRANCH  19  21
HETATM   21  C3  UNL     1      27.928   2.066  53.121  1.00  0.00     0.175 A 
HETATM   22  C2  UNL     1      28.361   0.675  53.137  1.00  0.00     0.038 A 
HETATM   23  C1  UNL     1      28.946   1.257  54.143  1.00  0.00     0.234 A 
HETATM   24  O1  UNL     1      28.424   2.741  54.045  1.00  0.00    -0.349 OA
ENDBRANCH  19  21
ENDBRANCH   1  19
TORSDOF 2
ENDMDL
MODEL 2
REMARK VINA RESULT:      -7.7      2.387      4.001
REMARK  2 active torsions:
REMARK  status: ('A' for Active; 'I' for Inactive)
REMARK    1  A    between atoms: C3_3  and  N1_5 
REMARK    2  A    between atoms: N1_5  and  C4_6 
ROOT
HETATM    1  C4  UNL     1      25.855   2.469  51.730  1.00  0.00     0.040 C 
HETATM    2  C5  UNL     1      26.811   2.844  50.746  1.00  0.00     0.030 C 
HETATM    3  C6  UNL     1      26.409   3.868  49.563  1.00  0.00     0.041 C 
HETATM    4  C7  UNL     1      25.065   4.508  49.398  1.00  0.00     0.336 A 
HETATM    5  N2  UNL     1      25.700   5.734  49.638  1.00  0.00     0.384 N 
HETATM    6  C8  UNL     1      24.981   6.612  50.482  1.00  0.00     0.609 A 
HETATM    7  N3  UNL     1      23.843   5.823  50.774  1.00  0.00     0.384 N 
HETATM    8  C9  UNL     1      23.884   4.596  50.134  1.00  0.00     0.337 A 
HETATM    9  C10 UNL     1      23.531   4.090  51.531  1.00  0.00     0.052 C 
HETATM   10  C11 UNL     1      24.460   3.048  52.048  1.00  0.00    -0.009 C 
HETATM   11  C12 UNL     1      24.175   2.210  53.104  1.00  0.00     0.015 C 
HETATM   12  C13 UNL     1      22.861   1.826  52.928  1.00  0.00     0.020 C 
HETATM   13  C14 UNL     1      22.221   1.608  51.729  1.00  0.00     0.012 C 
HETATM   14 BR1  UNL     1      21.144   0.034  51.772  1.00  0.00    -0.051 Br
HETATM   15  C15 UNL     1      22.285   2.373  50.598  1.00  0.00     0.038 C 
HETATM   16  C16 UNL     1      23.052   2.877  49.599  1.00  0.00    -0.005 C 
HETATM   17  C17 UNL     1      22.921   2.983  48.304  1.00  0.00     0.056 C 
HETATM   18  N4  UNL     1      24.205   3.474  49.372  1.00  0.00    -0.196 NA
ENDROOT
BRANCH   1  19
HETATM   19  N1  UNL     1      26.311   1.423  52.487  1.00  0.00    -0.353 N 
HETATM   20  H4  UNL     1      25.603   0.651  52.327  1.00  0.00     0.163 HD
BRANCH  19  21
HETATM   21  C3  UNL     1      27.384   1.092  53.364  1.00  0.00     0.175 A 
HETATM   22  C2  UNL     1      28.030  -0.215  53.331  1.00  0.00     0.038 A 
HETATM   23  C1  UNL     1      28.628   0.471  54.260  1.00  0.00     0.234 A 
HETATM   24  O1  UNL     1      27.872   1.854  54.223  1.00  0.00    -0.349 OA
ENDBRANCH  19  21
ENDBRANCH   1  19
TORSDOF 2
ENDMDL
MODEL 3
REMARK VINA RESULT:      -7.0      2.977      4.661
REMARK  2 active torsions:
REMARK  status: ('A' for Active; 'I' for Inactive)
REMARK    1  A    between atoms: C3_3  and  N1_5 
REMARK    2  A    between atoms: N1_5  and  C4_6 
ROOT
HETATM    1  C4  UNL     1      23.886   4.327  50.206  1.00  0.00     0.040 C 
HETATM    2  C5  UNL     1      23.439   4.567  48.878  1.00  0.00     0.030 C 
HETATM    3  C6  UNL     1      21.971   4.082  48.409  1.00  0.00     0.041 C 
HETATM    4  C7  UNL     1      20.975   3.383  49.283  1.00  0.00     0.336 A 
HETATM    5  N2  UNL     1      20.161   4.514  49.137  1.00  0.00     0.384 N 
HETATM    6  C8  UNL     1      19.515   4.931  50.324  1.00  0.00     0.609 A 
HETATM    7  N3  UNL     1      20.011   3.975  51.242  1.00  0.00     0.384 N 
HETATM    8  C9  UNL     1      20.857   3.063  50.636  1.00  0.00     0.337 A 
HETATM    9  C10 UNL     1      21.745   3.407  51.830  1.00  0.00     0.052 C 
HETATM   10  C11 UNL     1      23.117   3.848  51.455  1.00  0.00    -0.009 C 
HETATM   11  C12 UNL     1      24.184   3.884  52.326  1.00  0.00     0.015 C 
HETATM   12  C13 UNL     1      24.095   2.726  53.070  1.00  0.00     0.020 C 
HETATM   13  C14 UNL     1      23.650   1.499  52.633  1.00  0.00     0.012 C 
HETATM   14 BR1  UNL     1      24.759   0.076  53.254  1.00  0.00    -0.051 Br
HETATM   15  C15 UNL     1      22.558   1.237  51.855  1.00  0.00     0.038 C 
HETATM   16  C16 UNL     1      21.939   1.400  50.659  1.00  0.00    -0.005 C 
HETATM   17  C17 UNL     1      21.311   0.607  49.833  1.00  0.00     0.056 C 
HETATM   18  N4  UNL     1      21.641   2.315  49.758  1.00  0.00    -0.196 NA
ENDROOT
BRANCH   1  19
HETATM   19  N1  UNL     1      25.225   4.590  50.330  1.00  0.00    -0.353 N 
HETATM   20  H4  UNL     1      25.362   4.791  51.361  1.00  0.00     0.163 HD
BRANCH  19  21
HETATM   21  C3  UNL     1      26.404   4.665  49.534  1.00  0.00     0.175 A 
HETATM   22  C2  UNL     1      26.785   5.886  48.835  1.00  0.00     0.038 A 
HETATM   23  C1  UNL     1      27.700   5.003  48.564  1.00  0.00     0.234 A 
HETATM   24  O1  UNL     1      27.210   3.730  49.354  1.00  0.00    -0.349 OA
ENDBRANCH  19  21
ENDBRANCH   1  19
TORSDOF 2
ENDMDL
MODEL 4
REMARK VINA RESULT:      -6.8      3.922      6.603
REMARK  2 active torsions:
REMARK  status: ('A' for Active; 'I' for Inactive)
REMARK    1  A    between atoms: C3_3  and  N1_5 
REMARK    2  A    between atoms: N1_5  and  C4_6 
ROOT
HETATM    1  C4  UNL     1      20.903   3.039  51.670  1.00  0.00     0.040 C 
HETATM    2  C5  UNL     1      21.101   4.443  51.777  1.00  0.00     0.030 C 
HETATM    3  C6  UNL     1      22.590   5.066  51.724  1.00  0.00     0.041 C 
HETATM    4  C7  UNL     1      23.849   4.274  51.550  1.00  0.00     0.336 A 
HETATM    5  N2  UNL     1      24.011   4.934  50.325  1.00  0.00     0.384 N 
HETATM    6  C8  UNL     1      24.446   4.107  49.264  1.00  0.00     0.609 A 
HETATM    7  N3  UNL     1      24.525   2.857  49.921  1.00  0.00     0.384 N 
HETATM    8  C9  UNL     1      24.186   2.951  51.260  1.00  0.00     0.337 A 
HETATM    9  C10 UNL     1      23.316   1.746  50.910  1.00  0.00     0.052 C 
HETATM   10  C11 UNL     1      21.881   1.914  51.271  1.00  0.00    -0.009 C 
HETATM   11  C12 UNL     1      20.981   0.875  51.373  1.00  0.00     0.015 C 
HETATM   12  C13 UNL     1      21.659  -0.142  52.012  1.00  0.00     0.020 C 
HETATM   13  C14 UNL     1      22.611  -0.005  52.996  1.00  0.00     0.012 C 
HETATM   14 BR1  UNL     1      22.361  -1.261  54.410  1.00  0.00    -0.051 Br
HETATM   15  C15 UNL     1      23.647   0.886  53.037  1.00  0.00     0.038 C 
HETATM   16  C16 UNL     1      24.039   2.184  53.083  1.00  0.00    -0.005 C 
HETATM   17  C17 UNL     1      24.921   2.853  53.777  1.00  0.00     0.056 C 
HETATM   18  N4  UNL     1      23.807   3.361  52.538  1.00  0.00    -0.196 NA
ENDROOT
BRANCH   1  19
HETATM   19  N1  UNL     1      19.612   2.698  51.979  1.00  0.00    -0.353 N 
HETATM   20  H4  UNL     1      19.705   1.994  52.765  1.00  0.00     0.163 HD
BRANCH  19  21
HETATM   21  C3  UNL     1      18.277   2.994  51.581  1.00  0.00     0.175 A 
HETATM   22  C2  UNL     1      17.539   2.134  50.664  1.00  0.00     0.038 A 
HETATM   23  C1  UNL     1      16.743   3.115  50.974  1.00  0.00     0.234 A 
HETATM   24  O1  UNL     1      17.617   3.983  51.958  1.00  0.00    -0.349 OA
ENDBRANCH  19  21
ENDBRANCH   1  19
TORSDOF 2
ENDMDL
MODEL 5
REMARK VINA RESULT:      -6.7      2.584      4.169
REMARK  2 active torsions:
REMARK  status: ('A' for Active; 'I' for Inactive)
REMARK    1  A    between atoms: C3_3  and  N1_5 
REMARK    2  A    between atoms: N1_5  and  C4_6 
ROOT
HETATM    1  C4  UNL     1      24.938   2.714  51.423  1.00  0.00     0.040 C 
HETATM    2  C5  UNL     1      26.084   3.044  50.648  1.00  0.00     0.030 C 
HETATM    3  C6  UNL     1      26.041   4.282  49.610  1.00  0.00     0.041 C 
HETATM    4  C7  UNL     1      24.859   5.173  49.381  1.00  0.00     0.336 A 
HETATM    5  N2  UNL     1      25.635   6.216  49.903  1.00  0.00     0.384 N 
HETATM    6  C8  UNL     1      24.942   7.081  50.782  1.00  0.00     0.609 A 
HETATM    7  N3  UNL     1      23.662   6.480  50.788  1.00  0.00     0.384 N 
HETATM    8  C9  UNL     1      23.606   5.369  49.963  1.00  0.00     0.337 A 
HETATM    9  C10 UNL     1      22.963   4.743  51.198  1.00  0.00     0.052 C 
HETATM   10  C11 UNL     1      23.621   3.486  51.650  1.00  0.00    -0.009 C 
HETATM   11  C12 UNL     1      23.044   2.573  52.505  1.00  0.00     0.015 C 
HETATM   12  C13 UNL     1      21.730   2.463  52.099  1.00  0.00     0.020 C 
HETATM   13  C14 UNL     1      21.259   2.538  50.808  1.00  0.00     0.012 C 
HETATM   14 BR1  UNL     1      19.951   1.197  50.447  1.00  0.00    -0.051 Br
HETATM   15  C15 UNL     1      21.621   3.431  49.838  1.00  0.00     0.038 C 
HETATM   16  C16 UNL     1      22.605   3.924  49.045  1.00  0.00    -0.005 C 
HETATM   17  C17 UNL     1      22.696   4.235  47.780  1.00  0.00     0.056 C 
HETATM   18  N4  UNL     1      23.859   4.327  49.073  1.00  0.00    -0.196 NA
ENDROOT
BRANCH   1  19
HETATM   19  N1  UNL     1      25.098   1.505  52.048  1.00  0.00    -0.353 N 
HETATM   20  H4  UNL     1      24.137   1.059  52.010  1.00  0.00     0.163 HD
BRANCH  19  21
HETATM   21  C3  UNL     1      26.105   0.728  52.686  1.00  0.00     0.175 A 
HETATM   22  C2  UNL     1      26.902  -0.250  51.955  1.00  0.00     0.038 A 
HETATM   23  C1  UNL     1      27.314  -0.283  53.189  1.00  0.00     0.234 A 
HETATM   24  O1  UNL     1      26.407   0.794  53.895  1.00  0.00    -0.349 OA
ENDBRANCH  19  21
ENDBRANCH   1  19
TORSDOF 2
ENDMDL
MODEL 6
REMARK VINA RESULT:      -6.7      6.976      9.824
REMARK  2 active torsions:
REMARK  status: ('A' for Active; 'I' for Inactive)
REMARK    1  A    between atoms: C3_3  and  N1_5 
REMARK    2  A    between atoms: N1_5  and  C4_6 
ROOT
HETATM    1  C4  UNL     1      30.970   5.584  48.249  1.00  0.00     0.040 C 
HETATM    2  C5  UNL     1      30.806   4.422  47.446  1.00  0.00     0.030 C 
HETATM    3  C6  UNL     1      32.017   3.893  46.517  1.00  0.00     0.041 C 
HETATM    4  C7  UNL     1      33.371   4.527  46.423  1.00  0.00     0.336 A 
HETATM    5  N2  UNL     1      33.882   3.351  46.988  1.00  0.00     0.384 N 
HETATM    6  C8  UNL     1      34.880   3.555  47.969  1.00  0.00     0.609 A 
HETATM    7  N3  UNL     1      34.941   4.968  47.992  1.00  0.00     0.384 N 
HETATM    8  C9  UNL     1      34.067   5.540  47.083  1.00  0.00     0.337 A 
HETATM    9  C10 UNL     1      33.692   6.392  48.294  1.00  0.00     0.052 C 
HETATM   10  C11 UNL     1      32.237   6.389  48.607  1.00  0.00    -0.009 C 
HETATM   11  C12 UNL     1      31.615   7.318  49.412  1.00  0.00     0.015 C 
HETATM   12  C13 UNL     1      32.165   8.535  49.067  1.00  0.00     0.020 C 
HETATM   13  C14 UNL     1      32.574   8.928  47.812  1.00  0.00     0.012 C 
HETATM   14 BR1  UNL     1      32.031  10.712  47.411  1.00  0.00    -0.051 Br
HETATM   15  C15 UNL     1      33.287   8.200  46.902  1.00  0.00     0.038 C 
HETATM   16  C16 UNL     1      33.344   7.106  46.102  1.00  0.00    -0.005 C 
HETATM   17  C17 UNL     1      33.698   6.890  44.864  1.00  0.00     0.056 C 
HETATM   18  N4  UNL     1      33.117   5.807  46.098  1.00  0.00    -0.196 NA
ENDROOT
BRANCH   1  19
HETATM   19  N1  UNL     1      29.770   6.000  48.763  1.00  0.00    -0.353 N 
HETATM   20  H4  UNL     1      29.909   5.976  49.814  1.00  0.00     0.163 HD
BRANCH  19  21
HETATM   21  C3  UNL     1      28.482   6.426  48.330  1.00  0.00     0.175 A 
HETATM   22  C2  UNL     1      28.287   7.678  47.610  1.00  0.00     0.038 A 
HETATM   23  C1  UNL     1      27.112   7.133  47.729  1.00  0.00     0.234 A 
HETATM   24  O1  UNL     1      27.419   5.798  48.510  1.00  0.00    -0.349 OA
ENDBRANCH  19  21
ENDBRANCH   1  19
TORSDOF 2
ENDMDL
MODEL 7
REMARK VINA RESULT:      -6.6      2.578      4.159
REMARK  2 active torsions:
REMARK  status: ('A' for Active; 'I' for Inactive)
REMARK    1  A    between atoms: C3_3  and  N1_5 
REMARK    2  A    between atoms: N1_5  and  C4_6 
ROOT
HETATM    1  C4  UNL     1      24.950   3.224  51.115  1.00  0.00     0.040 C 
HETATM    2  C5  UNL     1      25.284   3.697  49.817  1.00  0.00     0.030 C 
HETATM    3  C6  UNL     1      24.128   3.964  48.721  1.00  0.00     0.041 C 
HETATM    4  C7  UNL     1      22.661   3.767  48.951  1.00  0.00     0.336 A 
HETATM    5  N2  UNL     1      22.522   5.151  48.782  1.00  0.00     0.384 N 
HETATM    6  C8  UNL     1      21.636   5.768  49.694  1.00  0.00     0.609 A 
HETATM    7  N3  UNL     1      21.242   4.655  50.473  1.00  0.00     0.384 N 
HETATM    8  C9  UNL     1      21.832   3.482  50.036  1.00  0.00     0.337 A 
HETATM    9  C10 UNL     1      22.141   3.327  51.524  1.00  0.00     0.052 C 
HETATM   10  C11 UNL     1      23.583   3.102  51.820  1.00  0.00    -0.009 C 
HETATM   11  C12 UNL     1      24.060   2.606  53.014  1.00  0.00     0.015 C 
HETATM   12  C13 UNL     1      23.196   1.589  53.365  1.00  0.00     0.020 C 
HETATM   13  C14 UNL     1      22.552   0.724  52.510  1.00  0.00     0.012 C 
HETATM   14 BR1  UNL     1      22.597  -1.073  53.146  1.00  0.00    -0.051 Br
HETATM   15  C15 UNL     1      21.924   1.028  51.335  1.00  0.00     0.038 C 
HETATM   16  C16 UNL     1      22.030   1.508  50.071  1.00  0.00    -0.005 C 
HETATM   17  C17 UNL     1      21.585   1.128  48.903  1.00  0.00     0.056 C 
HETATM   18  N4  UNL     1      22.559   2.493  49.373  1.00  0.00    -0.196 NA
ENDROOT
BRANCH   1  19
HETATM   19  N1  UNL     1      26.071   2.834  51.801  1.00  0.00    -0.353 N 
HETATM   20  H4  UNL     1      26.522   3.742  52.110  1.00  0.00     0.163 HD
BRANCH  19  21
HETATM   21  C3  UNL     1      26.758   1.650  52.193  1.00  0.00     0.175 A 
HETATM   22  C2  UNL     1      27.702   1.639  53.304  1.00  0.00     0.038 A 
HETATM   23  C1  UNL     1      27.668   0.426  52.834  1.00  0.00     0.234 A 
HETATM   24  O1  UNL     1      26.632   0.533  51.650  1.00  0.00    -0.349 OA
ENDBRANCH  19  21
ENDBRANCH   1  19
TORSDOF 2
ENDMDL
MODEL 8
REMARK VINA RESULT:      -6.6      9.449     11.854
REMARK  2 active torsions:
REMARK  status: ('A' for Active; 'I' for Inactive)
REMARK    1  A    between atoms: C3_3  and  N1_5 
REMARK    2  A    between atoms: N1_5  and  C4_6 
ROOT
HETATM    1  C4  UNL     1      34.224   5.461  44.365  1.00  0.00     0.040 C 
HETATM    2  C5  UNL     1      35.044   4.304  44.470  1.00  0.00     0.030 C 
HETATM    3  C6  UNL     1      35.065   3.436  45.832  1.00  0.00     0.041 C 
HETATM    4  C7  UNL     1      34.253   3.734  47.055  1.00  0.00     0.336 A 
HETATM    5  N2  UNL     1      33.587   2.524  46.819  1.00  0.00     0.384 N 
HETATM    6  C8  UNL     1      32.187   2.577  47.013  1.00  0.00     0.609 A 
HETATM    7  N3  UNL     1      32.021   3.935  47.371  1.00  0.00     0.384 N 
HETATM    8  C9  UNL     1      33.228   4.613  47.405  1.00  0.00     0.337 A 
HETATM    9  C10 UNL     1      32.445   5.626  46.573  1.00  0.00     0.052 C 
HETATM   10  C11 UNL     1      33.099   5.982  45.284  1.00  0.00    -0.009 C 
HETATM   11  C12 UNL     1      32.780   7.094  44.534  1.00  0.00     0.015 C 
HETATM   12  C13 UNL     1      32.616   8.120  45.442  1.00  0.00     0.020 C 
HETATM   13  C14 UNL     1      33.316   8.301  46.613  1.00  0.00     0.012 C 
HETATM   14 BR1  UNL     1      33.826  10.122  46.864  1.00  0.00    -0.051 Br
HETATM   15  C15 UNL     1      33.644   7.356  47.544  1.00  0.00     0.038 C 
HETATM   16  C16 UNL     1      34.320   6.214  47.827  1.00  0.00    -0.005 C 
HETATM   17  C17 UNL     1      35.088   5.820  48.808  1.00  0.00     0.056 C 
HETATM   18  N4  UNL     1      34.565   5.007  47.359  1.00  0.00    -0.196 NA
ENDROOT
BRANCH   1  19
HETATM   19  N1  UNL     1      34.530   6.182  43.241  1.00  0.00    -0.353 N 
HETATM   20  H4  UNL     1      33.956   7.069  43.330  1.00  0.00     0.163 HD
BRANCH  19  21
HETATM   21  C3  UNL     1      35.338   6.095  42.071  1.00  0.00     0.175 A 
HETATM   22  C2  UNL     1      36.707   6.594  42.042  1.00  0.00     0.038 A 
HETATM   23  C1  UNL     1      36.463   6.113  40.859  1.00  0.00     0.234 A 
HETATM   24  O1  UNL     1      34.977   5.601  40.984  1.00  0.00    -0.349 OA
ENDBRANCH  19  21
ENDBRANCH   1  19
TORSDOF 2
ENDMDL
MODEL 9
REMARK VINA RESULT:      -6.5      3.971      6.582
REMARK  2 active torsions:
REMARK  status: ('A' for Active; 'I' for Inactive)
REMARK    1  A    between atoms: C3_3  and  N1_5 
REMARK    2  A    between atoms: N1_5  and  C4_6 
ROOT
HETATM    1  C4  UNL     1      22.673   4.125  48.007  1.00  0.00     0.040 C 
HETATM    2  C5  UNL     1      23.118   5.468  47.861  1.00  0.00     0.030 C 
HETATM    3  C6  UNL     1      24.222   6.079  48.870  1.00  0.00     0.041 C 
HETATM    4  C7  UNL     1      24.869   5.329  49.994  1.00  0.00     0.336 A 
HETATM    5  N2  UNL     1      26.076   5.471  49.297  1.00  0.00     0.384 N 
HETATM    6  C8  UNL     1      26.891   4.315  49.293  1.00  0.00     0.609 A 
HETATM    7  N3  UNL     1      26.082   3.420  50.031  1.00  0.00     0.384 N 
HETATM    8  C9  UNL     1      24.903   4.011  50.451  1.00  0.00     0.337 A 
HETATM    9  C10 UNL     1      24.299   2.733  49.874  1.00  0.00     0.052 C 
HETATM   10  C11 UNL     1      23.225   2.972  48.871  1.00  0.00    -0.009 C 
HETATM   11  C12 UNL     1      22.314   2.019  48.469  1.00  0.00     0.015 C 
HETATM   12  C13 UNL     1      21.941   1.355  49.619  1.00  0.00     0.020 C 
HETATM   13  C14 UNL     1      21.806   1.898  50.877  1.00  0.00     0.012 C 
HETATM   14 BR1  UNL     1      20.231   1.279  51.757  1.00  0.00    -0.051 Br
HETATM   15  C15 UNL     1      22.649   2.775  51.501  1.00  0.00     0.038 C 
HETATM   16  C16 UNL     1      23.224   4.003  51.507  1.00  0.00    -0.005 C 
HETATM   17  C17 UNL     1      23.420   4.922  52.414  1.00  0.00     0.056 C 
HETATM   18  N4  UNL     1      23.837   4.868  50.724  1.00  0.00    -0.196 NA
ENDROOT
BRANCH   1  19
HETATM   19  N1  UNL     1      21.577   3.881  47.222  1.00  0.00    -0.353 N 
HETATM   20  H4  UNL     1      20.810   3.628  47.909  1.00  0.00     0.163 HD
BRANCH  19  21
HETATM   21  C3  UNL     1      21.193   3.870  45.851  1.00  0.00     0.175 A 
HETATM   22  C2  UNL     1      19.822   4.135  45.434  1.00  0.00     0.038 A 
HETATM   23  C1  UNL     1      20.504   3.915  44.348  1.00  0.00     0.234 A 
HETATM   24  O1  UNL     1      21.958   3.643  44.892  1.00  0.00    -0.349 OA
ENDBRANCH  19  21
ENDBRANCH   1  19
TORSDOF 2
ENDMDL
