MODEL 1
REMARK VINA RESULT:      -7.0      0.000      0.000
REMARK  7 active torsions:
REMARK  status: ('A' for Active; 'I' for Inactive)
REMARK    1  A    between atoms: O1_2  and  C2_3 
REMARK    2  A    between atoms: C2_3  and  O2_4 
REMARK    3  A    between atoms: O2_4  and  C3_5 
REMARK    4  A    between atoms: C6_10  and  C7_11 
REMARK    5  A    between atoms: C11_17  and  N3_18 
REMARK    6  A    between atoms: N3_18  and  C12_19 
REMARK    7  A    between atoms: C16_23  and  O5_24 
ROOT
HETATM    1  C7  UNL     1      23.749   0.248  53.122  1.00  0.00     0.046 A 
HETATM    2  C8  UNL     1      22.709  -0.453  53.706  1.00  0.00     0.044 A 
HETATM    3  C9  UNL     1      22.909  -1.309  54.904  1.00  0.00     0.071 C 
HETATM    4  N1  UNL     1      21.446  -0.438  53.255  1.00  0.00    -0.246 NA
HETATM    5  C10 UNL     1      21.150   0.288  52.180  1.00  0.00     0.235 A 
HETATM    6  N2  UNL     1      22.083   0.995  51.547  1.00  0.00    -0.224 NA
HETATM    7  C11 UNL     1      23.355   0.969  52.017  1.00  0.00     0.140 A 
ENDROOT
BRANCH   1   8
HETATM    8  C6  UNL     1      25.116   0.219  53.654  1.00  0.00     0.215 C 
HETATM    9  C3  UNL     1      25.995  -0.553  52.700  1.00  0.00     0.295 C 
HETATM   10  O3  UNL     1      26.581   0.345  51.824  1.00  0.00    -0.356 OA
HETATM   11  C4  UNL     1      27.520   1.092  52.502  1.00  0.00     0.197 C 
HETATM   12  C5  UNL     1      26.955   1.591  53.807  1.00  0.00     0.195 C 
HETATM   13  O4  UNL     1      25.561   1.524  53.825  1.00  0.00    -0.374 OA
BRANCH   9  14
HETATM   14  O2  UNL     1      27.009  -1.237  53.355  1.00  0.00    -0.334 OA
BRANCH  14  15
HETATM   15  C2  UNL     1      27.440  -2.395  52.778  1.00  0.00     0.340 C 
BRANCH  15  16
HETATM   16  O1  UNL     1      28.653  -2.768  53.407  1.00  0.00    -0.372 OA
HETATM   17  C1  UNL     1      29.514  -1.674  53.424  1.00  0.00     0.204 C 
ENDBRANCH  15  16
ENDBRANCH  14  15
ENDBRANCH   9  14
ENDBRANCH   1   8
BRANCH   7  18
HETATM   18  N3  UNL     1      24.259   1.808  51.258  1.00  0.00    -0.340 N 
HETATM   19  H16 UNL     1      25.163   1.773  50.726  1.00  0.00     0.167 HD
BRANCH  18  20
HETATM   20  C12 UNL     1      23.788   3.176  51.200  1.00  0.00     0.036 A 
HETATM   21  C13 UNL     1      23.648   3.866  52.399  1.00  0.00     0.029 A 
HETATM   22  C14 UNL     1      23.245   5.188  52.419  1.00  0.00     0.005 A 
HETATM   23  C15 UNL     1      22.980   5.820  51.204  1.00  0.00     0.037 A 
HETATM   24  C16 UNL     1      23.127   5.115  50.027  1.00  0.00     0.070 A 
HETATM   25  C18 UNL     1      23.530   3.786  49.997  1.00  0.00     0.066 A 
BRANCH  24  26
HETATM   26  O5  UNL     1      22.852   5.805  48.877  1.00  0.00    -0.356 OA
HETATM   27  C17 UNL     1      22.589   5.283  47.612  1.00  0.00     0.210 C 
ENDBRANCH  24  26
ENDBRANCH  18  20
ENDBRANCH   7  18
TORSDOF 7
ENDMDL
MODEL 2
REMARK VINA RESULT:      -7.0      1.506      1.901
REMARK  7 active torsions:
REMARK  status: ('A' for Active; 'I' for Inactive)
REMARK    1  A    between atoms: O1_2  and  C2_3 
REMARK    2  A    between atoms: C2_3  and  O2_4 
REMARK    3  A    between atoms: O2_4  and  C3_5 
REMARK    4  A    between atoms: C6_10  and  C7_11 
REMARK    5  A    between atoms: C11_17  and  N3_18 
REMARK    6  A    between atoms: N3_18  and  C12_19 
REMARK    7  A    between atoms: C16_23  and  O5_24 
ROOT
HETATM    1  C7  UNL     1      23.985   1.440  53.017  1.00  0.00     0.046 A 
HETATM    2  C8  UNL     1      22.921   0.560  53.108  1.00  0.00     0.044 A 
HETATM    3  C9  UNL     1      23.102  -0.853  53.535  1.00  0.00     0.071 C 
HETATM    4  N1  UNL     1      21.652   0.881  52.819  1.00  0.00    -0.246 NA
HETATM    5  C10 UNL     1      21.373   2.118  52.416  1.00  0.00     0.235 A 
HETATM    6  N2  UNL     1      22.328   3.037  52.294  1.00  0.00    -0.224 NA
HETATM    7  C11 UNL     1      23.606   2.694  52.592  1.00  0.00     0.140 A 
ENDROOT
BRANCH   1   8
HETATM    8  C6  UNL     1      25.359   1.055  53.357  1.00  0.00     0.215 C 
HETATM    9  C3  UNL     1      26.119   0.782  52.082  1.00  0.00     0.295 C 
HETATM   10  O3  UNL     1      26.765   1.946  51.701  1.00  0.00    -0.356 OA
HETATM   11  C4  UNL     1      27.799   2.198  52.576  1.00  0.00     0.197 C 
HETATM   12  C5  UNL     1      27.334   2.040  54.001  1.00  0.00     0.195 C 
HETATM   13  O4  UNL     1      25.943   2.076  54.097  1.00  0.00    -0.374 OA
BRANCH   9  14
HETATM   14  O2  UNL     1      27.079  -0.207  52.244  1.00  0.00    -0.334 OA
BRANCH  14  15
HETATM   15  C2  UNL     1      26.635  -1.435  52.637  1.00  0.00     0.340 C 
BRANCH  15  16
HETATM   16  O1  UNL     1      27.752  -2.173  53.099  1.00  0.00    -0.372 OA
HETATM   17  C1  UNL     1      28.817  -1.303  53.313  1.00  0.00     0.204 C 
ENDBRANCH  15  16
ENDBRANCH  14  15
ENDBRANCH   9  14
ENDBRANCH   1   8
BRANCH   7  18
HETATM   18  N3  UNL     1      24.537   3.795  52.451  1.00  0.00    -0.340 N 
HETATM   19  H16 UNL     1      25.380   4.223  52.907  1.00  0.00     0.167 HD
BRANCH  18  20
HETATM   20  C12 UNL     1      24.221   4.612  51.298  1.00  0.00     0.036 A 
HETATM   21  C13 UNL     1      24.356   4.038  50.040  1.00  0.00     0.029 A 
HETATM   22  C14 UNL     1      24.031   4.742  48.896  1.00  0.00     0.005 A 
HETATM   23  C15 UNL     1      23.562   6.049  49.031  1.00  0.00     0.037 A 
HETATM   24  C16 UNL     1      23.436   6.597  50.291  1.00  0.00     0.070 A 
HETATM   25  C18 UNL     1      23.761   5.898  51.446  1.00  0.00     0.066 A 
BRANCH  24  26
HETATM   26  O5  UNL     1      22.965   7.882  50.341  1.00  0.00    -0.356 OA
HETATM   27  C17 UNL     1      22.420   8.630  49.300  1.00  0.00     0.210 C 
ENDBRANCH  24  26
ENDBRANCH  18  20
ENDBRANCH   7  18
TORSDOF 7
ENDMDL
MODEL 3
REMARK VINA RESULT:      -6.9      2.694      6.712
REMARK  7 active torsions:
REMARK  status: ('A' for Active; 'I' for Inactive)
REMARK    1  A    between atoms: O1_2  and  C2_3 
REMARK    2  A    between atoms: C2_3  and  O2_4 
REMARK    3  A    between atoms: O2_4  and  C3_5 
REMARK    4  A    between atoms: C6_10  and  C7_11 
REMARK    5  A    between atoms: C11_17  and  N3_18 
REMARK    6  A    between atoms: N3_18  and  C12_19 
REMARK    7  A    between atoms: C16_23  and  O5_24 
ROOT
HETATM    1  C7  UNL     1      21.823   0.120  53.097  1.00  0.00     0.046 A 
HETATM    2  C8  UNL     1      21.012  -0.757  53.797  1.00  0.00     0.044 A 
HETATM    3  C9  UNL     1      19.566  -0.911  53.488  1.00  0.00     0.071 C 
HETATM    4  N1  UNL     1      21.436  -1.530  54.808  1.00  0.00    -0.246 NA
HETATM    5  C10 UNL     1      22.712  -1.468  55.179  1.00  0.00     0.235 A 
HETATM    6  N2  UNL     1      23.571  -0.653  54.568  1.00  0.00    -0.224 NA
HETATM    7  C11 UNL     1      23.124   0.121  53.549  1.00  0.00     0.140 A 
ENDROOT
BRANCH   1   8
HETATM    8  C6  UNL     1      21.325   0.939  51.987  1.00  0.00     0.215 C 
HETATM    9  C3  UNL     1      21.133   2.355  52.472  1.00  0.00     0.295 C 
HETATM   10  O3  UNL     1      22.288   3.069  52.202  1.00  0.00    -0.356 OA
HETATM   11  C4  UNL     1      22.391   3.268  50.843  1.00  0.00     0.197 C 
HETATM   12  C5  UNL     1      22.122   1.984  50.101  1.00  0.00     0.195 C 
HETATM   13  O4  UNL     1      22.231   0.872  50.936  1.00  0.00    -0.374 OA
BRANCH   9  14
HETATM   14  O2  UNL     1      20.077   2.991  51.835  1.00  0.00    -0.334 OA
BRANCH  14  15
HETATM   15  C2  UNL     1      18.885   2.331  51.816  1.00  0.00     0.340 C 
BRANCH  15  16
HETATM   16  O1  UNL     1      17.934   3.171  51.185  1.00  0.00    -0.372 OA
HETATM   17  C1  UNL     1      18.602   4.109  50.403  1.00  0.00     0.204 C 
ENDBRANCH  15  16
ENDBRANCH  14  15
ENDBRANCH   9  14
ENDBRANCH   1   8
BRANCH   7  18
HETATM   18  N3  UNL     1      24.166   0.931  52.951  1.00  0.00    -0.340 N 
HETATM   19  H16 UNL     1      24.307   1.800  52.381  1.00  0.00     0.167 HD
BRANCH  18  20
HETATM   20  C12 UNL     1      25.479   0.372  53.200  1.00  0.00     0.036 A 
HETATM   21  C13 UNL     1      25.813  -0.812  52.554  1.00  0.00     0.029 A 
HETATM   22  C14 UNL     1      27.063  -1.382  52.709  1.00  0.00     0.005 A 
HETATM   23  C15 UNL     1      27.987  -0.739  53.533  1.00  0.00     0.037 A 
HETATM   24  C16 UNL     1      27.633   0.436  54.164  1.00  0.00     0.070 A 
HETATM   25  C18 UNL     1      26.379   1.014  54.015  1.00  0.00     0.066 A 
BRANCH  24  26
HETATM   26  O5  UNL     1      28.595   1.007  54.952  1.00  0.00    -0.356 OA
HETATM   27  C17 UNL     1      29.514   1.992  54.595  1.00  0.00     0.210 C 
ENDBRANCH  24  26
ENDBRANCH  18  20
ENDBRANCH   7  18
TORSDOF 7
ENDMDL
MODEL 4
REMARK VINA RESULT:      -6.9      2.118      6.507
REMARK  7 active torsions:
REMARK  status: ('A' for Active; 'I' for Inactive)
REMARK    1  A    between atoms: O1_2  and  C2_3 
REMARK    2  A    between atoms: C2_3  and  O2_4 
REMARK    3  A    between atoms: O2_4  and  C3_5 
REMARK    4  A    between atoms: C6_10  and  C7_11 
REMARK    5  A    between atoms: C11_17  and  N3_18 
REMARK    6  A    between atoms: N3_18  and  C12_19 
REMARK    7  A    between atoms: C16_23  and  O5_24 
ROOT
HETATM    1  C7  UNL     1      23.130   1.019  52.653  1.00  0.00     0.046 A 
HETATM    2  C8  UNL     1      22.276   0.380  53.534  1.00  0.00     0.044 A 
HETATM    3  C9  UNL     1      20.822   0.687  53.585  1.00  0.00     0.071 C 
HETATM    4  N1  UNL     1      22.664  -0.551  54.418  1.00  0.00    -0.246 NA
HETATM    5  C10 UNL     1      23.947  -0.899  54.469  1.00  0.00     0.235 A 
HETATM    6  N2  UNL     1      24.848  -0.340  53.663  1.00  0.00    -0.224 NA
HETATM    7  C11 UNL     1      24.436   0.600  52.776  1.00  0.00     0.140 A 
ENDROOT
BRANCH   1   8
HETATM    8  C6  UNL     1      22.664   2.023  51.691  1.00  0.00     0.215 C 
HETATM    9  C3  UNL     1      23.032   3.396  52.199  1.00  0.00     0.295 C 
HETATM   10  O3  UNL     1      24.255   3.750  51.655  1.00  0.00    -0.356 OA
HETATM   11  C4  UNL     1      24.097   4.001  50.310  1.00  0.00     0.197 C 
HETATM   12  C5  UNL     1      23.285   2.910  49.661  1.00  0.00     0.195 C 
HETATM   13  O4  UNL     1      23.239   1.761  50.453  1.00  0.00    -0.374 OA
BRANCH   9  14
HETATM   14  O2  UNL     1      22.104   4.359  51.831  1.00  0.00    -0.334 OA
BRANCH  14  15
HETATM   15  C2  UNL     1      20.788   4.027  51.963  1.00  0.00     0.340 C 
BRANCH  15  16
HETATM   16  O1  UNL     1      20.077   4.643  50.904  1.00  0.00    -0.372 OA
HETATM   17  C1  UNL     1      19.595   3.659  50.045  1.00  0.00     0.204 C 
ENDBRANCH  15  16
ENDBRANCH  14  15
ENDBRANCH   9  14
ENDBRANCH   1   8
BRANCH   7  18
HETATM   18  N3  UNL     1      25.508   1.100  51.939  1.00  0.00    -0.340 N 
HETATM   19  H16 UNL     1      25.685   1.529  50.998  1.00  0.00     0.167 HD
BRANCH  18  20
HETATM   20  C12 UNL     1      26.794   0.970  52.593  1.00  0.00     0.036 A 
HETATM   21  C13 UNL     1      27.401   2.128  53.066  1.00  0.00     0.029 A 
HETATM   22  C14 UNL     1      28.608   2.077  53.738  1.00  0.00     0.005 A 
HETATM   23  C15 UNL     1      29.207   0.832  53.933  1.00  0.00     0.037 A 
HETATM   24  C16 UNL     1      28.585  -0.302  53.456  1.00  0.00     0.070 A 
HETATM   25  C18 UNL     1      27.373  -0.261  52.778  1.00  0.00     0.066 A 
BRANCH  24  26
HETATM   26  O5  UNL     1      29.234  -1.485  53.690  1.00  0.00    -0.356 OA
HETATM   27  C17 UNL     1      28.896  -2.750  53.215  1.00  0.00     0.210 C 
ENDBRANCH  24  26
ENDBRANCH  18  20
ENDBRANCH   7  18
TORSDOF 7
ENDMDL
MODEL 5
REMARK VINA RESULT:      -6.6      2.340      3.679
REMARK  7 active torsions:
REMARK  status: ('A' for Active; 'I' for Inactive)
REMARK    1  A    between atoms: O1_2  and  C2_3 
REMARK    2  A    between atoms: C2_3  and  O2_4 
REMARK    3  A    between atoms: O2_4  and  C3_5 
REMARK    4  A    between atoms: C6_10  and  C7_11 
REMARK    5  A    between atoms: C11_17  and  N3_18 
REMARK    6  A    between atoms: N3_18  and  C12_19 
REMARK    7  A    between atoms: C16_23  and  O5_24 
ROOT
HETATM    1  C7  UNL     1      23.484   2.222  51.542  1.00  0.00     0.046 A 
HETATM    2  C8  UNL     1      22.106   2.201  51.415  1.00  0.00     0.044 A 
HETATM    3  C9  UNL     1      21.222   1.699  52.499  1.00  0.00     0.071 C 
HETATM    4  N1  UNL     1      21.445   2.612  50.323  1.00  0.00    -0.246 NA
HETATM    5  C10 UNL     1      22.135   3.073  49.283  1.00  0.00     0.235 A 
HETATM    6  N2  UNL     1      23.465   3.131  49.308  1.00  0.00    -0.224 NA
HETATM    7  C11 UNL     1      24.117   2.712  50.420  1.00  0.00     0.140 A 
ENDROOT
BRANCH   1   8
HETATM    8  C6  UNL     1      24.171   1.778  52.759  1.00  0.00     0.215 C 
HETATM    9  C3  UNL     1      24.736   0.398  52.525  1.00  0.00     0.295 C 
HETATM   10  O3  UNL     1      26.044   0.530  52.090  1.00  0.00    -0.356 OA
HETATM   11  C4  UNL     1      26.828   0.962  53.136  1.00  0.00     0.197 C 
HETATM   12  C5  UNL     1      26.166   2.111  53.853  1.00  0.00     0.195 C 
HETATM   13  O4  UNL     1      25.165   2.695  53.076  1.00  0.00    -0.374 OA
BRANCH   9  14
HETATM   14  O2  UNL     1      24.744  -0.370  53.681  1.00  0.00    -0.334 OA
BRANCH  14  15
HETATM   15  C2  UNL     1      23.545  -0.562  54.299  1.00  0.00     0.340 C 
BRANCH  15  16
HETATM   16  O1  UNL     1      22.713  -1.292  53.416  1.00  0.00    -0.372 OA
HETATM   17  C1  UNL     1      21.573  -1.706  54.100  1.00  0.00     0.204 C 
ENDBRANCH  15  16
ENDBRANCH  14  15
ENDBRANCH   9  14
ENDBRANCH   1   8
BRANCH   7  18
HETATM   18  N3  UNL     1      25.555   2.862  50.328  1.00  0.00    -0.340 N 
HETATM   19  H16 UNL     1      26.448   2.326  50.453  1.00  0.00     0.167 HD
BRANCH  18  20
HETATM   20  C12 UNL     1      25.921   4.208  49.938  1.00  0.00     0.036 A 
HETATM   21  C13 UNL     1      26.954   4.359  49.020  1.00  0.00     0.029 A 
HETATM   22  C14 UNL     1      27.330   5.610  48.568  1.00  0.00     0.005 A 
HETATM   23  C15 UNL     1      26.648   6.725  49.056  1.00  0.00     0.037 A 
HETATM   24  C16 UNL     1      25.626   6.549  49.966  1.00  0.00     0.070 A 
HETATM   25  C18 UNL     1      25.242   5.297  50.427  1.00  0.00     0.066 A 
BRANCH  24  26
HETATM   26  O5  UNL     1      25.002   7.691  50.394  1.00  0.00    -0.356 OA
HETATM   27  C17 UNL     1      23.778   8.202  49.971  1.00  0.00     0.210 C 
ENDBRANCH  24  26
ENDBRANCH  18  20
ENDBRANCH   7  18
TORSDOF 7
ENDMDL
MODEL 6
REMARK VINA RESULT:      -6.6      2.685      6.900
REMARK  7 active torsions:
REMARK  status: ('A' for Active; 'I' for Inactive)
REMARK    1  A    between atoms: O1_2  and  C2_3 
REMARK    2  A    between atoms: C2_3  and  O2_4 
REMARK    3  A    between atoms: O2_4  and  C3_5 
REMARK    4  A    between atoms: C6_10  and  C7_11 
REMARK    5  A    between atoms: C11_17  and  N3_18 
REMARK    6  A    between atoms: N3_18  and  C12_19 
REMARK    7  A    between atoms: C16_23  and  O5_24 
ROOT
HETATM    1  C7  UNL     1      23.436   2.799  50.740  1.00  0.00     0.046 A 
HETATM    2  C8  UNL     1      23.814   3.453  49.581  1.00  0.00     0.044 A 
HETATM    3  C9  UNL     1      22.836   3.799  48.517  1.00  0.00     0.071 C 
HETATM    4  N1  UNL     1      25.073   3.824  49.303  1.00  0.00    -0.246 NA
HETATM    5  C10 UNL     1      26.035   3.557  50.181  1.00  0.00     0.235 A 
HETATM    6  N2  UNL     1      25.772   2.929  51.325  1.00  0.00    -0.224 NA
HETATM    7  C11 UNL     1      24.494   2.561  51.590  1.00  0.00     0.140 A 
ENDROOT
BRANCH   1   8
HETATM    8  C6  UNL     1      22.046   2.422  51.016  1.00  0.00     0.215 C 
HETATM    9  C3  UNL     1      21.881   0.943  50.765  1.00  0.00     0.295 C 
HETATM   10  O3  UNL     1      22.077   0.273  51.960  1.00  0.00    -0.356 OA
HETATM   11  C4  UNL     1      21.011   0.518  52.797  1.00  0.00     0.197 C 
HETATM   12  C5  UNL     1      20.683   1.989  52.817  1.00  0.00     0.195 C 
HETATM   13  O4  UNL     1      21.739   2.759  52.328  1.00  0.00    -0.374 OA
BRANCH   9  14
HETATM   14  O2  UNL     1      20.614   0.626  50.298  1.00  0.00    -0.334 OA
BRANCH  14  15
HETATM   15  C2  UNL     1      20.115   1.405  49.297  1.00  0.00     0.340 C 
BRANCH  15  16
HETATM   16  O1  UNL     1      18.775   1.727  49.623  1.00  0.00    -0.372 OA
HETATM   17  C1  UNL     1      18.184   0.635  50.252  1.00  0.00     0.204 C 
ENDBRANCH  15  16
ENDBRANCH  14  15
ENDBRANCH   9  14
ENDBRANCH   1   8
BRANCH   7  18
HETATM   18  N3  UNL     1      24.342   1.920  52.880  1.00  0.00    -0.340 N 
HETATM   19  H16 UNL     1      23.689   1.864  53.699  1.00  0.00     0.167 HD
BRANCH  18  20
HETATM   20  C12 UNL     1      25.467   1.057  53.177  1.00  0.00     0.036 A 
HETATM   21  C13 UNL     1      25.477  -0.213  52.613  1.00  0.00     0.029 A 
HETATM   22  C14 UNL     1      26.537  -1.076  52.817  1.00  0.00     0.005 A 
HETATM   23  C15 UNL     1      27.603  -0.643  53.606  1.00  0.00     0.037 A 
HETATM   24  C16 UNL     1      27.571   0.622  54.154  1.00  0.00     0.070 A 
HETATM   25  C18 UNL     1      26.510   1.496  53.956  1.00  0.00     0.066 A 
BRANCH  24  26
HETATM   26  O5  UNL     1      28.655   0.975  54.912  1.00  0.00    -0.356 OA
HETATM   27  C17 UNL     1      29.576   1.989  54.661  1.00  0.00     0.210 C 
ENDBRANCH  24  26
ENDBRANCH  18  20
ENDBRANCH   7  18
TORSDOF 7
ENDMDL
MODEL 7
REMARK VINA RESULT:      -6.4      2.860      5.792
REMARK  7 active torsions:
REMARK  status: ('A' for Active; 'I' for Inactive)
REMARK    1  A    between atoms: O1_2  and  C2_3 
REMARK    2  A    between atoms: C2_3  and  O2_4 
REMARK    3  A    between atoms: O2_4  and  C3_5 
REMARK    4  A    between atoms: C6_10  and  C7_11 
REMARK    5  A    between atoms: C11_17  and  N3_18 
REMARK    6  A    between atoms: N3_18  and  C12_19 
REMARK    7  A    between atoms: C16_23  and  O5_24 
ROOT
HETATM    1  C7  UNL     1      24.180   1.615  52.317  1.00  0.00     0.046 A 
HETATM    2  C8  UNL     1      25.134   0.651  52.593  1.00  0.00     0.044 A 
HETATM    3  C9  UNL     1      26.567   0.839  52.242  1.00  0.00     0.071 C 
HETATM    4  N1  UNL     1      24.869  -0.524  53.180  1.00  0.00    -0.246 NA
HETATM    5  C10 UNL     1      23.616  -0.805  53.530  1.00  0.00     0.235 A 
HETATM    6  N2  UNL     1      22.627   0.056  53.305  1.00  0.00    -0.224 NA
HETATM    7  C11 UNL     1      22.914   1.240  52.710  1.00  0.00     0.140 A 
ENDROOT
BRANCH   1   8
HETATM    8  C6  UNL     1      24.512   2.896  51.686  1.00  0.00     0.215 C 
HETATM    9  C3  UNL     1      24.196   2.812  50.213  1.00  0.00     0.295 C 
HETATM   10  O3  UNL     1      22.911   3.288  50.014  1.00  0.00    -0.356 OA
HETATM   11  C4  UNL     1      22.898   4.652  50.208  1.00  0.00     0.197 C 
HETATM   12  C5  UNL     1      23.635   5.011  51.473  1.00  0.00     0.195 C 
HETATM   13  O4  UNL     1      23.791   3.907  52.311  1.00  0.00    -0.374 OA
BRANCH   9  14
HETATM   14  O2  UNL     1      25.061   3.577  49.444  1.00  0.00    -0.334 OA
BRANCH  14  15
HETATM   15  C2  UNL     1      26.393   3.435  49.694  1.00  0.00     0.340 C 
BRANCH  15  16
HETATM   16  O1  UNL     1      27.091   4.333  48.849  1.00  0.00    -0.372 OA
HETATM   17  C1  UNL     1      26.517   5.597  48.953  1.00  0.00     0.204 C 
ENDBRANCH  15  16
ENDBRANCH  14  15
ENDBRANCH   9  14
ENDBRANCH   1   8
BRANCH   7  18
HETATM   18  N3  UNL     1      21.755   2.096  52.558  1.00  0.00    -0.340 N 
HETATM   19  H16 UNL     1      21.457   3.099  52.633  1.00  0.00     0.167 HD
BRANCH  18  20
HETATM   20  C12 UNL     1      20.582   1.335  52.179  1.00  0.00     0.036 A 
HETATM   21  C13 UNL     1      20.226   1.317  50.836  1.00  0.00     0.029 A 
HETATM   22  C14 UNL     1      19.145   0.578  50.395  1.00  0.00     0.005 A 
HETATM   23  C15 UNL     1      18.413  -0.153  51.331  1.00  0.00     0.037 A 
HETATM   24  C16 UNL     1      18.787  -0.120  52.658  1.00  0.00     0.070 A 
HETATM   25  C18 UNL     1      19.870   0.620  53.112  1.00  0.00     0.066 A 
BRANCH  24  26
HETATM   26  O5  UNL     1      18.022  -0.867  53.514  1.00  0.00    -0.356 OA
HETATM   27  C17 UNL     1      17.980  -2.254  53.629  1.00  0.00     0.210 C 
ENDBRANCH  24  26
ENDBRANCH  18  20
ENDBRANCH   7  18
TORSDOF 7
ENDMDL
MODEL 8
REMARK VINA RESULT:      -6.2      3.402      5.206
REMARK  7 active torsions:
REMARK  status: ('A' for Active; 'I' for Inactive)
REMARK    1  A    between atoms: O1_2  and  C2_3 
REMARK    2  A    between atoms: C2_3  and  O2_4 
REMARK    3  A    between atoms: O2_4  and  C3_5 
REMARK    4  A    between atoms: C6_10  and  C7_11 
REMARK    5  A    between atoms: C11_17  and  N3_18 
REMARK    6  A    between atoms: N3_18  and  C12_19 
REMARK    7  A    between atoms: C16_23  and  O5_24 
ROOT
HETATM    1  C7  UNL     1      24.399   1.655  51.625  1.00  0.00     0.046 A 
HETATM    2  C8  UNL     1      25.183   0.860  52.442  1.00  0.00     0.044 A 
HETATM    3  C9  UNL     1      24.627  -0.309  53.173  1.00  0.00     0.071 C 
HETATM    4  N1  UNL     1      26.491   1.065  52.660  1.00  0.00    -0.246 NA
HETATM    5  C10 UNL     1      27.094   2.090  52.064  1.00  0.00     0.235 A 
HETATM    6  N2  UNL     1      26.424   2.913  51.260  1.00  0.00    -0.224 NA
HETATM    7  C11 UNL     1      25.102   2.691  51.052  1.00  0.00     0.140 A 
ENDROOT
BRANCH   1   8
HETATM    8  C6  UNL     1      22.974   1.391  51.400  1.00  0.00     0.215 C 
HETATM    9  C3  UNL     1      22.161   2.323  52.265  1.00  0.00     0.295 C 
HETATM   10  O3  UNL     1      21.852   3.449  51.521  1.00  0.00    -0.356 OA
HETATM   11  C4  UNL     1      20.929   3.115  50.554  1.00  0.00     0.197 C 
HETATM   12  C5  UNL     1      21.341   1.850  49.847  1.00  0.00     0.195 C 
HETATM   13  O4  UNL     1      22.691   1.561  50.050  1.00  0.00    -0.374 OA
BRANCH   9  14
HETATM   14  O2  UNL     1      20.971   1.748  52.685  1.00  0.00    -0.334 OA
BRANCH  14  15
HETATM   15  C2  UNL     1      21.021   0.439  53.062  1.00  0.00     0.340 C 
BRANCH  15  16
HETATM   16  O1  UNL     1      20.934   0.391  54.475  1.00  0.00    -0.372 OA
HETATM   17  C1  UNL     1      21.532  -0.782  54.929  1.00  0.00     0.204 C 
ENDBRANCH  15  16
ENDBRANCH  14  15
ENDBRANCH   9  14
ENDBRANCH   1   8
BRANCH   7  18
HETATM   18  N3  UNL     1      24.505   3.637  50.132  1.00  0.00    -0.340 N 
HETATM   19  H16 UNL     1      23.611   3.834  49.619  1.00  0.00     0.167 HD
BRANCH  18  20
HETATM   20  C12 UNL     1      25.440   4.681  49.765  1.00  0.00     0.036 A 
HETATM   21  C13 UNL     1      26.523   4.331  48.967  1.00  0.00     0.029 A 
HETATM   22  C14 UNL     1      27.432   5.282  48.543  1.00  0.00     0.005 A 
HETATM   23  C15 UNL     1      27.239   6.607  48.933  1.00  0.00     0.037 A 
HETATM   24  C16 UNL     1      26.156   6.930  49.724  1.00  0.00     0.070 A 
HETATM   25  C18 UNL     1      25.238   5.982  50.158  1.00  0.00     0.066 A 
BRANCH  24  26
HETATM   26  O5  UNL     1      26.033   8.251  50.062  1.00  0.00    -0.356 OA
HETATM   27  C17 UNL     1      27.030   9.224  50.067  1.00  0.00     0.210 C 
ENDBRANCH  24  26
ENDBRANCH  18  20
ENDBRANCH   7  18
TORSDOF 7
ENDMDL
MODEL 9
REMARK VINA RESULT:      -6.2      2.669      7.835
REMARK  7 active torsions:
REMARK  status: ('A' for Active; 'I' for Inactive)
REMARK    1  A    between atoms: O1_2  and  C2_3 
REMARK    2  A    between atoms: C2_3  and  O2_4 
REMARK    3  A    between atoms: O2_4  and  C3_5 
REMARK    4  A    between atoms: C6_10  and  C7_11 
REMARK    5  A    between atoms: C11_17  and  N3_18 
REMARK    6  A    between atoms: N3_18  and  C12_19 
REMARK    7  A    between atoms: C16_23  and  O5_24 
ROOT
HETATM    1  C7  UNL     1      25.033   5.415  50.131  1.00  0.00     0.046 A 
HETATM    2  C8  UNL     1      25.882   6.410  49.679  1.00  0.00     0.044 A 
HETATM    3  C9  UNL     1      25.594   7.852  49.899  1.00  0.00     0.071 C 
HETATM    4  N1  UNL     1      27.019   6.181  49.006  1.00  0.00    -0.246 NA
HETATM    5  C10 UNL     1      27.374   4.926  48.743  1.00  0.00     0.235 A 
HETATM    6  N2  UNL     1      26.622   3.899  49.134  1.00  0.00    -0.224 NA
HETATM    7  C11 UNL     1      25.476   4.150  49.814  1.00  0.00     0.140 A 
ENDROOT
BRANCH   1   8
HETATM    8  C6  UNL     1      23.805   5.706  50.878  1.00  0.00     0.215 C 
HETATM    9  C3  UNL     1      22.617   5.468  49.977  1.00  0.00     0.295 C 
HETATM   10  O3  UNL     1      22.176   4.170  50.170  1.00  0.00    -0.356 OA
HETATM   11  C4  UNL     1      21.588   4.071  51.412  1.00  0.00     0.197 C 
HETATM   12  C5  UNL     1      22.455   4.723  52.459  1.00  0.00     0.195 C 
HETATM   13  O4  UNL     1      23.764   4.899  52.009  1.00  0.00    -0.374 OA
BRANCH   9  14
HETATM   14  O2  UNL     1      21.563   6.326  50.258  1.00  0.00    -0.334 OA
BRANCH  14  15
HETATM   15  C2  UNL     1      21.854   7.656  50.323  1.00  0.00     0.340 C 
BRANCH  15  16
HETATM   16  O1  UNL     1      20.648   8.374  50.137  1.00  0.00    -0.372 OA
HETATM   17  C1  UNL     1      19.721   7.551  49.503  1.00  0.00     0.204 C 
ENDBRANCH  15  16
ENDBRANCH  14  15
ENDBRANCH   9  14
ENDBRANCH   1   8
BRANCH   7  18
HETATM   18  N3  UNL     1      24.774   2.946  50.210  1.00  0.00    -0.340 N 
HETATM   19  H16 UNL     1      23.948   2.353  49.951  1.00  0.00     0.167 HD
BRANCH  18  20
HETATM   20  C12 UNL     1      25.396   2.326  51.361  1.00  0.00     0.036 A 
HETATM   21  C13 UNL     1      24.595   1.551  52.192  1.00  0.00     0.029 A 
HETATM   22  C14 UNL     1      25.127   0.893  53.285  1.00  0.00     0.005 A 
HETATM   23  C15 UNL     1      26.493   1.024  53.538  1.00  0.00     0.037 A 
HETATM   24  C16 UNL     1      27.268   1.797  52.698  1.00  0.00     0.070 A 
HETATM   25  C18 UNL     1      26.742   2.463  51.599  1.00  0.00     0.066 A 
BRANCH  24  26
HETATM   26  O5  UNL     1      28.599   1.872  53.010  1.00  0.00    -0.356 OA
HETATM   27  C17 UNL     1      29.252   1.294  54.096  1.00  0.00     0.210 C 
ENDBRANCH  24  26
ENDBRANCH  18  20
ENDBRANCH   7  18
TORSDOF 7
ENDMDL
