MODEL 1
REMARK VINA RESULT:      -6.5      0.000      0.000
REMARK  10 active torsions:
REMARK  status: ('A' for Active; 'I' for Inactive)
REMARK    1  A    between atoms: C2_2  and  N1_3 
REMARK    2  A    between atoms: N1_3  and  C4_5 
REMARK    3  A    between atoms: C4_5  and  C5_6 
REMARK    4  A    between atoms: C5_6  and  N2_7 
REMARK    5  A    between atoms: N2_7  and  C6_8 
REMARK    6  A    between atoms: C6_8  and  C7_9 
REMARK    7  A    between atoms: C7_9  and  C8_10 
REMARK    8  A    between atoms: C8_10  and  C9_11 
REMARK    9  A    between atoms: C14_18  and  C15_19 
REMARK   10  A    between atoms: C15_19  and  O1_20 
ROOT
HETATM    1  C9  UNL     1      24.717   0.819  52.390  1.00  0.00    -0.046 C 
HETATM    2  C10 UNL     1      24.672   0.025  53.530  1.00  0.00     0.035 C 
HETATM    3  C11 UNL     1      26.004  -0.398  53.997  1.00  0.00     0.042 C 
HETATM    4  N3  UNL     1      26.837  -0.355  55.034  1.00  0.00    -0.246 NA
HETATM    5  C12 UNL     1      28.121   0.404  54.626  1.00  0.00     0.233 C 
HETATM    6  N4  UNL     1      28.271   0.921  53.319  1.00  0.00    -0.246 NA
HETATM    7  C13 UNL     1      27.063   0.620  52.556  1.00  0.00     0.050 C 
HETATM    8  C14 UNL     1      26.067   1.136  51.882  1.00  0.00    -0.003 C 
HETATM    9  C16 UNL     1      26.855  -0.929  52.816  1.00  0.00     0.119 C 
ENDROOT
BRANCH   1  10
HETATM   10  C8  UNL     1      23.509   1.345  51.785  1.00  0.00     0.041 C 
BRANCH  10  11
HETATM   11  C7  UNL     1      23.138   2.645  52.427  1.00  0.00     0.034 C 
BRANCH  11  12
HETATM   12  C6  UNL     1      23.187   3.789  51.443  1.00  0.00     0.270 C 
BRANCH  12  13
HETATM   13  N2  UNL     1      24.312   4.644  51.778  1.00  0.00     0.085 N 
HETATM   14  H11 UNL     1      24.274   4.938  52.783  1.00  0.00     0.315 HD
BRANCH  13  15
HETATM   15  C5  UNL     1      24.246   5.763  50.878  1.00  0.00     0.289 C 
BRANCH  15  16
HETATM   16  C4  UNL     1      24.776   5.394  49.522  1.00  0.00     0.151 C 
BRANCH  16  17
HETATM   17  N1  UNL     1      25.960   6.267  49.347  1.00  0.00    -0.393 N 
HETATM   18  C3  UNL     1      25.931   7.456  50.182  1.00  0.00     0.148 C 
BRANCH  17  19
HETATM   19  C2  UNL     1      27.091   6.094  48.510  1.00  0.00     0.075 C 
HETATM   20  C1  UNL     1      27.947   5.070  48.539  1.00  0.00     0.029 C 
ENDBRANCH  17  19
ENDBRANCH  16  17
ENDBRANCH  15  16
ENDBRANCH  13  15
ENDBRANCH  12  13
ENDBRANCH  11  12
ENDBRANCH  10  11
ENDBRANCH   1  10
BRANCH   8  21
HETATM   21  C15 UNL     1      26.540   2.081  50.909  1.00  0.00     0.205 C 
BRANCH  21  22
HETATM   22  O1  UNL     1      27.160   3.198  51.432  1.00  0.00    -0.396 OA
HETATM   23  H22 UNL     1      28.086   3.266  51.139  1.00  0.00     0.209 HD
ENDBRANCH  21  22
ENDBRANCH   8  21
TORSDOF 10
ENDMDL
MODEL 2
REMARK VINA RESULT:      -6.3      2.774      5.236
REMARK  10 active torsions:
REMARK  status: ('A' for Active; 'I' for Inactive)
REMARK    1  A    between atoms: C2_2  and  N1_3 
REMARK    2  A    between atoms: N1_3  and  C4_5 
REMARK    3  A    between atoms: C4_5  and  C5_6 
REMARK    4  A    between atoms: C5_6  and  N2_7 
REMARK    5  A    between atoms: N2_7  and  C6_8 
REMARK    6  A    between atoms: C6_8  and  C7_9 
REMARK    7  A    between atoms: C7_9  and  C8_10 
REMARK    8  A    between atoms: C8_10  and  C9_11 
REMARK    9  A    between atoms: C14_18  and  C15_19 
REMARK   10  A    between atoms: C15_19  and  O1_20 
ROOT
HETATM    1  C9  UNL     1      24.852   0.716  52.487  1.00  0.00    -0.046 C 
HETATM    2  C10 UNL     1      24.890  -0.137  53.584  1.00  0.00     0.035 C 
HETATM    3  C11 UNL     1      26.260  -0.495  53.995  1.00  0.00     0.042 C 
HETATM    4  N3  UNL     1      27.117  -0.450  55.011  1.00  0.00    -0.246 NA
HETATM    5  C12 UNL     1      28.338   0.412  54.613  1.00  0.00     0.233 C 
HETATM    6  N4  UNL     1      28.417   1.004  53.331  1.00  0.00    -0.246 NA
HETATM    7  C13 UNL     1      27.210   0.664  52.584  1.00  0.00     0.050 C 
HETATM    8  C14 UNL     1      26.164   1.147  51.963  1.00  0.00    -0.003 C 
HETATM    9  C16 UNL     1      27.109  -0.907  52.766  1.00  0.00     0.119 C 
ENDROOT
BRANCH   1  10
HETATM   10  C8  UNL     1      23.596   1.192  51.942  1.00  0.00     0.041 C 
BRANCH  10  11
HETATM   11  C7  UNL     1      23.161   2.430  52.662  1.00  0.00     0.034 C 
BRANCH  11  12
HETATM   12  C6  UNL     1      21.908   3.017  52.057  1.00  0.00     0.270 C 
BRANCH  12  13
HETATM   13  N2  UNL     1      21.264   2.002  51.242  1.00  0.00     0.085 N 
HETATM   14  H11 UNL     1      21.191   2.313  50.244  1.00  0.00     0.315 HD
BRANCH  13  15
HETATM   15  C5  UNL     1      19.977   1.767  51.838  1.00  0.00     0.289 C 
BRANCH  15  16
HETATM   16  C4  UNL     1      19.542   0.346  51.630  1.00  0.00     0.151 C 
BRANCH  16  17
HETATM   17  N1  UNL     1      19.518  -0.229  52.996  1.00  0.00    -0.393 N 
HETATM   18  C3  UNL     1      18.389  -1.115  53.231  1.00  0.00     0.148 C 
BRANCH  17  19
HETATM   19  C2  UNL     1      20.429  -0.048  54.067  1.00  0.00     0.075 C 
HETATM   20  C1  UNL     1      21.383  -0.901  54.445  1.00  0.00     0.029 C 
ENDBRANCH  17  19
ENDBRANCH  16  17
ENDBRANCH  15  16
ENDBRANCH  13  15
ENDBRANCH  12  13
ENDBRANCH  11  12
ENDBRANCH  10  11
ENDBRANCH   1  10
BRANCH   8  21
HETATM   21  C15 UNL     1      26.547   2.170  51.031  1.00  0.00     0.205 C 
BRANCH  21  22
HETATM   22  O1  UNL     1      27.445   3.099  51.518  1.00  0.00    -0.396 OA
HETATM   23  H22 UNL     1      27.683   3.759  50.842  1.00  0.00     0.209 HD
ENDBRANCH  21  22
ENDBRANCH   8  21
TORSDOF 10
ENDMDL
MODEL 3
REMARK VINA RESULT:      -6.2      3.075      4.783
REMARK  10 active torsions:
REMARK  status: ('A' for Active; 'I' for Inactive)
REMARK    1  A    between atoms: C2_2  and  N1_3 
REMARK    2  A    between atoms: N1_3  and  C4_5 
REMARK    3  A    between atoms: C4_5  and  C5_6 
REMARK    4  A    between atoms: C5_6  and  N2_7 
REMARK    5  A    between atoms: N2_7  and  C6_8 
REMARK    6  A    between atoms: C6_8  and  C7_9 
REMARK    7  A    between atoms: C7_9  and  C8_10 
REMARK    8  A    between atoms: C8_10  and  C9_11 
REMARK    9  A    between atoms: C14_18  and  C15_19 
REMARK   10  A    between atoms: C15_19  and  O1_20 
ROOT
HETATM    1  C9  UNL     1      25.167   0.501  53.331  1.00  0.00    -0.046 C 
HETATM    2  C10 UNL     1      25.759  -0.345  54.262  1.00  0.00     0.035 C 
HETATM    3  C11 UNL     1      27.231  -0.315  54.223  1.00  0.00     0.042 C 
HETATM    4  N3  UNL     1      28.315  -0.065  54.953  1.00  0.00    -0.246 NA
HETATM    5  C12 UNL     1      29.089   1.121  54.332  1.00  0.00     0.233 C 
HETATM    6  N4  UNL     1      28.617   1.757  53.160  1.00  0.00    -0.246 NA
HETATM    7  C13 UNL     1      27.371   1.116  52.750  1.00  0.00     0.050 C 
HETATM    8  C14 UNL     1      26.098   1.305  52.513  1.00  0.00    -0.003 C 
HETATM    9  C16 UNL     1      27.742  -0.425  52.764  1.00  0.00     0.119 C 
ENDROOT
BRANCH   1  10
HETATM   10  C8  UNL     1      23.726   0.621  53.224  1.00  0.00     0.041 C 
BRANCH  10  11
HETATM   11  C7  UNL     1      23.081  -0.706  53.481  1.00  0.00     0.034 C 
BRANCH  11  12
HETATM   12  C6  UNL     1      22.160  -0.657  54.676  1.00  0.00     0.270 C 
BRANCH  12  13
HETATM   13  N2  UNL     1      20.840  -1.104  54.265  1.00  0.00     0.085 N 
HETATM   14  H11 UNL     1      20.906  -1.799  53.484  1.00  0.00     0.315 HD
BRANCH  13  15
HETATM   15  C5  UNL     1      20.117   0.079  53.886  1.00  0.00     0.289 C 
BRANCH  15  16
HETATM   16  C4  UNL     1      19.565  -0.052  52.496  1.00  0.00     0.151 C 
BRANCH  16  17
HETATM   17  N1  UNL     1      20.369   0.902  51.696  1.00  0.00    -0.393 N 
HETATM   18  C3  UNL     1      20.443   2.230  52.283  1.00  0.00     0.148 C 
BRANCH  17  19
HETATM   19  C2  UNL     1      21.067   0.694  50.480  1.00  0.00     0.075 C 
HETATM   20  C1  UNL     1      22.093   1.416  50.024  1.00  0.00     0.029 C 
ENDBRANCH  17  19
ENDBRANCH  16  17
ENDBRANCH  15  16
ENDBRANCH  13  15
ENDBRANCH  12  13
ENDBRANCH  11  12
ENDBRANCH  10  11
ENDBRANCH   1  10
BRANCH   8  21
HETATM   21  C15 UNL     1      25.899   2.427  51.639  1.00  0.00     0.205 C 
BRANCH  21  22
HETATM   22  O1  UNL     1      27.052   3.090  51.268  1.00  0.00    -0.396 OA
HETATM   23  H22 UNL     1      26.876   4.024  51.051  1.00  0.00     0.209 HD
ENDBRANCH  21  22
ENDBRANCH   8  21
TORSDOF 10
ENDMDL
MODEL 4
REMARK VINA RESULT:      -6.1      1.708      2.249
REMARK  10 active torsions:
REMARK  status: ('A' for Active; 'I' for Inactive)
REMARK    1  A    between atoms: C2_2  and  N1_3 
REMARK    2  A    between atoms: N1_3  and  C4_5 
REMARK    3  A    between atoms: C4_5  and  C5_6 
REMARK    4  A    between atoms: C5_6  and  N2_7 
REMARK    5  A    between atoms: N2_7  and  C6_8 
REMARK    6  A    between atoms: C6_8  and  C7_9 
REMARK    7  A    between atoms: C7_9  and  C8_10 
REMARK    8  A    between atoms: C8_10  and  C9_11 
REMARK    9  A    between atoms: C14_18  and  C15_19 
REMARK   10  A    between atoms: C15_19  and  O1_20 
ROOT
HETATM    1  C9  UNL     1      24.563   1.019  52.197  1.00  0.00    -0.046 C 
HETATM    2  C10 UNL     1      24.326   0.177  53.277  1.00  0.00     0.035 C 
HETATM    3  C11 UNL     1      25.557  -0.403  53.844  1.00  0.00     0.042 C 
HETATM    4  N3  UNL     1      26.280  -0.497  54.957  1.00  0.00    -0.246 NA
HETATM    5  C12 UNL     1      27.666   0.147  54.721  1.00  0.00     0.233 C 
HETATM    6  N4  UNL     1      27.998   0.712  53.468  1.00  0.00    -0.246 NA
HETATM    7  C13 UNL     1      26.850   0.575  52.576  1.00  0.00     0.050 C 
HETATM    8  C14 UNL     1      25.982   1.223  51.842  1.00  0.00    -0.003 C 
HETATM    9  C16 UNL     1      26.468  -0.957  52.720  1.00  0.00     0.119 C 
ENDROOT
BRANCH   1  10
HETATM   10  C8  UNL     1      23.479   1.695  51.512  1.00  0.00     0.041 C 
BRANCH  10  11
HETATM   11  C7  UNL     1      22.830   2.684  52.430  1.00  0.00     0.034 C 
BRANCH  11  12
HETATM   12  C6  UNL     1      23.723   3.873  52.693  1.00  0.00     0.270 C 
BRANCH  12  13
HETATM   13  N2  UNL     1      22.914   5.078  52.667  1.00  0.00     0.085 N 
HETATM   14  H11 UNL     1      22.712   5.415  53.639  1.00  0.00     0.315 HD
BRANCH  13  15
HETATM   15  C5  UNL     1      21.717   4.741  51.945  1.00  0.00     0.289 C 
BRANCH  15  16
HETATM   16  C4  UNL     1      21.481   5.706  50.820  1.00  0.00     0.151 C 
BRANCH  16  17
HETATM   17  N1  UNL     1      22.116   5.058  49.648  1.00  0.00    -0.393 N 
HETATM   18  C3  UNL     1      21.309   3.997  49.067  1.00  0.00     0.148 C 
BRANCH  17  19
HETATM   19  C2  UNL     1      23.360   5.336  49.028  1.00  0.00     0.075 C 
HETATM   20  C1  UNL     1      24.484   4.628  49.157  1.00  0.00     0.029 C 
ENDBRANCH  17  19
ENDBRANCH  16  17
ENDBRANCH  15  16
ENDBRANCH  13  15
ENDBRANCH  12  13
ENDBRANCH  11  12
ENDBRANCH  10  11
ENDBRANCH   1  10
BRANCH   8  21
HETATM   21  C15 UNL     1      26.640   2.162  50.978  1.00  0.00     0.205 C 
BRANCH  21  22
HETATM   22  O1  UNL     1      27.476   3.057  51.615  1.00  0.00    -0.396 OA
HETATM   23  H22 UNL     1      27.806   3.740  51.005  1.00  0.00     0.209 HD
ENDBRANCH  21  22
ENDBRANCH   8  21
TORSDOF 10
ENDMDL
MODEL 5
REMARK VINA RESULT:      -6.0      2.444      3.270
REMARK  10 active torsions:
REMARK  status: ('A' for Active; 'I' for Inactive)
REMARK    1  A    between atoms: C2_2  and  N1_3 
REMARK    2  A    between atoms: N1_3  and  C4_5 
REMARK    3  A    between atoms: C4_5  and  C5_6 
REMARK    4  A    between atoms: C5_6  and  N2_7 
REMARK    5  A    between atoms: N2_7  and  C6_8 
REMARK    6  A    between atoms: C6_8  and  C7_9 
REMARK    7  A    between atoms: C7_9  and  C8_10 
REMARK    8  A    between atoms: C8_10  and  C9_11 
REMARK    9  A    between atoms: C14_18  and  C15_19 
REMARK   10  A    between atoms: C15_19  and  O1_20 
ROOT
HETATM    1  C9  UNL     1      24.590   0.908  52.401  1.00  0.00    -0.046 C 
HETATM    2  C10 UNL     1      24.549  -0.011  53.443  1.00  0.00     0.035 C 
HETATM    3  C11 UNL     1      25.881  -0.494  53.845  1.00  0.00     0.042 C 
HETATM    4  N3  UNL     1      26.724  -0.576  54.872  1.00  0.00    -0.246 NA
HETATM    5  C12 UNL     1      28.011   0.216  54.541  1.00  0.00     0.233 C 
HETATM    6  N4  UNL     1      28.154   0.878  53.300  1.00  0.00    -0.246 NA
HETATM    7  C13 UNL     1      26.936   0.675  52.520  1.00  0.00     0.050 C 
HETATM    8  C14 UNL     1      25.939   1.272  51.919  1.00  0.00    -0.003 C 
HETATM    9  C16 UNL     1      26.717  -0.893  52.603  1.00  0.00     0.119 C 
ENDROOT
BRANCH   1  10
HETATM   10  C8  UNL     1      23.382   1.509  51.872  1.00  0.00     0.041 C 
BRANCH  10  11
HETATM   11  C7  UNL     1      22.178   0.793  52.403  1.00  0.00     0.034 C 
BRANCH  11  12
HETATM   12  C6  UNL     1      21.009   1.730  52.590  1.00  0.00     0.270 C 
BRANCH  12  13
HETATM   13  N2  UNL     1      21.448   3.085  52.310  1.00  0.00     0.085 N 
HETATM   14  H11 UNL     1      21.569   3.631  53.196  1.00  0.00     0.315 HD
BRANCH  13  15
HETATM   15  C5  UNL     1      20.451   3.658  51.446  1.00  0.00     0.289 C 
BRANCH  15  16
HETATM   16  C4  UNL     1      21.088   4.472  50.357  1.00  0.00     0.151 C 
BRANCH  16  17
HETATM   17  N1  UNL     1      21.545   3.463  49.372  1.00  0.00    -0.393 N 
HETATM   18  C3  UNL     1      22.885   3.714  48.867  1.00  0.00     0.148 C 
BRANCH  17  19
HETATM   19  C2  UNL     1      20.876   2.313  48.884  1.00  0.00     0.075 C 
HETATM   20  C1  UNL     1      21.403   1.096  48.732  1.00  0.00     0.029 C 
ENDBRANCH  17  19
ENDBRANCH  16  17
ENDBRANCH  15  16
ENDBRANCH  13  15
ENDBRANCH  12  13
ENDBRANCH  11  12
ENDBRANCH  10  11
ENDBRANCH   1  10
BRANCH   8  21
HETATM   21  C15 UNL     1      26.411   2.318  51.056  1.00  0.00     0.205 C 
BRANCH  21  22
HETATM   22  O1  UNL     1      27.471   3.050  51.551  1.00  0.00    -0.396 OA
HETATM   23  H22 UNL     1      28.044   2.512  52.126  1.00  0.00     0.209 HD
ENDBRANCH  21  22
ENDBRANCH   8  21
TORSDOF 10
ENDMDL
MODEL 6
REMARK VINA RESULT:      -5.7      3.519      6.526
REMARK  10 active torsions:
REMARK  status: ('A' for Active; 'I' for Inactive)
REMARK    1  A    between atoms: C2_2  and  N1_3 
REMARK    2  A    between atoms: N1_3  and  C4_5 
REMARK    3  A    between atoms: C4_5  and  C5_6 
REMARK    4  A    between atoms: C5_6  and  N2_7 
REMARK    5  A    between atoms: N2_7  and  C6_8 
REMARK    6  A    between atoms: C6_8  and  C7_9 
REMARK    7  A    between atoms: C7_9  and  C8_10 
REMARK    8  A    between atoms: C8_10  and  C9_11 
REMARK    9  A    between atoms: C14_18  and  C15_19 
REMARK   10  A    between atoms: C15_19  and  O1_20 
ROOT
HETATM    1  C9  UNL     1      23.482   1.473  51.608  1.00  0.00    -0.046 C 
HETATM    2  C10 UNL     1      22.822   2.338  50.744  1.00  0.00     0.035 C 
HETATM    3  C11 UNL     1      21.385   2.040  50.608  1.00  0.00     0.042 C 
HETATM    4  N3  UNL     1      20.167   2.552  50.767  1.00  0.00    -0.246 NA
HETATM    5  C12 UNL     1      19.402   1.730  51.831  1.00  0.00     0.233 C 
HETATM    6  N4  UNL     1      20.011   0.620  52.462  1.00  0.00    -0.246 NA
HETATM    7  C13 UNL     1      21.369   0.476  51.946  1.00  0.00     0.050 C 
HETATM    8  C14 UNL     1      22.638   0.454  52.265  1.00  0.00    -0.003 C 
HETATM    9  C16 UNL     1      21.160   0.525  50.376  1.00  0.00     0.119 C 
ENDROOT
BRANCH   1  10
HETATM   10  C8  UNL     1      24.899   1.611  51.883  1.00  0.00     0.041 C 
BRANCH  10  11
HETATM   11  C7  UNL     1      25.106   2.504  53.067  1.00  0.00     0.034 C 
BRANCH  11  12
HETATM   12  C6  UNL     1      26.131   1.938  54.021  1.00  0.00     0.270 C 
BRANCH  12  13
HETATM   13  N2  UNL     1      27.346   2.728  53.921  1.00  0.00     0.085 N 
HETATM   14  H11 UNL     1      27.243   3.485  53.204  1.00  0.00     0.315 HD
BRANCH  13  15
HETATM   15  C5  UNL     1      28.398   1.804  53.594  1.00  0.00     0.289 C 
BRANCH  15  16
HETATM   16  C4  UNL     1      28.364   0.609  54.503  1.00  0.00     0.151 C 
BRANCH  16  17
HETATM   17  N1  UNL     1      28.597  -0.541  53.599  1.00  0.00    -0.393 N 
HETATM   18  C3  UNL     1      29.930  -1.109  53.719  1.00  0.00     0.148 C 
BRANCH  17  19
HETATM   19  C2  UNL     1      27.717  -1.152  52.672  1.00  0.00     0.075 C 
HETATM   20  C1  UNL     1      26.464  -1.547  52.913  1.00  0.00     0.029 C 
ENDBRANCH  17  19
ENDBRANCH  16  17
ENDBRANCH  15  16
ENDBRANCH  13  15
ENDBRANCH  12  13
ENDBRANCH  11  12
ENDBRANCH  10  11
ENDBRANCH   1  10
BRANCH   8  21
HETATM   21  C15 UNL     1      22.876  -0.442  53.362  1.00  0.00     0.205 C 
BRANCH  21  22
HETATM   22  O1  UNL     1      22.049  -0.264  54.453  1.00  0.00    -0.396 OA
HETATM   23  H22 UNL     1      22.373  -0.748  55.233  1.00  0.00     0.209 HD
ENDBRANCH  21  22
ENDBRANCH   8  21
TORSDOF 10
ENDMDL
MODEL 7
REMARK VINA RESULT:      -5.7      1.957      2.613
REMARK  10 active torsions:
REMARK  status: ('A' for Active; 'I' for Inactive)
REMARK    1  A    between atoms: C2_2  and  N1_3 
REMARK    2  A    between atoms: N1_3  and  C4_5 
REMARK    3  A    between atoms: C4_5  and  C5_6 
REMARK    4  A    between atoms: C5_6  and  N2_7 
REMARK    5  A    between atoms: N2_7  and  C6_8 
REMARK    6  A    between atoms: C6_8  and  C7_9 
REMARK    7  A    between atoms: C7_9  and  C8_10 
REMARK    8  A    between atoms: C8_10  and  C9_11 
REMARK    9  A    between atoms: C14_18  and  C15_19 
REMARK   10  A    between atoms: C15_19  and  O1_20 
ROOT
HETATM    1  C9  UNL     1      26.056   0.492  53.151  1.00  0.00    -0.046 C 
HETATM    2  C10 UNL     1      26.719   1.591  53.682  1.00  0.00     0.035 C 
HETATM    3  C11 UNL     1      28.075   1.275  54.165  1.00  0.00     0.042 C 
HETATM    4  N3  UNL     1      29.362   1.580  54.015  1.00  0.00    -0.246 NA
HETATM    5  C12 UNL     1      30.129   0.331  53.524  1.00  0.00     0.233 C 
HETATM    6  N4  UNL     1      29.456  -0.894  53.309  1.00  0.00    -0.246 NA
HETATM    7  C13 UNL     1      28.039  -0.706  53.605  1.00  0.00     0.050 C 
HETATM    8  C14 UNL     1      26.826  -0.768  53.117  1.00  0.00    -0.003 C 
HETATM    9  C16 UNL     1      28.062  -0.011  55.030  1.00  0.00     0.119 C 
ENDROOT
BRANCH   1  10
HETATM   10  C8  UNL     1      24.714   0.604  52.612  1.00  0.00     0.041 C 
BRANCH  10  11
HETATM   11  C7  UNL     1      24.636   1.765  51.670  1.00  0.00     0.034 C 
BRANCH  11  12
HETATM   12  C6  UNL     1      23.557   2.742  52.076  1.00  0.00     0.270 C 
BRANCH  12  13
HETATM   13  N2  UNL     1      24.182   3.886  52.714  1.00  0.00     0.085 N 
HETATM   14  H11 UNL     1      24.161   3.792  53.758  1.00  0.00     0.315 HD
BRANCH  13  15
HETATM   15  C5  UNL     1      23.463   5.043  52.254  1.00  0.00     0.289 C 
BRANCH  15  16
HETATM   16  C4  UNL     1      23.179   4.948  50.783  1.00  0.00     0.151 C 
BRANCH  16  17
HETATM   17  N1  UNL     1      24.422   5.437  50.142  1.00  0.00    -0.393 N 
HETATM   18  C3  UNL     1      24.832   6.753  50.605  1.00  0.00     0.148 C 
BRANCH  17  19
HETATM   19  C2  UNL     1      25.248   4.806  49.178  1.00  0.00     0.075 C 
HETATM   20  C1  UNL     1      26.581   4.742  49.200  1.00  0.00     0.029 C 
ENDBRANCH  17  19
ENDBRANCH  16  17
ENDBRANCH  15  16
ENDBRANCH  13  15
ENDBRANCH  12  13
ENDBRANCH  11  12
ENDBRANCH  10  11
ENDBRANCH   1  10
BRANCH   8  21
HETATM   21  C15 UNL     1      26.602  -2.025  52.460  1.00  0.00     0.205 C 
BRANCH  21  22
HETATM   22  O1  UNL     1      27.587  -2.972  52.655  1.00  0.00    -0.396 OA
HETATM   23  H22 UNL     1      27.915  -3.331  51.811  1.00  0.00     0.209 HD
ENDBRANCH  21  22
ENDBRANCH   8  21
TORSDOF 10
ENDMDL
MODEL 8
REMARK VINA RESULT:      -5.7      3.146      8.024
REMARK  10 active torsions:
REMARK  status: ('A' for Active; 'I' for Inactive)
REMARK    1  A    between atoms: C2_2  and  N1_3 
REMARK    2  A    between atoms: N1_3  and  C4_5 
REMARK    3  A    between atoms: C4_5  and  C5_6 
REMARK    4  A    between atoms: C5_6  and  N2_7 
REMARK    5  A    between atoms: N2_7  and  C6_8 
REMARK    6  A    between atoms: C6_8  and  C7_9 
REMARK    7  A    between atoms: C7_9  and  C8_10 
REMARK    8  A    between atoms: C8_10  and  C9_11 
REMARK    9  A    between atoms: C14_18  and  C15_19 
REMARK   10  A    between atoms: C15_19  and  O1_20 
ROOT
HETATM    1  C9  UNL     1      27.756   7.027  48.521  1.00  0.00    -0.046 C 
HETATM    2  C10 UNL     1      28.882   6.563  47.852  1.00  0.00     0.035 C 
HETATM    3  C11 UNL     1      29.969   7.556  47.782  1.00  0.00     0.042 C 
HETATM    4  N3  UNL     1      31.240   7.775  48.110  1.00  0.00    -0.246 NA
HETATM    5  C12 UNL     1      31.316   8.967  49.092  1.00  0.00     0.233 C 
HETATM    6  N4  UNL     1      30.144   9.645  49.500  1.00  0.00    -0.246 NA
HETATM    7  C13 UNL     1      28.993   9.009  48.866  1.00  0.00     0.050 C 
HETATM    8  C14 UNL     1      27.859   8.391  49.080  1.00  0.00    -0.003 C 
HETATM    9  C16 UNL     1      29.421   8.937  47.341  1.00  0.00     0.119 C 
ENDROOT
BRANCH   1  10
HETATM   10  C8  UNL     1      26.585   6.192  48.705  1.00  0.00     0.041 C 
BRANCH  10  11
HETATM   11  C7  UNL     1      26.999   4.770  48.919  1.00  0.00     0.034 C 
BRANCH  11  12
HETATM   12  C6  UNL     1      26.115   4.076  49.928  1.00  0.00     0.270 C 
BRANCH  12  13
HETATM   13  N2  UNL     1      26.540   2.693  50.049  1.00  0.00     0.085 N 
HETATM   14  H11 UNL     1      25.945   2.064  49.459  1.00  0.00     0.315 HD
BRANCH  13  15
HETATM   15  C5  UNL     1      26.460   2.370  51.447  1.00  0.00     0.289 C 
BRANCH  15  16
HETATM   16  C4  UNL     1      25.140   1.738  51.777  1.00  0.00     0.151 C 
BRANCH  16  17
HETATM   17  N1  UNL     1      25.503   0.430  52.372  1.00  0.00    -0.393 N 
HETATM   18  C3  UNL     1      24.492  -0.096  53.273  1.00  0.00     0.148 C 
BRANCH  17  19
HETATM   19  C2  UNL     1      26.663  -0.360  52.172  1.00  0.00     0.075 C 
HETATM   20  C1  UNL     1      26.942  -1.521  52.769  1.00  0.00     0.029 C 
ENDBRANCH  17  19
ENDBRANCH  16  17
ENDBRANCH  15  16
ENDBRANCH  13  15
ENDBRANCH  12  13
ENDBRANCH  11  12
ENDBRANCH  10  11
ENDBRANCH   1  10
BRANCH   8  21
HETATM   21  C15 UNL     1      27.043   9.124  50.006  1.00  0.00     0.205 C 
BRANCH  21  22
HETATM   22  O1  UNL     1      27.661   9.457  51.195  1.00  0.00    -0.396 OA
HETATM   23  H22 UNL     1      27.201   9.070  51.961  1.00  0.00     0.209 HD
ENDBRANCH  21  22
ENDBRANCH   8  21
TORSDOF 10
ENDMDL
MODEL 9
REMARK VINA RESULT:      -5.6      2.096      7.393
REMARK  10 active torsions:
REMARK  status: ('A' for Active; 'I' for Inactive)
REMARK    1  A    between atoms: C2_2  and  N1_3 
REMARK    2  A    between atoms: N1_3  and  C4_5 
REMARK    3  A    between atoms: C4_5  and  C5_6 
REMARK    4  A    between atoms: C5_6  and  N2_7 
REMARK    5  A    between atoms: N2_7  and  C6_8 
REMARK    6  A    between atoms: C6_8  and  C7_9 
REMARK    7  A    between atoms: C7_9  and  C8_10 
REMARK    8  A    between atoms: C8_10  and  C9_11 
REMARK    9  A    between atoms: C14_18  and  C15_19 
REMARK   10  A    between atoms: C15_19  and  O1_20 
ROOT
HETATM    1  C9  UNL     1      26.088   5.943  49.158  1.00  0.00    -0.046 C 
HETATM    2  C10 UNL     1      27.297   6.168  48.511  1.00  0.00     0.035 C 
HETATM    3  C11 UNL     1      27.701   7.585  48.508  1.00  0.00     0.042 C 
HETATM    4  N3  UNL     1      28.663   8.424  48.884  1.00  0.00    -0.246 NA
HETATM    5  C12 UNL     1      28.090   9.435  49.904  1.00  0.00     0.233 C 
HETATM    6  N4  UNL     1      26.732   9.379  50.293  1.00  0.00    -0.246 NA
HETATM    7  C13 UNL     1      26.094   8.261  49.603  1.00  0.00     0.050 C 
HETATM    8  C14 UNL     1      25.452   7.132  49.761  1.00  0.00    -0.003 C 
HETATM    9  C16 UNL     1      26.514   8.491  48.092  1.00  0.00     0.119 C 
ENDROOT
BRANCH   1  10
HETATM   10  C8  UNL     1      25.528   4.611  49.278  1.00  0.00     0.041 C 
BRANCH  10  11
HETATM   11  C7  UNL     1      26.600   3.638  49.662  1.00  0.00     0.034 C 
BRANCH  11  12
HETATM   12  C6  UNL     1      26.184   2.785  50.837  1.00  0.00     0.270 C 
BRANCH  12  13
HETATM   13  N2  UNL     1      27.217   2.859  51.855  1.00  0.00     0.085 N 
HETATM   14  H11 UNL     1      28.167   2.937  51.420  1.00  0.00     0.315 HD
BRANCH  13  15
HETATM   15  C5  UNL     1      27.075   1.674  52.655  1.00  0.00     0.289 C 
BRANCH  15  16
HETATM   16  C4  UNL     1      26.052   1.874  53.735  1.00  0.00     0.151 C 
BRANCH  16  17
HETATM   17  N1  UNL     1      25.158   0.698  53.610  1.00  0.00    -0.393 N 
HETATM   18  C3  UNL     1      25.676  -0.492  54.264  1.00  0.00     0.148 C 
BRANCH  17  19
HETATM   19  C2  UNL     1      23.898   0.587  52.971  1.00  0.00     0.075 C 
HETATM   20  C1  UNL     1      23.122   1.598  52.573  1.00  0.00     0.029 C 
ENDBRANCH  17  19
ENDBRANCH  16  17
ENDBRANCH  15  16
ENDBRANCH  13  15
ENDBRANCH  12  13
ENDBRANCH  11  12
ENDBRANCH  10  11
ENDBRANCH   1  10
BRANCH   8  21
HETATM   21  C15 UNL     1      24.361   7.287  50.682  1.00  0.00     0.205 C 
BRANCH  21  22
HETATM   22  O1  UNL     1      24.637   6.914  51.983  1.00  0.00    -0.396 OA
HETATM   23  H22 UNL     1      24.126   6.129  52.249  1.00  0.00     0.209 HD
ENDBRANCH  21  22
ENDBRANCH   8  21
TORSDOF 10
ENDMDL
