MODEL 1
REMARK VINA RESULT:      -7.5      0.000      0.000
REMARK  0 active torsions:
REMARK  status: ('A' for Active; 'I' for Inactive)
ROOT
HETATM    1  C1  UNL     1      24.230   2.433  50.598  1.00  0.00     0.045 C 
HETATM    2  C2  UNL     1      23.165   2.038  51.599  1.00  0.00    -0.062 C 
HETATM    3  C3  UNL     1      23.009   1.128  52.516  1.00  0.00     0.049 C 
HETATM    4  C4  UNL     1      23.764   0.023  53.094  1.00  0.00    -0.021 C 
HETATM    5  C5  UNL     1      23.198  -0.702  54.055  1.00  0.00    -0.027 C 
HETATM    6  C6  UNL     1      21.773  -0.391  54.492  1.00  0.00     0.021 C 
HETATM    7  C7  UNL     1      20.591   0.304  54.362  1.00  0.00     0.143 C 
HETATM    8  N1  UNL     1      20.487   1.245  53.300  1.00  0.00    -0.349 N 
HETATM    9  C8  UNL     1      20.383   2.188  52.240  1.00  0.00     0.254 C 
HETATM   10  O1  UNL     1      20.439   3.277  52.830  1.00  0.00    -0.267 OA
HETATM   11  C9  UNL     1      20.246   2.712  50.907  1.00  0.00     0.048 C 
HETATM   12  S1  UNL     1      21.462   3.444  50.199  1.00  0.00    -0.104 SA
HETATM   13  C10 UNL     1      22.602   3.303  51.245  1.00  0.00    -0.018 C 
HETATM   14  C11 UNL     1      23.290   4.369  52.024  1.00  0.00     0.050 C 
HETATM   15  C12 UNL     1      24.026   5.371  51.177  1.00  0.00     0.033 C 
HETATM   16  C13 UNL     1      23.288   6.688  51.181  1.00  0.00    -0.019 C 
HETATM   17  C14 UNL     1      22.105   6.516  50.558  1.00  0.00     0.052 C 
HETATM   18  S2  UNL     1      21.025   5.401  49.723  1.00  0.00    -0.076 SA
HETATM   19  C15 UNL     1      21.669   2.523  48.719  1.00  0.00     0.155 C 
HETATM   20  N2  UNL     1      20.544   2.224  48.239  1.00  0.00    -0.295 NA
HETATM   21  C16 UNL     1      19.238   2.485  48.661  1.00  0.00     0.154 C 
HETATM   22  C17 UNL     1      19.019   2.617  50.150  1.00  0.00     0.073 C 
HETATM   23  H9  UNL     1      20.213   0.749  52.361  1.00  0.00     0.163 HD
ENDROOT
TORSDOF 0
ENDMDL
MODEL 2
REMARK VINA RESULT:      -7.5      1.721      2.325
REMARK  0 active torsions:
REMARK  status: ('A' for Active; 'I' for Inactive)
ROOT
HETATM    1  C1  UNL     1      25.570   3.554  49.723  1.00  0.00     0.045 C 
HETATM    2  C2  UNL     1      25.060   2.635  50.814  1.00  0.00    -0.062 C 
HETATM    3  C3  UNL     1      25.549   1.707  51.585  1.00  0.00     0.049 C 
HETATM    4  C4  UNL     1      26.833   1.068  51.840  1.00  0.00    -0.021 C 
HETATM    5  C5  UNL     1      26.895   0.103  52.754  1.00  0.00    -0.027 C 
HETATM    6  C6  UNL     1      25.626  -0.336  53.471  1.00  0.00     0.021 C 
HETATM    7  C7  UNL     1      24.262  -0.288  53.657  1.00  0.00     0.143 C 
HETATM    8  N1  UNL     1      23.503   0.551  52.795  1.00  0.00    -0.349 N 
HETATM    9  C8  UNL     1      22.743   1.389  51.933  1.00  0.00     0.254 C 
HETATM   10  O1  UNL     1      22.427   2.333  52.673  1.00  0.00    -0.267 OA
HETATM   11  C9  UNL     1      22.085   1.864  50.745  1.00  0.00     0.048 C 
HETATM   12  S1  UNL     1      22.636   3.132  49.969  1.00  0.00    -0.104 SA
HETATM   13  C10 UNL     1      23.918   3.493  50.769  1.00  0.00    -0.018 C 
HETATM   14  C11 UNL     1      24.199   4.708  51.582  1.00  0.00     0.050 C 
HETATM   15  C12 UNL     1      24.182   5.990  50.795  1.00  0.00     0.033 C 
HETATM   16  C13 UNL     1      22.947   6.788  51.136  1.00  0.00    -0.019 C 
HETATM   17  C14 UNL     1      21.867   6.106  50.703  1.00  0.00     0.052 C 
HETATM   18  S2  UNL     1      21.258   4.663  49.895  1.00  0.00    -0.076 SA
HETATM   19  C15 UNL     1      22.900   2.517  48.346  1.00  0.00     0.155 C 
HETATM   20  N2  UNL     1      21.961   1.743  48.022  1.00  0.00    -0.295 NA
HETATM   21  C16 UNL     1      20.813   1.319  48.696  1.00  0.00     0.154 C 
HETATM   22  C17 UNL     1      20.902   1.238  50.202  1.00  0.00     0.073 C 
HETATM   23  H9  UNL     1      23.281   0.042  51.848  1.00  0.00     0.163 HD
ENDROOT
TORSDOF 0
ENDMDL
MODEL 3
REMARK VINA RESULT:      -7.4      2.898      4.747
REMARK  0 active torsions:
REMARK  status: ('A' for Active; 'I' for Inactive)
ROOT
HETATM    1  C1  UNL     1      21.417   2.679  50.562  1.00  0.00     0.045 C 
HETATM    2  C2  UNL     1      22.923   2.667  50.718  1.00  0.00    -0.062 C 
HETATM    3  C3  UNL     1      23.805   2.005  51.409  1.00  0.00     0.049 C 
HETATM    4  C4  UNL     1      23.837   0.915  52.376  1.00  0.00    -0.021 C 
HETATM    5  C5  UNL     1      25.012   0.534  52.871  1.00  0.00    -0.027 C 
HETATM    6  C6  UNL     1      26.277   1.271  52.453  1.00  0.00     0.021 C 
HETATM    7  C7  UNL     1      26.921   2.289  51.785  1.00  0.00     0.143 C 
HETATM    8  N1  UNL     1      26.122   3.239  51.091  1.00  0.00    -0.349 N 
HETATM    9  C8  UNL     1      25.323   4.188  50.396  1.00  0.00     0.254 C 
HETATM   10  O1  UNL     1      25.512   3.892  49.207  1.00  0.00    -0.267 OA
HETATM   11  C9  UNL     1      24.428   5.291  50.167  1.00  0.00     0.048 C 
HETATM   12  S1  UNL     1      22.961   5.040  49.620  1.00  0.00    -0.104 SA
HETATM   13  C10 UNL     1      22.882   3.491  49.550  1.00  0.00    -0.018 C 
HETATM   14  C11 UNL     1      22.752   2.616  48.353  1.00  0.00     0.050 C 
HETATM   15  C12 UNL     1      21.490   2.837  47.565  1.00  0.00     0.033 C 
HETATM   16  C13 UNL     1      21.808   3.539  46.267  1.00  0.00    -0.019 C 
HETATM   17  C14 UNL     1      22.256   4.779  46.552  1.00  0.00     0.052 C 
HETATM   18  S2  UNL     1      22.636   5.959  47.805  1.00  0.00    -0.076 SA
HETATM   19  C15 UNL     1      21.951   5.800  50.839  1.00  0.00     0.155 C 
HETATM   20  N2  UNL     1      22.474   6.880  51.218  1.00  0.00    -0.295 NA
HETATM   21  C16 UNL     1      23.653   7.536  50.854  1.00  0.00     0.154 C 
HETATM   22  C17 UNL     1      24.803   6.666  50.404  1.00  0.00     0.073 C 
HETATM   23  H9  UNL     1      25.756   4.017  51.773  1.00  0.00     0.163 HD
ENDROOT
TORSDOF 0
ENDMDL
MODEL 4
REMARK VINA RESULT:      -6.9      6.890      9.062
REMARK  0 active torsions:
REMARK  status: ('A' for Active; 'I' for Inactive)
ROOT
HETATM    1  C1  UNL     1      29.231   7.875  46.984  1.00  0.00     0.045 C 
HETATM    2  C2  UNL     1      28.110   7.689  47.986  1.00  0.00    -0.062 C 
HETATM    3  C3  UNL     1      27.474   6.693  48.531  1.00  0.00     0.049 C 
HETATM    4  C4  UNL     1      27.501   5.236  48.502  1.00  0.00    -0.021 C 
HETATM    5  C5  UNL     1      26.621   4.567  49.242  1.00  0.00    -0.027 C 
HETATM    6  C6  UNL     1      25.588   5.332  50.058  1.00  0.00     0.021 C 
HETATM    7  C7  UNL     1      24.975   6.504  50.441  1.00  0.00     0.143 C 
HETATM    8  N1  UNL     1      25.411   7.713  49.832  1.00  0.00    -0.349 N 
HETATM    9  C8  UNL     1      25.847   8.923  49.223  1.00  0.00     0.254 C 
HETATM   10  O1  UNL     1      26.479   9.479  50.134  1.00  0.00    -0.267 OA
HETATM   11  C9  UNL     1      26.033   9.943  48.226  1.00  0.00     0.048 C 
HETATM   12  S1  UNL     1      27.459  10.189  47.579  1.00  0.00    -0.104 SA
HETATM   13  C10 UNL     1      28.328   9.080  48.233  1.00  0.00    -0.018 C 
HETATM   14  C11 UNL     1      29.475   9.225  49.171  1.00  0.00     0.050 C 
HETATM   15  C12 UNL     1      30.647   9.974  48.597  1.00  0.00     0.033 C 
HETATM   16  C13 UNL     1      30.743  11.342  49.226  1.00  0.00    -0.019 C 
HETATM   17  C14 UNL     1      29.662  12.059  48.854  1.00  0.00     0.052 C 
HETATM   18  S2  UNL     1      28.160  12.094  47.933  1.00  0.00    -0.076 SA
HETATM   19  C15 UNL     1      27.151   9.999  45.860  1.00  0.00     0.155 C 
HETATM   20  N2  UNL     1      26.050  10.530  45.561  1.00  0.00    -0.295 NA
HETATM   21  C16 UNL     1      25.090  11.204  46.320  1.00  0.00     0.154 C 
HETATM   22  C17 UNL     1      24.960  10.795  47.769  1.00  0.00     0.073 C 
HETATM   23  H9  UNL     1      24.923   7.862  48.860  1.00  0.00     0.163 HD
ENDROOT
TORSDOF 0
ENDMDL
MODEL 5
REMARK VINA RESULT:      -6.8      1.888      4.013
REMARK  0 active torsions:
REMARK  status: ('A' for Active; 'I' for Inactive)
ROOT
HETATM    1  C1  UNL     1      19.408   3.154  51.896  1.00  0.00     0.045 C 
HETATM    2  C2  UNL     1      20.638   2.286  52.054  1.00  0.00    -0.062 C 
HETATM    3  C3  UNL     1      21.055   1.363  52.872  1.00  0.00     0.049 C 
HETATM    4  C4  UNL     1      20.572   0.651  54.048  1.00  0.00    -0.021 C 
HETATM    5  C5  UNL     1      21.364  -0.256  54.615  1.00  0.00    -0.027 C 
HETATM    6  C6  UNL     1      22.760  -0.492  54.053  1.00  0.00     0.021 C 
HETATM    7  C7  UNL     1      23.783  -0.183  53.185  1.00  0.00     0.143 C 
HETATM    8  N1  UNL     1      23.598   0.918  52.303  1.00  0.00    -0.349 N 
HETATM    9  C8  UNL     1      23.413   2.018  51.420  1.00  0.00     0.254 C 
HETATM   10  O1  UNL     1      23.247   1.466  50.322  1.00  0.00    -0.267 OA
HETATM   11  C9  UNL     1      23.296   3.375  50.959  1.00  0.00     0.048 C 
HETATM   12  S1  UNL     1      21.898   3.947  50.476  1.00  0.00    -0.104 SA
HETATM   13  C10 UNL     1      20.934   2.758  50.737  1.00  0.00    -0.018 C 
HETATM   14  C11 UNL     1      20.177   1.936  49.754  1.00  0.00     0.050 C 
HETATM   15  C12 UNL     1      19.186   2.718  48.934  1.00  0.00     0.033 C 
HETATM   16  C13 UNL     1      19.687   2.859  47.517  1.00  0.00    -0.019 C 
HETATM   17  C14 UNL     1      20.798   3.624  47.533  1.00  0.00     0.052 C 
HETATM   18  S2  UNL     1      21.940   4.549  48.506  1.00  0.00    -0.076 SA
HETATM   19  C15 UNL     1      21.670   5.352  51.503  1.00  0.00     0.155 C 
HETATM   20  N2  UNL     1      22.762   5.962  51.645  1.00  0.00    -0.295 NA
HETATM   21  C16 UNL     1      24.047   5.723  51.152  1.00  0.00     0.154 C 
HETATM   22  C17 UNL     1      24.420   4.281  50.899  1.00  0.00     0.073 C 
HETATM   23  H9  UNL     1      23.835   1.866  52.802  1.00  0.00     0.163 HD
ENDROOT
TORSDOF 0
ENDMDL
MODEL 6
REMARK VINA RESULT:      -6.6      2.138      5.266
REMARK  0 active torsions:
REMARK  status: ('A' for Active; 'I' for Inactive)
ROOT
HETATM    1  C1  UNL     1      22.863   4.565  51.815  1.00  0.00     0.045 C 
HETATM    2  C2  UNL     1      22.552   4.098  50.409  1.00  0.00    -0.062 C 
HETATM    3  C3  UNL     1      22.579   4.601  49.208  1.00  0.00     0.049 C 
HETATM    4  C4  UNL     1      22.939   5.856  48.561  1.00  0.00    -0.021 C 
HETATM    5  C5  UNL     1      22.796   5.957  47.242  1.00  0.00    -0.027 C 
HETATM    6  C6  UNL     1      22.223   4.786  46.456  1.00  0.00     0.021 C 
HETATM    7  C7  UNL     1      21.653   3.534  46.391  1.00  0.00     0.143 C 
HETATM    8  N1  UNL     1      21.379   2.865  47.616  1.00  0.00    -0.349 N 
HETATM    9  C8  UNL     1      21.106   2.194  48.840  1.00  0.00     0.254 C 
HETATM   10  O1  UNL     1      21.973   1.308  48.871  1.00  0.00    -0.267 OA
HETATM   11  C9  UNL     1      20.466   1.863  50.085  1.00  0.00     0.048 C 
HETATM   12  S1  UNL     1      21.200   2.124  51.466  1.00  0.00    -0.104 SA
HETATM   13  C10 UNL     1      22.524   2.808  51.025  1.00  0.00    -0.018 C 
HETATM   14  C11 UNL     1      23.919   2.306  51.148  1.00  0.00     0.050 C 
HETATM   15  C12 UNL     1      24.368   2.079  52.566  1.00  0.00     0.033 C 
HETATM   16  C13 UNL     1      24.454   0.599  52.848  1.00  0.00    -0.019 C 
HETATM   17  C14 UNL     1      23.210   0.081  52.794  1.00  0.00     0.052 C 
HETATM   18  S2  UNL     1      21.494   0.388  52.536  1.00  0.00    -0.076 SA
HETATM   19  C15 UNL     1      20.066   3.149  52.329  1.00  0.00     0.155 C 
HETATM   20  N2  UNL     1      18.889   2.750  52.128  1.00  0.00    -0.295 NA
HETATM   21  C16 UNL     1      18.366   1.692  51.380  1.00  0.00     0.154 C 
HETATM   22  C17 UNL     1      19.148   1.275  50.156  1.00  0.00     0.073 C 
HETATM   23  H9  UNL     1      20.423   3.197  48.040  1.00  0.00     0.163 HD
ENDROOT
TORSDOF 0
ENDMDL
MODEL 7
REMARK VINA RESULT:      -6.6     11.258     13.295
REMARK  0 active torsions:
REMARK  status: ('A' for Active; 'I' for Inactive)
ROOT
HETATM    1  C1  UNL     1      32.104   7.050  44.326  1.00  0.00     0.045 C 
HETATM    2  C2  UNL     1      32.906   6.627  45.538  1.00  0.00    -0.062 C 
HETATM    3  C3  UNL     1      33.540   5.563  45.938  1.00  0.00     0.049 C 
HETATM    4  C4  UNL     1      33.846   4.227  45.442  1.00  0.00    -0.021 C 
HETATM    5  C5  UNL     1      34.551   3.405  46.216  1.00  0.00    -0.027 C 
HETATM    6  C6  UNL     1      34.976   3.861  47.605  1.00  0.00     0.021 C 
HETATM    7  C7  UNL     1      34.970   4.777  48.634  1.00  0.00     0.143 C 
HETATM    8  N1  UNL     1      34.190   5.956  48.470  1.00  0.00    -0.349 N 
HETATM    9  C8  UNL     1      33.412   7.135  48.306  1.00  0.00     0.254 C 
HETATM   10  O1  UNL     1      34.270   8.011  48.127  1.00  0.00    -0.267 OA
HETATM   11  C9  UNL     1      32.259   7.991  48.216  1.00  0.00     0.048 C 
HETATM   12  S1  UNL     1      31.836   8.633  46.830  1.00  0.00    -0.104 SA
HETATM   13  C10 UNL     1      32.868   8.023  45.841  1.00  0.00    -0.018 C 
HETATM   14  C11 UNL     1      33.937   8.711  45.066  1.00  0.00     0.050 C 
HETATM   15  C12 UNL     1      33.425   9.735  44.090  1.00  0.00     0.033 C 
HETATM   16  C13 UNL     1      33.736  11.125  44.592  1.00  0.00    -0.019 C 
HETATM   17  C14 UNL     1      33.026  11.340  45.718  1.00  0.00     0.052 C 
HETATM   18  S2  UNL     1      31.870  10.693  46.880  1.00  0.00    -0.076 SA
HETATM   19  C15 UNL     1      30.179   8.089  46.632  1.00  0.00     0.155 C 
HETATM   20  N2  UNL     1      29.577   8.136  47.736  1.00  0.00    -0.295 NA
HETATM   21  C16 UNL     1      29.981   8.526  49.015  1.00  0.00     0.154 C 
HETATM   22  C17 UNL     1      31.439   8.321  49.359  1.00  0.00     0.073 C 
HETATM   23  H9  UNL     1      33.139   5.771  48.727  1.00  0.00     0.163 HD
ENDROOT
TORSDOF 0
ENDMDL
MODEL 8
REMARK VINA RESULT:      -6.6      2.632      5.867
REMARK  0 active torsions:
REMARK  status: ('A' for Active; 'I' for Inactive)
ROOT
HETATM    1  C1  UNL     1      23.029   2.499  48.522  1.00  0.00     0.045 C 
HETATM    2  C2  UNL     1      22.940   3.804  49.282  1.00  0.00    -0.062 C 
HETATM    3  C3  UNL     1      23.093   5.071  49.024  1.00  0.00     0.049 C 
HETATM    4  C4  UNL     1      23.402   5.920  47.880  1.00  0.00    -0.021 C 
HETATM    5  C5  UNL     1      23.477   7.236  48.064  1.00  0.00    -0.027 C 
HETATM    6  C6  UNL     1      23.285   7.812  49.460  1.00  0.00     0.021 C 
HETATM    7  C7  UNL     1      23.101   7.663  50.817  1.00  0.00     0.143 C 
HETATM    8  N1  UNL     1      23.072   6.341  51.343  1.00  0.00    -0.349 N 
HETATM    9  C8  UNL     1      23.042   5.020  51.869  1.00  0.00     0.254 C 
HETATM   10  O1  UNL     1      21.843   4.857  52.141  1.00  0.00    -0.267 OA
HETATM   11  C9  UNL     1      23.502   3.729  52.304  1.00  0.00     0.048 C 
HETATM   12  S1  UNL     1      23.122   2.420  51.494  1.00  0.00    -0.104 SA
HETATM   13  C10 UNL     1      22.330   2.986  50.283  1.00  0.00    -0.018 C 
HETATM   14  C11 UNL     1      20.893   2.802  49.940  1.00  0.00     0.050 C 
HETATM   15  C12 UNL     1      20.501   1.372  49.683  1.00  0.00     0.033 C 
HETATM   16  C13 UNL     1      19.667   0.854  50.830  1.00  0.00    -0.019 C 
HETATM   17  C14 UNL     1      20.443   0.804  51.932  1.00  0.00     0.052 C 
HETATM   18  S2  UNL     1      22.038   1.085  52.629  1.00  0.00    -0.076 SA
HETATM   19  C15 UNL     1      24.687   1.719  51.118  1.00  0.00     0.155 C 
HETATM   20  N2  UNL     1      25.457   1.835  52.108  1.00  0.00    -0.295 NA
HETATM   21  C16 UNL     1      25.285   2.394  53.377  1.00  0.00     0.154 C 
HETATM   22  C17 UNL     1      24.312   3.544  53.486  1.00  0.00     0.073 C 
HETATM   23  H9  UNL     1      24.088   5.964  51.513  1.00  0.00     0.163 HD
ENDROOT
TORSDOF 0
ENDMDL
MODEL 9
REMARK VINA RESULT:      -6.5      2.083      4.133
REMARK  0 active torsions:
REMARK  status: ('A' for Active; 'I' for Inactive)
ROOT
HETATM    1  C1  UNL     1      21.524   0.617  49.745  1.00  0.00     0.045 C 
HETATM    2  C2  UNL     1      20.374   1.361  50.389  1.00  0.00    -0.062 C 
HETATM    3  C3  UNL     1      19.084   1.221  50.489  1.00  0.00     0.049 C 
HETATM    4  C4  UNL     1      18.055   0.278  50.067  1.00  0.00    -0.021 C 
HETATM    5  C5  UNL     1      16.788   0.532  50.386  1.00  0.00    -0.027 C 
HETATM    6  C6  UNL     1      16.443   1.811  51.136  1.00  0.00     0.021 C 
HETATM    7  C7  UNL     1      16.793   3.026  51.683  1.00  0.00     0.143 C 
HETATM    8  N1  UNL     1      18.142   3.457  51.539  1.00  0.00    -0.349 N 
HETATM    9  C8  UNL     1      19.489   3.887  51.396  1.00  0.00     0.254 C 
HETATM   10  O1  UNL     1      19.949   3.745  52.539  1.00  0.00    -0.267 OA
HETATM   11  C9  UNL     1      20.688   4.395  50.782  1.00  0.00     0.048 C 
HETATM   12  S1  UNL     1      21.940   3.449  50.552  1.00  0.00    -0.104 SA
HETATM   13  C10 UNL     1      21.424   2.071  51.050  1.00  0.00    -0.018 C 
HETATM   14  C11 UNL     1      21.882   1.270  52.217  1.00  0.00     0.050 C 
HETATM   15  C12 UNL     1      23.322   0.839  52.139  1.00  0.00     0.033 C 
HETATM   16  C13 UNL     1      24.150   1.627  53.125  1.00  0.00    -0.019 C 
HETATM   17  C14 UNL     1      24.157   2.919  52.739  1.00  0.00     0.052 C 
HETATM   18  S2  UNL     1      23.612   4.110  51.559  1.00  0.00    -0.076 SA
HETATM   19  C15 UNL     1      22.220   3.578  48.824  1.00  0.00     0.155 C 
HETATM   20  N2  UNL     1      22.055   4.768  48.450  1.00  0.00    -0.295 NA
HETATM   21  C16 UNL     1      21.707   5.934  49.138  1.00  0.00     0.154 C 
HETATM   22  C17 UNL     1      20.827   5.768  50.355  1.00  0.00     0.073 C 
HETATM   23  H9  UNL     1      18.299   3.934  50.564  1.00  0.00     0.163 HD
ENDROOT
TORSDOF 0
ENDMDL
