MODEL 1
REMARK VINA RESULT:      -7.9      0.000      0.000
REMARK  8 active torsions:
REMARK  status: ('A' for Active; 'I' for Inactive)
REMARK    1  A    between atoms: C2_2  and  C3_3 
REMARK       I    between atoms: C3_3  and  N1_5 
REMARK    2  A    between atoms: N1_5  and  C4_6 
REMARK    3  A    between atoms: N2_9  and  C7_10 
REMARK    4  A    between atoms: C14_20  and  O2_21 
REMARK    5  A    between atoms: C17_24  and  N6_25 
REMARK    6  A    between atoms: N6_25  and  C19_27 
REMARK    7  A    between atoms: C19_27  and  C20_28 
REMARK    8  A    between atoms: C20_28  and  N7_29 
ROOT
HETATM    1  C4  UNL     1      24.012   2.791  52.409  1.00  0.00     0.063 A 
HETATM    2  C5  UNL     1      22.616   2.584  52.312  1.00  0.00     0.064 A 
HETATM    3  C6  UNL     1      22.046   1.401  52.727  1.00  0.00     0.085 A 
HETATM    4  N2  UNL     1      20.850   0.820  52.606  1.00  0.00    -0.184 N 
HETATM    5  C14 UNL     1      23.033   0.483  53.266  1.00  0.00     0.097 A 
HETATM    6  C16 UNL     1      24.441   0.565  53.425  1.00  0.00     0.070 A 
HETATM    7  C17 UNL     1      24.784   1.811  52.929  1.00  0.00     0.059 A 
HETATM    8  H6  UNL     1      21.361   0.337  51.780  1.00  0.00     0.184 HD
ENDROOT
BRANCH   4   9
HETATM    9  C7  UNL     1      19.631   0.243  52.486  1.00  0.00     0.744 A 
HETATM   10  N3  UNL     1      18.856   1.113  51.793  1.00  0.00    -0.071 NA
HETATM   11  C8  UNL     1      17.567   0.968  51.467  1.00  0.00     0.168 A 
HETATM   12  C9  UNL     1      16.964  -0.206  51.895  1.00  0.00     0.077 A 
HETATM   13  C10 UNL     1      15.682  -0.628  51.746  1.00  0.00     0.035 A 
HETATM   14  N4  UNL     1      17.739  -1.077  52.586  1.00  0.00    -0.222 N 
HETATM   15  C11 UNL     1      15.697  -1.841  52.394  1.00  0.00     0.029 A 
HETATM   16  C12 UNL     1      16.919  -2.091  52.882  1.00  0.00     0.033 A 
HETATM   17  C13 UNL     1      17.194  -3.365  53.558  1.00  0.00     0.070 C 
HETATM   18  N5  UNL     1      19.033  -0.859  52.876  1.00  0.00     0.026 NA
ENDBRANCH   4   9
BRANCH   5  19
HETATM   19  O2  UNL     1      22.294  -0.638  53.644  1.00  0.00    -0.354 OA
HETATM   20  C15 UNL     1      22.327  -1.320  54.848  1.00  0.00     0.210 C 
ENDBRANCH   5  19
BRANCH   1  21
HETATM   21  N1  UNL     1      24.479   4.026  52.003  1.00  0.00    -0.333 N 
HETATM   22  C3  UNL     1      24.753   4.317  50.588  1.00  0.00     0.178 C 
HETATM   23  O1  UNL     1      24.440   3.237  49.862  1.00  0.00    -0.172 OA
HETATM   24  H4  UNL     1      24.770   5.035  52.267  1.00  0.00     0.168 HD
BRANCH  22  25
HETATM   25  C2  UNL     1      25.167   5.072  49.421  1.00  0.00     0.049 C 
HETATM   26  C1  UNL     1      26.475   4.936  49.105  1.00  0.00     0.015 C 
ENDBRANCH  22  25
ENDBRANCH   1  21
BRANCH   7  27
HETATM   27  N6  UNL     1      26.248   1.833  52.747  1.00  0.00    -0.382 N 
HETATM   28  C18 UNL     1      26.825   1.471  51.444  1.00  0.00     0.150 C 
BRANCH  27  29
HETATM   29  C19 UNL     1      27.221   2.133  53.806  1.00  0.00     0.152 C 
BRANCH  29  30
HETATM   30  C20 UNL     1      28.656   1.912  53.424  1.00  0.00     0.291 C 
BRANCH  30  31
HETATM   31  N7  UNL     1      29.161   0.808  54.150  1.00  0.00     0.081 N 
HETATM   32  C21 UNL     1      28.181   0.170  54.978  1.00  0.00     0.309 C 
HETATM   33  C22 UNL     1      29.960  -0.162  53.473  1.00  0.00     0.309 C 
ENDBRANCH  30  31
ENDBRANCH  29  30
ENDBRANCH  27  29
ENDBRANCH   7  27
TORSDOF 8
ENDMDL
MODEL 2
REMARK VINA RESULT:      -7.8      2.613      8.663
REMARK  8 active torsions:
REMARK  status: ('A' for Active; 'I' for Inactive)
REMARK    1  A    between atoms: C2_2  and  C3_3 
REMARK       I    between atoms: C3_3  and  N1_5 
REMARK    2  A    between atoms: N1_5  and  C4_6 
REMARK    3  A    between atoms: N2_9  and  C7_10 
REMARK    4  A    between atoms: C14_20  and  O2_21 
REMARK    5  A    between atoms: C17_24  and  N6_25 
REMARK    6  A    between atoms: N6_25  and  C19_27 
REMARK    7  A    between atoms: C19_27  and  C20_28 
REMARK    8  A    between atoms: C20_28  and  N7_29 
ROOT
HETATM    1  C4  UNL     1      25.925   0.618  52.149  1.00  0.00     0.063 A 
HETATM    2  C5  UNL     1      26.366   1.630  51.264  1.00  0.00     0.064 A 
HETATM    3  C6  UNL     1      25.743   2.857  51.225  1.00  0.00     0.085 A 
HETATM    4  N2  UNL     1      25.769   3.919  50.418  1.00  0.00    -0.184 N 
HETATM    5  C14 UNL     1      24.659   2.945  52.187  1.00  0.00     0.097 A 
HETATM    6  C16 UNL     1      24.123   2.022  53.124  1.00  0.00     0.070 A 
HETATM    7  C17 UNL     1      24.883   0.876  52.970  1.00  0.00     0.059 A 
HETATM    8  H6  UNL     1      24.902   3.414  50.008  1.00  0.00     0.184 HD
ENDROOT
BRANCH   4   9
HETATM    9  C7  UNL     1      25.811   4.996  49.598  1.00  0.00     0.744 A 
HETATM   10  N3  UNL     1      24.530   5.260  49.238  1.00  0.00    -0.071 NA
HETATM   11  C8  UNL     1      24.101   6.221  48.414  1.00  0.00     0.168 A 
HETATM   12  C9  UNL     1      25.086   7.032  47.866  1.00  0.00     0.077 A 
HETATM   13  C10 UNL     1      24.974   8.061  46.989  1.00  0.00     0.035 A 
HETATM   14  N4  UNL     1      26.365   6.770  48.227  1.00  0.00    -0.222 N 
HETATM   15  C11 UNL     1      26.285   8.442  46.817  1.00  0.00     0.029 A 
HETATM   16  C12 UNL     1      27.092   7.671  47.557  1.00  0.00     0.033 A 
HETATM   17  C13 UNL     1      28.536   7.935  47.588  1.00  0.00     0.070 C 
HETATM   18  N5  UNL     1      26.719   5.780  49.065  1.00  0.00     0.026 NA
ENDBRANCH   4   9
BRANCH   5  19
HETATM   19  O2  UNL     1      24.156   4.235  52.024  1.00  0.00    -0.354 OA
HETATM   20  C15 UNL     1      22.949   4.748  52.472  1.00  0.00     0.210 C 
ENDBRANCH   5  19
BRANCH   1  21
HETATM   21  N1  UNL     1      26.642  -0.563  52.139  1.00  0.00    -0.333 N 
HETATM   22  C3  UNL     1      27.875  -0.720  52.925  1.00  0.00     0.178 C 
HETATM   23  O1  UNL     1      28.092   0.411  53.607  1.00  0.00    -0.172 OA
HETATM   24  H4  UNL     1      26.736  -1.583  51.787  1.00  0.00     0.168 HD
BRANCH  22  25
HETATM   25  C2  UNL     1      29.064  -1.357  53.458  1.00  0.00     0.049 C 
HETATM   26  C1  UNL     1      30.132  -0.534  53.570  1.00  0.00     0.015 C 
ENDBRANCH  22  25
ENDBRANCH   1  21
BRANCH   7  27
HETATM   27  N6  UNL     1      24.178  -0.224  53.656  1.00  0.00    -0.382 N 
HETATM   28  C18 UNL     1      24.762  -0.818  54.868  1.00  0.00     0.150 C 
BRANCH  27  29
HETATM   29  C19 UNL     1      22.932  -0.844  53.187  1.00  0.00     0.152 C 
BRANCH  29  30
HETATM   30  C20 UNL     1      21.738  -0.604  54.066  1.00  0.00     0.291 C 
BRANCH  30  31
HETATM   31  N7  UNL     1      20.697  -0.049  53.286  1.00  0.00     0.081 N 
HETATM   32  C21 UNL     1      21.074   0.214  51.930  1.00  0.00     0.309 C 
HETATM   33  C22 UNL     1      19.397  -0.635  53.346  1.00  0.00     0.309 C 
ENDBRANCH  30  31
ENDBRANCH  29  30
ENDBRANCH  27  29
ENDBRANCH   7  27
TORSDOF 8
ENDMDL
MODEL 3
REMARK VINA RESULT:      -7.6      4.406      8.319
REMARK  8 active torsions:
REMARK  status: ('A' for Active; 'I' for Inactive)
REMARK    1  A    between atoms: C2_2  and  C3_3 
REMARK       I    between atoms: C3_3  and  N1_5 
REMARK    2  A    between atoms: N1_5  and  C4_6 
REMARK    3  A    between atoms: N2_9  and  C7_10 
REMARK    4  A    between atoms: C14_20  and  O2_21 
REMARK    5  A    between atoms: C17_24  and  N6_25 
REMARK    6  A    between atoms: N6_25  and  C19_27 
REMARK    7  A    between atoms: C19_27  and  C20_28 
REMARK    8  A    between atoms: C20_28  and  N7_29 
ROOT
HETATM    1  C4  UNL     1      28.250   6.427  48.138  1.00  0.00     0.063 A 
HETATM    2  C5  UNL     1      27.889   5.148  48.624  1.00  0.00     0.064 A 
HETATM    3  C6  UNL     1      26.787   4.985  49.433  1.00  0.00     0.085 A 
HETATM    4  N2  UNL     1      26.293   4.005  50.193  1.00  0.00    -0.184 N 
HETATM    5  C14 UNL     1      26.094   6.240  49.664  1.00  0.00     0.097 A 
HETATM    6  C16 UNL     1      26.341   7.572  49.240  1.00  0.00     0.070 A 
HETATM    7  C17 UNL     1      27.489   7.493  48.470  1.00  0.00     0.059 A 
HETATM    8  H6  UNL     1      26.828   4.560  50.955  1.00  0.00     0.184 HD
ENDROOT
BRANCH   4   9
HETATM    9  C7  UNL     1      25.794   3.002  50.953  1.00  0.00     0.744 A 
HETATM   10  N3  UNL     1      26.846   2.219  51.301  1.00  0.00    -0.071 NA
HETATM   11  C8  UNL     1      26.816   1.097  52.027  1.00  0.00     0.168 A 
HETATM   12  C9  UNL     1      25.562   0.694  52.465  1.00  0.00     0.077 A 
HETATM   13  C10 UNL     1      25.204  -0.398  53.187  1.00  0.00     0.035 A 
HETATM   14  N4  UNL     1      24.511   1.476  52.118  1.00  0.00    -0.222 N 
HETATM   15  C11 UNL     1      23.840  -0.253  53.280  1.00  0.00     0.029 A 
HETATM   16  C12 UNL     1      23.448   0.859  52.646  1.00  0.00     0.033 A 
HETATM   17  C13 UNL     1      22.036   1.260  52.667  1.00  0.00     0.070 C 
HETATM   18  N5  UNL     1      24.622   2.595  51.381  1.00  0.00     0.026 NA
ENDBRANCH   4   9
BRANCH   5  19
HETATM   19  O2  UNL     1      25.015   5.895  50.479  1.00  0.00    -0.354 OA
HETATM   20  C15 UNL     1      24.191   6.733  51.212  1.00  0.00     0.210 C 
ENDBRANCH   5  19
BRANCH   1  21
HETATM   21  N1  UNL     1      29.348   6.478  47.301  1.00  0.00    -0.333 N 
HETATM   22  C3  UNL     1      30.689   6.093  47.767  1.00  0.00     0.178 C 
HETATM   23  O1  UNL     1      30.597   5.688  49.040  1.00  0.00    -0.172 OA
HETATM   24  H4  UNL     1      29.750   6.683  46.316  1.00  0.00     0.168 HD
BRANCH  22  25
HETATM   25  C2  UNL     1      32.119   5.860  47.719  1.00  0.00     0.049 C 
HETATM   26  C1  UNL     1      32.466   4.568  47.518  1.00  0.00     0.015 C 
ENDBRANCH  22  25
ENDBRANCH   1  21
BRANCH   7  27
HETATM   27  N6  UNL     1      27.995   8.866  48.278  1.00  0.00    -0.382 N 
HETATM   28  C18 UNL     1      27.852   9.517  46.967  1.00  0.00     0.150 C 
BRANCH  27  29
HETATM   29  C19 UNL     1      28.710   9.647  49.296  1.00  0.00     0.152 C 
BRANCH  29  30
HETATM   30  C20 UNL     1      30.180   9.359  49.394  1.00  0.00     0.291 C 
BRANCH  30  31
HETATM   31  N7  UNL     1      30.901  10.471  48.900  1.00  0.00     0.081 N 
HETATM   32  C21 UNL     1      31.557  10.221  47.652  1.00  0.00     0.309 C 
HETATM   33  C22 UNL     1      30.278  11.755  48.897  1.00  0.00     0.309 C 
ENDBRANCH  30  31
ENDBRANCH  29  30
ENDBRANCH  27  29
ENDBRANCH   7  27
TORSDOF 8
ENDMDL
MODEL 4
REMARK VINA RESULT:      -7.5      3.360      9.938
REMARK  8 active torsions:
REMARK  status: ('A' for Active; 'I' for Inactive)
REMARK    1  A    between atoms: C2_2  and  C3_3 
REMARK       I    between atoms: C3_3  and  N1_5 
REMARK    2  A    between atoms: N1_5  and  C4_6 
REMARK    3  A    between atoms: N2_9  and  C7_10 
REMARK    4  A    between atoms: C14_20  and  O2_21 
REMARK    5  A    between atoms: C17_24  and  N6_25 
REMARK    6  A    between atoms: N6_25  and  C19_27 
REMARK    7  A    between atoms: C19_27  and  C20_28 
REMARK    8  A    between atoms: C20_28  and  N7_29 
ROOT
HETATM    1  C4  UNL     1      25.583   1.984  51.456  1.00  0.00     0.063 A 
HETATM    2  C5  UNL     1      26.618   2.714  50.826  1.00  0.00     0.064 A 
HETATM    3  C6  UNL     1      26.362   3.926  50.224  1.00  0.00     0.085 A 
HETATM    4  N2  UNL     1      27.025   4.749  49.409  1.00  0.00    -0.184 N 
HETATM    5  C14 UNL     1      24.969   4.314  50.357  1.00  0.00     0.097 A 
HETATM    6  C16 UNL     1      23.846   3.688  50.958  1.00  0.00     0.070 A 
HETATM    7  C17 UNL     1      24.333   2.498  51.470  1.00  0.00     0.059 A 
HETATM    8  H6  UNL     1      26.444   4.207  48.671  1.00  0.00     0.184 HD
ENDROOT
BRANCH   4   9
HETATM    9  C7  UNL     1      27.709   5.582  48.590  1.00  0.00     0.744 A 
HETATM   10  N3  UNL     1      29.003   5.177  48.617  1.00  0.00    -0.071 NA
HETATM   11  C8  UNL     1      30.039   5.729  47.977  1.00  0.00     0.168 A 
HETATM   12  C9  UNL     1      29.748   6.846  47.205  1.00  0.00     0.077 A 
HETATM   13  C10 UNL     1      30.573   7.631  46.468  1.00  0.00     0.035 A 
HETATM   14  N4  UNL     1      28.454   7.249  47.176  1.00  0.00    -0.222 N 
HETATM   15  C11 UNL     1      29.706   8.572  45.962  1.00  0.00     0.029 A 
HETATM   16  C12 UNL     1      28.460   8.330  46.388  1.00  0.00     0.033 A 
HETATM   17  C13 UNL     1      27.348   9.166  45.920  1.00  0.00     0.070 C 
HETATM   18  N5  UNL     1      27.465   6.639  47.851  1.00  0.00     0.026 NA
ENDBRANCH   4   9
BRANCH   5  19
HETATM   19  O2  UNL     1      24.892   5.549  49.713  1.00  0.00    -0.354 OA
HETATM   20  C15 UNL     1      24.443   6.756  50.225  1.00  0.00     0.210 C 
ENDBRANCH   5  19
BRANCH   1  21
HETATM   21  N1  UNL     1      25.950   0.799  52.065  1.00  0.00    -0.333 N 
HETATM   22  C3  UNL     1      26.460   0.769  53.444  1.00  0.00     0.178 C 
HETATM   23  O1  UNL     1      26.447   2.016  53.930  1.00  0.00    -0.172 OA
HETATM   24  H4  UNL     1      26.043  -0.279  52.007  1.00  0.00     0.168 HD
BRANCH  22  25
HETATM   25  C2  UNL     1      26.993   0.216  54.674  1.00  0.00     0.049 C 
HETATM   26  C1  UNL     1      28.340   0.286  54.778  1.00  0.00     0.015 C 
ENDBRANCH  22  25
ENDBRANCH   1  21
BRANCH   7  27
HETATM   27  N6  UNL     1      23.175   1.648  51.805  1.00  0.00    -0.382 N 
HETATM   28  C18 UNL     1      22.328   1.114  50.728  1.00  0.00     0.150 C 
BRANCH  27  29
HETATM   29  C19 UNL     1      22.736   1.326  53.169  1.00  0.00     0.152 C 
BRANCH  29  30
HETATM   30  C20 UNL     1      22.877  -0.119  53.553  1.00  0.00     0.291 C 
BRANCH  30  31
HETATM   31  N7  UNL     1      21.791  -0.483  54.381  1.00  0.00     0.081 N 
HETATM   32  C21 UNL     1      20.666   0.397  54.273  1.00  0.00     0.309 C 
HETATM   33  C22 UNL     1      21.366  -1.846  54.410  1.00  0.00     0.309 C 
ENDBRANCH  30  31
ENDBRANCH  29  30
ENDBRANCH  27  29
ENDBRANCH   7  27
TORSDOF 8
ENDMDL
MODEL 5
REMARK VINA RESULT:      -7.4      1.983      2.531
REMARK  8 active torsions:
REMARK  status: ('A' for Active; 'I' for Inactive)
REMARK    1  A    between atoms: C2_2  and  C3_3 
REMARK       I    between atoms: C3_3  and  N1_5 
REMARK    2  A    between atoms: N1_5  and  C4_6 
REMARK    3  A    between atoms: N2_9  and  C7_10 
REMARK    4  A    between atoms: C14_20  and  O2_21 
REMARK    5  A    between atoms: C17_24  and  N6_25 
REMARK    6  A    between atoms: N6_25  and  C19_27 
REMARK    7  A    between atoms: C19_27  and  C20_28 
REMARK    8  A    between atoms: C20_28  and  N7_29 
ROOT
HETATM    1  C4  UNL     1      24.338   2.732  52.213  1.00  0.00     0.063 A 
HETATM    2  C5  UNL     1      23.013   3.098  51.880  1.00  0.00     0.064 A 
HETATM    3  C6  UNL     1      21.948   2.305  52.244  1.00  0.00     0.085 A 
HETATM    4  N2  UNL     1      20.649   2.248  51.941  1.00  0.00    -0.184 N 
HETATM    5  C14 UNL     1      22.373   1.136  52.992  1.00  0.00     0.097 A 
HETATM    6  C16 UNL     1      23.648   0.658  53.393  1.00  0.00     0.070 A 
HETATM    7  C17 UNL     1      24.548   1.592  52.907  1.00  0.00     0.059 A 
HETATM    8  H6  UNL     1      21.022   1.507  51.242  1.00  0.00     0.184 HD
ENDROOT
BRANCH   4   9
HETATM    9  C7  UNL     1      19.331   2.204  51.634  1.00  0.00     0.744 A 
HETATM   10  N3  UNL     1      19.189   1.268  50.664  1.00  0.00    -0.071 NA
HETATM   11  C8  UNL     1      18.061   0.912  50.041  1.00  0.00     0.168 A 
HETATM   12  C9  UNL     1      16.913   1.585  50.436  1.00  0.00     0.077 A 
HETATM   13  C10 UNL     1      15.639   1.470  49.982  1.00  0.00     0.035 A 
HETATM   14  N4  UNL     1      17.055   2.519  51.407  1.00  0.00    -0.222 N 
HETATM   15  C11 UNL     1      14.973   2.404  50.741  1.00  0.00     0.029 A 
HETATM   16  C12 UNL     1      15.823   3.012  51.578  1.00  0.00     0.033 A 
HETATM   17  C13 UNL     1      15.325   4.003  52.539  1.00  0.00     0.070 C 
HETATM   18  N5  UNL     1      18.228   2.823  51.987  1.00  0.00     0.026 NA
ENDBRANCH   4   9
BRANCH   5  19
HETATM   19  O2  UNL     1      21.187   0.463  53.286  1.00  0.00    -0.354 OA
HETATM   20  C15 UNL     1      21.014  -0.670  54.063  1.00  0.00     0.210 C 
ENDBRANCH   5  19
BRANCH   1  21
HETATM   21  N1  UNL     1      25.332   3.615  51.838  1.00  0.00    -0.333 N 
HETATM   22  C3  UNL     1      25.866   3.635  50.468  1.00  0.00     0.178 C 
HETATM   23  O1  UNL     1      25.207   2.725  49.740  1.00  0.00    -0.172 OA
HETATM   24  H4  UNL     1      25.994   4.429  52.107  1.00  0.00     0.168 HD
BRANCH  22  25
HETATM   25  C2  UNL     1      26.695   4.038  49.348  1.00  0.00     0.049 C 
HETATM   26  C1  UNL     1      26.502   5.315  48.943  1.00  0.00     0.015 C 
ENDBRANCH  22  25
ENDBRANCH   1  21
BRANCH   7  27
HETATM   27  N6  UNL     1      25.896   0.997  52.987  1.00  0.00    -0.382 N 
HETATM   28  C18 UNL     1      26.385   0.155  51.886  1.00  0.00     0.150 C 
BRANCH  27  29
HETATM   29  C19 UNL     1      26.802   1.123  54.136  1.00  0.00     0.152 C 
BRANCH  29  30
HETATM   30  C20 UNL     1      27.569  -0.123  54.473  1.00  0.00     0.291 C 
BRANCH  30  31
HETATM   31  N7  UNL     1      28.950   0.181  54.503  1.00  0.00     0.081 N 
HETATM   32  C21 UNL     1      29.748  -0.697  53.701  1.00  0.00     0.309 C 
HETATM   33  C22 UNL     1      29.366   1.536  54.337  1.00  0.00     0.309 C 
ENDBRANCH  30  31
ENDBRANCH  29  30
ENDBRANCH  27  29
ENDBRANCH   7  27
TORSDOF 8
ENDMDL
MODEL 6
REMARK VINA RESULT:      -7.1      2.055      9.313
REMARK  8 active torsions:
REMARK  status: ('A' for Active; 'I' for Inactive)
REMARK    1  A    between atoms: C2_2  and  C3_3 
REMARK       I    between atoms: C3_3  and  N1_5 
REMARK    2  A    between atoms: N1_5  and  C4_6 
REMARK    3  A    between atoms: N2_9  and  C7_10 
REMARK    4  A    between atoms: C14_20  and  O2_21 
REMARK    5  A    between atoms: C17_24  and  N6_25 
REMARK    6  A    between atoms: N6_25  and  C19_27 
REMARK    7  A    between atoms: C19_27  and  C20_28 
REMARK    8  A    between atoms: C20_28  and  N7_29 
ROOT
HETATM    1  C4  UNL     1      20.511   0.799  51.719  1.00  0.00     0.063 A 
HETATM    2  C5  UNL     1      21.720   0.200  52.146  1.00  0.00     0.064 A 
HETATM    3  C6  UNL     1      22.845   0.960  52.370  1.00  0.00     0.085 A 
HETATM    4  N2  UNL     1      24.141   0.715  52.578  1.00  0.00    -0.184 N 
HETATM    5  C14 UNL     1      22.600   2.373  52.141  1.00  0.00     0.097 A 
HETATM    6  C16 UNL     1      21.453   3.097  51.722  1.00  0.00     0.070 A 
HETATM    7  C17 UNL     1      20.471   2.138  51.543  1.00  0.00     0.059 A 
HETATM    8  H6  UNL     1      24.170   0.902  51.510  1.00  0.00     0.184 HD
ENDROOT
BRANCH   4   9
HETATM    9  C7  UNL     1      25.452   0.456  52.798  1.00  0.00     0.744 A 
HETATM   10  N3  UNL     1      25.629  -0.869  52.570  1.00  0.00    -0.071 NA
HETATM   11  C8  UNL     1      26.762  -1.568  52.694  1.00  0.00     0.168 A 
HETATM   12  C9  UNL     1      27.874  -0.848  53.108  1.00  0.00     0.077 A 
HETATM   13  C10 UNL     1      29.141  -1.271  53.348  1.00  0.00     0.035 A 
HETATM   14  N4  UNL     1      27.697   0.476  53.334  1.00  0.00    -0.222 N 
HETATM   15  C11 UNL     1      29.766  -0.111  53.744  1.00  0.00     0.029 A 
HETATM   16  C12 UNL     1      28.900   0.910  53.727  1.00  0.00     0.033 A 
HETATM   17  C13 UNL     1      29.357   2.268  54.048  1.00  0.00     0.070 C 
HETATM   18  N5  UNL     1      26.521   1.110  53.187  1.00  0.00     0.026 NA
ENDBRANCH   4   9
BRANCH   5  19
HETATM   19  O2  UNL     1      23.821   2.986  52.421  1.00  0.00    -0.354 OA
HETATM   20  C15 UNL     1      24.530   3.882  51.637  1.00  0.00     0.210 C 
ENDBRANCH   5  19
BRANCH   1  21
HETATM   21  N1  UNL     1      19.429  -0.045  51.562  1.00  0.00    -0.333 N 
HETATM   22  C3  UNL     1      18.764  -0.666  52.717  1.00  0.00     0.178 C 
HETATM   23  O1  UNL     1      19.362  -0.237  53.834  1.00  0.00    -0.172 OA
HETATM   24  H4  UNL     1      18.724  -0.529  50.896  1.00  0.00     0.168 HD
BRANCH  22  25
HETATM   25  C2  UNL     1      17.821  -1.489  53.450  1.00  0.00     0.049 C 
HETATM   26  C1  UNL     1      16.719  -1.836  52.745  1.00  0.00     0.015 C 
ENDBRANCH  22  25
ENDBRANCH   1  21
BRANCH   7  27
HETATM   27  N6  UNL     1      19.366   2.764  50.792  1.00  0.00    -0.382 N 
HETATM   28  C18 UNL     1      19.287   2.589  49.334  1.00  0.00     0.150 C 
BRANCH  27  29
HETATM   29  C19 UNL     1      18.337   3.631  51.379  1.00  0.00     0.152 C 
BRANCH  29  30
HETATM   30  C20 UNL     1      17.031   3.650  50.638  1.00  0.00     0.291 C 
BRANCH  30  31
HETATM   31  N7  UNL     1      16.027   3.087  51.461  1.00  0.00     0.081 N 
HETATM   32  C21 UNL     1      14.720   3.621  51.217  1.00  0.00     0.309 C 
HETATM   33  C22 UNL     1      15.974   1.670  51.620  1.00  0.00     0.309 C 
ENDBRANCH  30  31
ENDBRANCH  29  30
ENDBRANCH  27  29
ENDBRANCH   7  27
TORSDOF 8
ENDMDL
MODEL 7
REMARK VINA RESULT:      -7.1      2.472      8.799
REMARK  8 active torsions:
REMARK  status: ('A' for Active; 'I' for Inactive)
REMARK    1  A    between atoms: C2_2  and  C3_3 
REMARK       I    between atoms: C3_3  and  N1_5 
REMARK    2  A    between atoms: N1_5  and  C4_6 
REMARK    3  A    between atoms: N2_9  and  C7_10 
REMARK    4  A    between atoms: C14_20  and  O2_21 
REMARK    5  A    between atoms: C17_24  and  N6_25 
REMARK    6  A    between atoms: N6_25  and  C19_27 
REMARK    7  A    between atoms: C19_27  and  C20_28 
REMARK    8  A    between atoms: C20_28  and  N7_29 
ROOT
HETATM    1  C4  UNL     1      20.206   1.068  51.595  1.00  0.00     0.063 A 
HETATM    2  C5  UNL     1      21.420   0.431  51.942  1.00  0.00     0.064 A 
HETATM    3  C6  UNL     1      22.513   1.166  52.344  1.00  0.00     0.085 A 
HETATM    4  N2  UNL     1      23.810   0.921  52.546  1.00  0.00    -0.184 N 
HETATM    5  C14 UNL     1      22.228   2.589  52.377  1.00  0.00     0.097 A 
HETATM    6  C16 UNL     1      21.070   3.349  52.064  1.00  0.00     0.070 A 
HETATM    7  C17 UNL     1      20.126   2.415  51.673  1.00  0.00     0.059 A 
HETATM    8  H6  UNL     1      23.864   1.307  51.534  1.00  0.00     0.184 HD
ENDROOT
BRANCH   4   9
HETATM    9  C7  UNL     1      25.122   0.660  52.758  1.00  0.00     0.744 A 
HETATM   10  N3  UNL     1      25.276  -0.681  52.633  1.00  0.00    -0.071 NA
HETATM   11  C8  UNL     1      26.402  -1.385  52.788  1.00  0.00     0.168 A 
HETATM   12  C9  UNL     1      27.533  -0.652  53.119  1.00  0.00     0.077 A 
HETATM   13  C10 UNL     1      28.799  -1.073  53.365  1.00  0.00     0.035 A 
HETATM   14  N4  UNL     1      27.379   0.688  53.242  1.00  0.00    -0.222 N 
HETATM   15  C11 UNL     1      29.448   0.104  53.654  1.00  0.00     0.029 A 
HETATM   16  C12 UNL     1      28.596   1.134  53.574  1.00  0.00     0.033 A 
HETATM   17  C13 UNL     1      29.079   2.506  53.776  1.00  0.00     0.070 C 
HETATM   18  N5  UNL     1      26.209   1.326  53.070  1.00  0.00     0.026 NA
ENDBRANCH   4   9
BRANCH   5  19
HETATM   19  O2  UNL     1      23.420   3.171  52.809  1.00  0.00    -0.354 OA
HETATM   20  C15 UNL     1      23.902   4.441  52.537  1.00  0.00     0.210 C 
ENDBRANCH   5  19
BRANCH   1  21
HETATM   21  N1  UNL     1      19.157   0.240  51.244  1.00  0.00    -0.333 N 
HETATM   22  C3  UNL     1      18.474  -0.600  52.239  1.00  0.00     0.178 C 
HETATM   23  O1  UNL     1      19.021  -0.370  53.438  1.00  0.00    -0.172 OA
HETATM   24  H4  UNL     1      18.490  -0.130  50.475  1.00  0.00     0.168 HD
BRANCH  22  25
HETATM   25  C2  UNL     1      17.535  -1.569  52.772  1.00  0.00     0.049 C 
HETATM   26  C1  UNL     1      18.025  -2.319  53.785  1.00  0.00     0.015 C 
ENDBRANCH  22  25
ENDBRANCH   1  21
BRANCH   7  27
HETATM   27  N6  UNL     1      19.023   3.142  51.016  1.00  0.00    -0.382 N 
HETATM   28  C18 UNL     1      17.679   3.117  51.612  1.00  0.00     0.150 C 
BRANCH  27  29
HETATM   29  C19 UNL     1      19.134   3.861  49.741  1.00  0.00     0.152 C 
BRANCH  29  30
HETATM   30  C20 UNL     1      19.866   3.120  48.660  1.00  0.00     0.291 C 
BRANCH  30  31
HETATM   31  N7  UNL     1      20.856   3.967  48.110  1.00  0.00     0.081 N 
HETATM   32  C21 UNL     1      21.420   3.474  46.890  1.00  0.00     0.309 C 
HETATM   33  C22 UNL     1      20.598   5.369  48.019  1.00  0.00     0.309 C 
ENDBRANCH  30  31
ENDBRANCH  29  30
ENDBRANCH  27  29
ENDBRANCH   7  27
TORSDOF 8
ENDMDL
MODEL 8
REMARK VINA RESULT:      -7.1      5.679      9.870
REMARK  8 active torsions:
REMARK  status: ('A' for Active; 'I' for Inactive)
REMARK    1  A    between atoms: C2_2  and  C3_3 
REMARK       I    between atoms: C3_3  and  N1_5 
REMARK    2  A    between atoms: N1_5  and  C4_6 
REMARK    3  A    between atoms: N2_9  and  C7_10 
REMARK    4  A    between atoms: C14_20  and  O2_21 
REMARK    5  A    between atoms: C17_24  and  N6_25 
REMARK    6  A    between atoms: N6_25  and  C19_27 
REMARK    7  A    between atoms: C19_27  and  C20_28 
REMARK    8  A    between atoms: C20_28  and  N7_29 
ROOT
HETATM    1  C4  UNL     1      30.742   6.191  47.343  1.00  0.00     0.063 A 
HETATM    2  C5  UNL     1      29.884   5.315  48.049  1.00  0.00     0.064 A 
HETATM    3  C6  UNL     1      28.562   5.639  48.259  1.00  0.00     0.085 A 
HETATM    4  N2  UNL     1      27.568   5.164  49.013  1.00  0.00    -0.184 N 
HETATM    5  C14 UNL     1      28.215   6.916  47.660  1.00  0.00     0.097 A 
HETATM    6  C16 UNL     1      28.965   7.876  46.934  1.00  0.00     0.070 A 
HETATM    7  C17 UNL     1      30.245   7.352  46.866  1.00  0.00     0.059 A 
HETATM    8  H6  UNL     1      27.915   5.958  49.665  1.00  0.00     0.184 HD
ENDROOT
BRANCH   4   9
HETATM    9  C7  UNL     1      26.563   4.669  49.773  1.00  0.00     0.744 A 
HETATM   10  N3  UNL     1      26.947   3.428  50.164  1.00  0.00    -0.071 NA
HETATM   11  C8  UNL     1      26.251   2.561  50.906  1.00  0.00     0.168 A 
HETATM   12  C9  UNL     1      24.994   2.986  51.314  1.00  0.00     0.077 A 
HETATM   13  C10 UNL     1      24.052   2.336  52.043  1.00  0.00     0.035 A 
HETATM   14  N4  UNL     1      24.612   4.227  50.925  1.00  0.00    -0.222 N 
HETATM   15  C11 UNL     1      23.034   3.259  52.094  1.00  0.00     0.029 A 
HETATM   16  C12 UNL     1      23.382   4.370  51.432  1.00  0.00     0.033 A 
HETATM   17  C13 UNL     1      22.477   5.526  51.408  1.00  0.00     0.070 C 
HETATM   18  N5  UNL     1      25.371   5.043  50.175  1.00  0.00     0.026 NA
ENDBRANCH   4   9
BRANCH   5  19
HETATM   19  O2  UNL     1      26.861   7.078  47.954  1.00  0.00    -0.354 OA
HETATM   20  C15 UNL     1      26.026   8.125  47.598  1.00  0.00     0.210 C 
ENDBRANCH   5  19
BRANCH   1  21
HETATM   21  N1  UNL     1      32.039   5.755  47.151  1.00  0.00    -0.333 N 
HETATM   22  C3  UNL     1      33.062   5.898  48.197  1.00  0.00     0.178 C 
HETATM   23  O1  UNL     1      32.494   6.451  49.275  1.00  0.00    -0.172 OA
HETATM   24  H4  UNL     1      32.766   5.275  46.507  1.00  0.00     0.168 HD
BRANCH  22  25
HETATM   25  C2  UNL     1      34.362   5.814  48.835  1.00  0.00     0.049 C 
HETATM   26  C1  UNL     1      35.221   6.796  48.479  1.00  0.00     0.015 C 
ENDBRANCH  22  25
ENDBRANCH   1  21
BRANCH   7  27
HETATM   27  N6  UNL     1      31.148   8.434  46.429  1.00  0.00    -0.382 N 
HETATM   28  C18 UNL     1      31.433   8.610  44.997  1.00  0.00     0.150 C 
BRANCH  27  29
HETATM   29  C19 UNL     1      31.866   9.344  47.331  1.00  0.00     0.152 C 
BRANCH  29  30
HETATM   30  C20 UNL     1      31.312  10.738  47.393  1.00  0.00     0.291 C 
BRANCH  30  31
HETATM   31  N7  UNL     1      30.982  11.043  48.734  1.00  0.00     0.081 N 
HETATM   32  C21 UNL     1      30.142  12.195  48.871  1.00  0.00     0.309 C 
HETATM   33  C22 UNL     1      30.546   9.993  49.598  1.00  0.00     0.309 C 
ENDBRANCH  30  31
ENDBRANCH  29  30
ENDBRANCH  27  29
ENDBRANCH   7  27
TORSDOF 8
ENDMDL
MODEL 9
REMARK VINA RESULT:      -7.0      3.110      7.638
REMARK  8 active torsions:
REMARK  status: ('A' for Active; 'I' for Inactive)
REMARK    1  A    between atoms: C2_2  and  C3_3 
REMARK       I    between atoms: C3_3  and  N1_5 
REMARK    2  A    between atoms: N1_5  and  C4_6 
REMARK    3  A    between atoms: N2_9  and  C7_10 
REMARK    4  A    between atoms: C14_20  and  O2_21 
REMARK    5  A    between atoms: C17_24  and  N6_25 
REMARK    6  A    between atoms: N6_25  and  C19_27 
REMARK    7  A    between atoms: C19_27  and  C20_28 
REMARK    8  A    between atoms: C20_28  and  N7_29 
ROOT
HETATM    1  C4  UNL     1      24.104   2.215  52.442  1.00  0.00     0.063 A 
HETATM    2  C5  UNL     1      23.362   3.323  51.971  1.00  0.00     0.064 A 
HETATM    3  C6  UNL     1      23.878   4.162  51.008  1.00  0.00     0.085 A 
HETATM    4  N2  UNL     1      23.553   5.352  50.501  1.00  0.00    -0.184 N 
HETATM    5  C14 UNL     1      25.196   3.737  50.570  1.00  0.00     0.097 A 
HETATM    6  C16 UNL     1      26.039   2.659  50.949  1.00  0.00     0.070 A 
HETATM    7  C17 UNL     1      25.330   1.979  51.925  1.00  0.00     0.059 A 
HETATM    8  H6  UNL     1      24.282   5.673  51.237  1.00  0.00     0.184 HD
ENDROOT
BRANCH   4   9
HETATM    9  C7  UNL     1      23.209   6.556  49.985  1.00  0.00     0.744 A 
HETATM   10  N3  UNL     1      21.952   6.821  50.422  1.00  0.00    -0.071 NA
HETATM   11  C8  UNL     1      21.203   7.891  50.136  1.00  0.00     0.168 A 
HETATM   12  C9  UNL     1      21.784   8.827  49.292  1.00  0.00     0.077 A 
HETATM   13  C10 UNL     1      21.278   9.987  48.803  1.00  0.00     0.035 A 
HETATM   14  N4  UNL     1      23.040   8.563  48.857  1.00  0.00    -0.222 N 
HETATM   15  C11 UNL     1      22.310  10.450  48.021  1.00  0.00     0.029 A 
HETATM   16  C12 UNL     1      23.343   9.599  48.066  1.00  0.00     0.033 A 
HETATM   17  C13 UNL     1      24.589   9.917  47.359  1.00  0.00     0.070 C 
HETATM   18  N5  UNL     1      23.731   7.460  49.190  1.00  0.00     0.026 NA
ENDBRANCH   4   9
BRANCH   5  19
HETATM   19  O2  UNL     1      25.557   4.675  49.602  1.00  0.00    -0.354 OA
HETATM   20  C15 UNL     1      26.783   4.833  48.977  1.00  0.00     0.210 C 
ENDBRANCH   5  19
BRANCH   1  21
HETATM   21  N1  UNL     1      23.481   1.413  53.379  1.00  0.00    -0.333 N 
HETATM   22  C3  UNL     1      22.497   0.394  52.987  1.00  0.00     0.178 C 
HETATM   23  O1  UNL     1      22.388   0.398  51.653  1.00  0.00    -0.172 OA
HETATM   24  H4  UNL     1      23.365   1.124  54.417  1.00  0.00     0.168 HD
BRANCH  22  25
HETATM   25  C2  UNL     1      21.521  -0.669  53.136  1.00  0.00     0.049 C 
HETATM   26  C1  UNL     1      21.140  -0.899  54.414  1.00  0.00     0.015 C 
ENDBRANCH  22  25
ENDBRANCH   1  21
BRANCH   7  27
HETATM   27  N6  UNL     1      26.267   1.062  52.601  1.00  0.00    -0.382 N 
HETATM   28  C18 UNL     1      26.538  -0.261  52.017  1.00  0.00     0.150 C 
BRANCH  27  29
HETATM   29  C19 UNL     1      26.930   1.333  53.883  1.00  0.00     0.152 C 
BRANCH  29  30
HETATM   30  C20 UNL     1      27.524   0.127  54.552  1.00  0.00     0.291 C 
BRANCH  30  31
HETATM   31  N7  UNL     1      28.927   0.291  54.633  1.00  0.00     0.081 N 
HETATM   32  C21 UNL     1      29.661  -0.662  53.857  1.00  0.00     0.309 C 
HETATM   33  C22 UNL     1      29.483   1.598  54.489  1.00  0.00     0.309 C 
ENDBRANCH  30  31
ENDBRANCH  29  30
ENDBRANCH  27  29
ENDBRANCH   7  27
TORSDOF 8
ENDMDL
