MODEL 1
REMARK VINA RESULT:      -9.0      0.000      0.000
REMARK  5 active torsions:
REMARK  status: ('A' for Active; 'I' for Inactive)
REMARK    1  A    between atoms: C4_5  and  N1_6 
REMARK    2  A    between atoms: N1_6  and  C5_7 
REMARK    3  A    between atoms: C12_15  and  O1_16 
REMARK    4  A    between atoms: O1_16  and  C13_17 
REMARK    5  A    between atoms: C13_17  and  C14_18 
ROOT
HETATM    1  C5  UNL     1      22.221   2.161  52.505  1.00  0.00     0.121 A 
HETATM    2  C6  UNL     1      22.631   3.458  52.019  1.00  0.00    -0.003 A 
HETATM    3  N2  UNL     1      23.215   2.304  52.356  1.00  0.00     0.000 N 
HETATM    4  C7  UNL     1      24.187   1.404  52.431  1.00  0.00     0.082 A 
HETATM    5  C8  UNL     1      23.604   0.476  53.095  1.00  0.00    -0.015 A 
HETATM    6  C9  UNL     1      23.712   1.616  52.487  1.00  0.00     0.058 A 
HETATM    7  C10 UNL     1      24.556   2.639  51.693  1.00  0.00     0.144 A 
HETATM    8  C11 UNL     1      25.958   2.254  51.435  1.00  0.00     0.114 A 
HETATM    9  C12 UNL     1      25.499   1.117  52.170  1.00  0.00     0.095 A 
HETATM   10  O3  UNL     1      26.882   3.006  50.746  1.00  0.00    -0.347 OA
HETATM   11  C18 UNL     1      26.388   3.883  49.726  1.00  0.00     0.201 C 
HETATM   12  C19 UNL     1      24.886   3.959  49.749  1.00  0.00     0.196 C 
HETATM   13  O4  UNL     1      24.369   3.979  51.063  1.00  0.00    -0.368 OA
ENDROOT
BRANCH   1  14
HETATM   14  N1  UNL     1      21.346   1.397  51.676  1.00  0.00    -0.381 N 
HETATM   15  H3  UNL     1      21.724   1.438  50.682  1.00  0.00     0.160 HD
BRANCH  14  16
HETATM   16  C4  UNL     1      20.161   0.639  51.863  1.00  0.00     0.030 A 
HETATM   17  C3  UNL     1      19.906  -0.126  52.980  1.00  0.00     0.032 A 
HETATM   18  C2  UNL     1      18.781  -0.884  53.196  1.00  0.00     0.046 A 
HETATM   19  C1  UNL     1      17.853  -0.838  52.164  1.00  0.00     0.138 A 
HETATM   20  F1  UNL     1      16.702  -1.533  52.241  1.00  0.00    -0.204 F 
HETATM   21  C21 UNL     1      18.058  -0.090  51.029  1.00  0.00     0.074 A 
HETATM   22  C20 UNL     1      19.204   0.640  50.885  1.00  0.00     0.056 A 
HETATM   23 CL1  UNL     1      16.854  -0.060  49.745  1.00  0.00    -0.081 Cl
ENDBRANCH  14  16
ENDBRANCH   1  14
BRANCH   9  24
HETATM   24  O1  UNL     1      26.859   0.795  51.913  1.00  0.00    -0.349 OA
BRANCH  24  25
HETATM   25  C13 UNL     1      26.986  -0.618  52.384  1.00  0.00     0.207 C 
BRANCH  25  26
HETATM   26  C14 UNL     1      27.683  -0.634  53.652  1.00  0.00     0.145 C 
HETATM   27  C15 UNL     1      28.645   0.522  53.824  1.00  0.00     0.036 C 
HETATM   28  C16 UNL     1      29.963  -0.062  53.445  1.00  0.00     0.029 C 
HETATM   29  C17 UNL     1      29.719  -1.530  53.427  1.00  0.00     0.168 C 
HETATM   30  O2  UNL     1      28.417  -1.811  53.720  1.00  0.00    -0.384 OA
ENDBRANCH  25  26
ENDBRANCH  24  25
ENDBRANCH   9  24
TORSDOF 5
ENDMDL
MODEL 2
REMARK VINA RESULT:      -8.9      4.033      6.106
REMARK  5 active torsions:
REMARK  status: ('A' for Active; 'I' for Inactive)
REMARK    1  A    between atoms: C4_5  and  N1_6 
REMARK    2  A    between atoms: N1_6  and  C5_7 
REMARK    3  A    between atoms: C12_15  and  O1_16 
REMARK    4  A    between atoms: O1_16  and  C13_17 
REMARK    5  A    between atoms: C13_17  and  C14_18 
ROOT
HETATM    1  C5  UNL     1      23.518   2.396  50.894  1.00  0.00     0.121 A 
HETATM    2  C6  UNL     1      22.288   1.666  51.099  1.00  0.00    -0.003 A 
HETATM    3  N2  UNL     1      23.563   1.575  51.490  1.00  0.00     0.000 N 
HETATM    4  C7  UNL     1      24.592   1.152  52.214  1.00  0.00     0.082 A 
HETATM    5  C8  UNL     1      25.554   1.795  51.663  1.00  0.00    -0.015 A 
HETATM    6  C9  UNL     1      24.326   1.426  51.855  1.00  0.00     0.058 A 
HETATM    7  C10 UNL     1      23.284   0.576  52.618  1.00  0.00     0.144 A 
HETATM    8  C11 UNL     1      23.820  -0.304  53.675  1.00  0.00     0.114 A 
HETATM    9  C12 UNL     1      25.022   0.303  53.197  1.00  0.00     0.095 A 
HETATM   10  O3  UNL     1      23.076  -1.139  54.478  1.00  0.00    -0.347 OA
HETATM   11  C18 UNL     1      21.727  -0.748  54.762  1.00  0.00     0.201 C 
HETATM   12  C19 UNL     1      21.314   0.438  53.934  1.00  0.00     0.196 C 
HETATM   13  O4  UNL     1      21.806   0.367  52.612  1.00  0.00    -0.368 OA
ENDROOT
BRANCH   1  14
HETATM   14  N1  UNL     1      23.553   3.755  51.328  1.00  0.00    -0.381 N 
HETATM   15  H3  UNL     1      22.942   3.834  52.196  1.00  0.00     0.160 HD
BRANCH  14  16
HETATM   16  C4  UNL     1      24.179   4.952  50.893  1.00  0.00     0.030 A 
HETATM   17  C3  UNL     1      23.776   6.213  51.276  1.00  0.00     0.032 A 
HETATM   18  C2  UNL     1      24.343   7.396  50.870  1.00  0.00     0.046 A 
HETATM   19  C1  UNL     1      25.412   7.249  49.997  1.00  0.00     0.138 A 
HETATM   20  F1  UNL     1      26.064   8.325  49.517  1.00  0.00    -0.204 F 
HETATM   21  C21 UNL     1      25.854   6.014  49.584  1.00  0.00     0.074 A 
HETATM   22  C20 UNL     1      25.239   4.879  50.031  1.00  0.00     0.056 A 
HETATM   23 CL1  UNL     1      27.215   5.873  48.475  1.00  0.00    -0.081 Cl
ENDBRANCH  14  16
ENDBRANCH   1  14
BRANCH   9  24
HETATM   24  O1  UNL     1      25.496  -0.571  54.212  1.00  0.00    -0.349 OA
BRANCH  24  25
HETATM   25  C13 UNL     1      26.878  -0.074  54.493  1.00  0.00     0.207 C 
BRANCH  25  26
HETATM   26  C14 UNL     1      27.682  -0.208  53.299  1.00  0.00     0.145 C 
HETATM   27  C15 UNL     1      28.499  -1.483  53.263  1.00  0.00     0.036 C 
HETATM   28  C16 UNL     1      29.842  -1.050  53.744  1.00  0.00     0.029 C 
HETATM   29  C17 UNL     1      29.789   0.436  53.682  1.00  0.00     0.168 C 
HETATM   30  O2  UNL     1      28.566   0.862  53.256  1.00  0.00    -0.384 OA
ENDBRANCH  25  26
ENDBRANCH  24  25
ENDBRANCH   9  24
TORSDOF 5
ENDMDL
MODEL 3
REMARK VINA RESULT:      -8.6      3.991      7.346
REMARK  5 active torsions:
REMARK  status: ('A' for Active; 'I' for Inactive)
REMARK    1  A    between atoms: C4_5  and  N1_6 
REMARK    2  A    between atoms: N1_6  and  C5_7 
REMARK    3  A    between atoms: C12_15  and  O1_16 
REMARK    4  A    between atoms: O1_16  and  C13_17 
REMARK    5  A    between atoms: C13_17  and  C14_18 
ROOT
HETATM    1  C5  UNL     1      25.562   2.762  50.865  1.00  0.00     0.121 A 
HETATM    2  C6  UNL     1      25.466   4.031  50.181  1.00  0.00    -0.003 A 
HETATM    3  N2  UNL     1      24.632   3.150  50.742  1.00  0.00     0.000 N 
HETATM    4  C7  UNL     1      23.490   2.698  51.244  1.00  0.00     0.082 A 
HETATM    5  C8  UNL     1      23.822   1.500  51.557  1.00  0.00    -0.015 A 
HETATM    6  C9  UNL     1      23.995   2.704  51.105  1.00  0.00     0.058 A 
HETATM    7  C10 UNL     1      23.436   4.107  50.779  1.00  0.00     0.144 A 
HETATM    8  C11 UNL     1      22.004   4.314  51.071  1.00  0.00     0.114 A 
HETATM    9  C12 UNL     1      22.166   2.953  51.476  1.00  0.00     0.095 A 
HETATM   10  O3  UNL     1      21.303   5.481  50.865  1.00  0.00    -0.347 OA
HETATM   11  C18 UNL     1      22.033   6.711  50.952  1.00  0.00     0.201 C 
HETATM   12  C19 UNL     1      23.514   6.463  51.055  1.00  0.00     0.196 C 
HETATM   13  O4  UNL     1      23.939   5.401  50.228  1.00  0.00    -0.368 OA
ENDROOT
BRANCH   1  14
HETATM   14  N1  UNL     1      26.308   2.728  52.081  1.00  0.00    -0.381 N 
HETATM   15  H3  UNL     1      26.091   3.621  52.618  1.00  0.00     0.160 HD
BRANCH  14  16
HETATM   16  C4  UNL     1      27.215   1.830  52.701  1.00  0.00     0.030 A 
HETATM   17  C3  UNL     1      28.271   2.228  53.490  1.00  0.00     0.032 A 
HETATM   18  C2  UNL     1      29.180   1.395  54.097  1.00  0.00     0.046 A 
HETATM   19  C1  UNL     1      28.967   0.044  53.858  1.00  0.00     0.138 A 
HETATM   20  F1  UNL     1      29.782  -0.887  54.391  1.00  0.00    -0.204 F 
HETATM   21  C21 UNL     1      27.928  -0.406  53.079  1.00  0.00     0.074 A 
HETATM   22  C20 UNL     1      27.062   0.484  52.507  1.00  0.00     0.056 A 
HETATM   23 CL1  UNL     1      27.693  -2.129  52.803  1.00  0.00    -0.081 Cl
ENDBRANCH  14  16
ENDBRANCH   1  14
BRANCH   9  24
HETATM   24  O1  UNL     1      20.788   3.191  51.727  1.00  0.00    -0.349 OA
BRANCH  24  25
HETATM   25  C13 UNL     1      20.415   2.127  52.709  1.00  0.00     0.207 C 
BRANCH  25  26
HETATM   26  C14 UNL     1      20.404   0.846  52.038  1.00  0.00     0.145 C 
HETATM   27  C15 UNL     1      19.022   0.404  51.606  1.00  0.00     0.036 C 
HETATM   28  C16 UNL     1      18.592  -0.513  52.699  1.00  0.00     0.029 C 
HETATM   29  C17 UNL     1      19.843  -0.789  53.457  1.00  0.00     0.168 C 
HETATM   30  O2  UNL     1      20.895  -0.104  52.925  1.00  0.00    -0.384 OA
ENDBRANCH  25  26
ENDBRANCH  24  25
ENDBRANCH   9  24
TORSDOF 5
ENDMDL
MODEL 4
REMARK VINA RESULT:      -8.5      3.886      5.622
REMARK  5 active torsions:
REMARK  status: ('A' for Active; 'I' for Inactive)
REMARK    1  A    between atoms: C4_5  and  N1_6 
REMARK    2  A    between atoms: N1_6  and  C5_7 
REMARK    3  A    between atoms: C12_15  and  O1_16 
REMARK    4  A    between atoms: O1_16  and  C13_17 
REMARK    5  A    between atoms: C13_17  and  C14_18 
ROOT
HETATM    1  C5  UNL     1      22.251   2.510  51.188  1.00  0.00     0.121 A 
HETATM    2  C6  UNL     1      21.285   1.541  51.651  1.00  0.00    -0.003 A 
HETATM    3  N2  UNL     1      22.614   1.681  51.647  1.00  0.00     0.000 N 
HETATM    4  C7  UNL     1      23.870   1.427  51.993  1.00  0.00     0.082 A 
HETATM    5  C8  UNL     1      24.495   2.279  51.268  1.00  0.00    -0.015 A 
HETATM    6  C9  UNL     1      23.465   1.664  51.760  1.00  0.00     0.058 A 
HETATM    7  C10 UNL     1      22.865   0.581  52.685  1.00  0.00     0.144 A 
HETATM    8  C11 UNL     1      23.838  -0.236  53.436  1.00  0.00     0.114 A 
HETATM    9  C12 UNL     1      24.717   0.624  52.707  1.00  0.00     0.095 A 
HETATM   10  O3  UNL     1      23.526  -1.247  54.317  1.00  0.00    -0.347 OA
HETATM   11  C18 UNL     1      22.281  -1.148  55.019  1.00  0.00     0.201 C 
HETATM   12  C19 UNL     1      21.439  -0.020  54.485  1.00  0.00     0.196 C 
HETATM   13  O4  UNL     1      21.513   0.085  53.079  1.00  0.00    -0.368 OA
ENDROOT
BRANCH   1  14
HETATM   14  N1  UNL     1      22.182   3.822  51.747  1.00  0.00    -0.381 N 
HETATM   15  H3  UNL     1      21.895   3.724  52.767  1.00  0.00     0.160 HD
BRANCH  14  16
HETATM   16  C4  UNL     1      22.397   5.145  51.282  1.00  0.00     0.030 A 
HETATM   17  C3  UNL     1      21.385   6.005  50.916  1.00  0.00     0.032 A 
HETATM   18  C2  UNL     1      21.549   7.286  50.448  1.00  0.00     0.046 A 
HETATM   19  C1  UNL     1      22.871   7.697  50.356  1.00  0.00     0.138 A 
HETATM   20  F1  UNL     1      23.180   8.931  49.913  1.00  0.00    -0.204 F 
HETATM   21  C21 UNL     1      23.918   6.879  50.709  1.00  0.00     0.074 A 
HETATM   22  C20 UNL     1      23.677   5.614  51.167  1.00  0.00     0.056 A 
HETATM   23 CL1  UNL     1      25.581   7.442  50.577  1.00  0.00    -0.081 Cl
ENDBRANCH  14  16
ENDBRANCH   1  14
BRANCH   9  24
HETATM   24  O1  UNL     1      25.618  -0.197  53.437  1.00  0.00    -0.349 OA
BRANCH  24  25
HETATM   25  C13 UNL     1      26.947   0.454  53.222  1.00  0.00     0.207 C 
BRANCH  25  26
HETATM   26  C14 UNL     1      27.865   0.004  54.245  1.00  0.00     0.145 C 
HETATM   27  C15 UNL     1      29.167   0.777  54.267  1.00  0.00     0.036 C 
HETATM   28  C16 UNL     1      30.098  -0.087  53.487  1.00  0.00     0.029 C 
HETATM   29  C17 UNL     1      29.388  -1.391  53.388  1.00  0.00     0.168 C 
HETATM   30  O2  UNL     1      28.167  -1.327  53.992  1.00  0.00    -0.384 OA
ENDBRANCH  25  26
ENDBRANCH  24  25
ENDBRANCH   9  24
TORSDOF 5
ENDMDL
MODEL 5
REMARK VINA RESULT:      -8.5      6.160      9.419
REMARK  5 active torsions:
REMARK  status: ('A' for Active; 'I' for Inactive)
REMARK    1  A    between atoms: C4_5  and  N1_6 
REMARK    2  A    between atoms: N1_6  and  C5_7 
REMARK    3  A    between atoms: C12_15  and  O1_16 
REMARK    4  A    between atoms: O1_16  and  C13_17 
REMARK    5  A    between atoms: C13_17  and  C14_18 
ROOT
HETATM    1  C5  UNL     1      27.886   6.154  48.060  1.00  0.00     0.121 A 
HETATM    2  C6  UNL     1      27.019   7.301  47.922  1.00  0.00    -0.003 A 
HETATM    3  N2  UNL     1      26.954   6.076  48.453  1.00  0.00     0.000 N 
HETATM    4  C7  UNL     1      26.464   5.092  49.196  1.00  0.00     0.082 A 
HETATM    5  C8  UNL     1      27.307   4.159  48.945  1.00  0.00    -0.015 A 
HETATM    6  C9  UNL     1      26.791   5.347  48.876  1.00  0.00     0.058 A 
HETATM    7  C10 UNL     1      25.690   6.356  49.274  1.00  0.00     0.144 A 
HETATM    8  C11 UNL     1      24.634   5.839  50.166  1.00  0.00     0.114 A 
HETATM    9  C12 UNL     1      25.446   4.674  50.009  1.00  0.00     0.095 A 
HETATM   10  O3  UNL     1      23.565   6.562  50.647  1.00  0.00    -0.347 OA
HETATM   11  C18 UNL     1      23.751   7.972  50.825  1.00  0.00     0.201 C 
HETATM   12  C19 UNL     1      25.059   8.431  50.240  1.00  0.00     0.196 C 
HETATM   13  O4  UNL     1      25.354   7.788  49.017  1.00  0.00    -0.368 OA
ENDROOT
BRANCH   1  14
HETATM   14  N1  UNL     1      29.098   6.333  48.792  1.00  0.00    -0.381 N 
HETATM   15  H3  UNL     1      28.857   6.839  49.697  1.00  0.00     0.160 HD
BRANCH  14  16
HETATM   16  C4  UNL     1      30.466   6.009  48.603  1.00  0.00     0.030 A 
HETATM   17  C3  UNL     1      31.503   6.641  49.253  1.00  0.00     0.032 A 
HETATM   18  C2  UNL     1      32.840   6.370  49.089  1.00  0.00     0.046 A 
HETATM   19  C1  UNL     1      33.111   5.361  48.175  1.00  0.00     0.138 A 
HETATM   20  F1  UNL     1      34.379   4.989  47.915  1.00  0.00    -0.204 F 
HETATM   21  C21 UNL     1      32.114   4.698  47.500  1.00  0.00     0.074 A 
HETATM   22  C20 UNL     1      30.805   5.024  47.716  1.00  0.00     0.056 A 
HETATM   23 CL1  UNL     1      32.503   3.423  46.350  1.00  0.00    -0.081 Cl
ENDBRANCH  14  16
ENDBRANCH   1  14
BRANCH   9  24
HETATM   24  O1  UNL     1      24.400   4.214  50.854  1.00  0.00    -0.349 OA
BRANCH  24  25
HETATM   25  C13 UNL     1      24.642   2.742  50.953  1.00  0.00     0.207 C 
BRANCH  25  26
HETATM   26  C14 UNL     1      25.572   2.486  52.031  1.00  0.00     0.145 C 
HETATM   27  C15 UNL     1      26.713   1.572  51.637  1.00  0.00     0.036 C 
HETATM   28  C16 UNL     1      26.268   0.233  52.118  1.00  0.00     0.029 C 
HETATM   29  C17 UNL     1      25.123   0.532  53.021  1.00  0.00     0.168 C 
HETATM   30  O2  UNL     1      24.873   1.872  53.061  1.00  0.00    -0.384 OA
ENDBRANCH  25  26
ENDBRANCH  24  25
ENDBRANCH   9  24
TORSDOF 5
ENDMDL
MODEL 6
REMARK VINA RESULT:      -8.4      4.457      7.407
REMARK  5 active torsions:
REMARK  status: ('A' for Active; 'I' for Inactive)
REMARK    1  A    between atoms: C4_5  and  N1_6 
REMARK    2  A    between atoms: N1_6  and  C5_7 
REMARK    3  A    between atoms: C12_15  and  O1_16 
REMARK    4  A    between atoms: O1_16  and  C13_17 
REMARK    5  A    between atoms: C13_17  and  C14_18 
ROOT
HETATM    1  C5  UNL     1      24.111   0.546  53.419  1.00  0.00     0.121 A 
HETATM    2  C6  UNL     1      22.826  -0.063  53.165  1.00  0.00    -0.003 A 
HETATM    3  N2  UNL     1      23.382   1.147  53.047  1.00  0.00     0.000 N 
HETATM    4  C7  UNL     1      23.493   2.405  52.641  1.00  0.00     0.082 A 
HETATM    5  C8  UNL     1      24.600   2.739  53.196  1.00  0.00    -0.015 A 
HETATM    6  C9  UNL     1      23.621   1.953  52.872  1.00  0.00     0.058 A 
HETATM    7  C10 UNL     1      22.277   1.711  52.148  1.00  0.00     0.144 A 
HETATM    8  C11 UNL     1      21.709   2.875  51.438  1.00  0.00     0.114 A 
HETATM    9  C12 UNL     1      22.904   3.446  51.976  1.00  0.00     0.095 A 
HETATM   10  O3  UNL     1      20.531   2.884  50.726  1.00  0.00    -0.347 OA
HETATM   11  C18 UNL     1      20.121   1.654  50.117  1.00  0.00     0.201 C 
HETATM   12  C19 UNL     1      20.988   0.507  50.560  1.00  0.00     0.196 C 
HETATM   13  O4  UNL     1      21.321   0.585  51.930  1.00  0.00    -0.368 OA
ENDROOT
BRANCH   1  14
HETATM   14  N1  UNL     1      25.232   0.035  52.699  1.00  0.00    -0.381 N 
HETATM   15  H3  UNL     1      24.920  -0.141  51.696  1.00  0.00     0.160 HD
BRANCH  14  16
HETATM   16  C4  UNL     1      26.585  -0.272  52.995  1.00  0.00     0.030 A 
HETATM   17  C3  UNL     1      27.171  -1.491  52.735  1.00  0.00     0.032 A 
HETATM   18  C2  UNL     1      28.471  -1.835  53.017  1.00  0.00     0.046 A 
HETATM   19  C1  UNL     1      29.213  -0.826  53.616  1.00  0.00     0.138 A 
HETATM   20  F1  UNL     1      30.503  -1.024  53.948  1.00  0.00    -0.204 F 
HETATM   21  C21 UNL     1      28.677   0.408  53.896  1.00  0.00     0.074 A 
HETATM   22  C20 UNL     1      27.373   0.677  53.586  1.00  0.00     0.056 A 
HETATM   23 CL1  UNL     1      29.654   1.660  54.657  1.00  0.00    -0.081 Cl
ENDBRANCH  14  16
ENDBRANCH   1  14
BRANCH   9  24
HETATM   24  O1  UNL     1      22.314   4.543  51.293  1.00  0.00    -0.349 OA
BRANCH  24  25
HETATM   25  C13 UNL     1      23.429   5.533  51.178  1.00  0.00     0.207 C 
BRANCH  25  26
HETATM   26  C14 UNL     1      23.782   5.688  49.784  1.00  0.00     0.145 C 
HETATM   27  C15 UNL     1      24.564   4.517  49.227  1.00  0.00     0.036 C 
HETATM   28  C16 UNL     1      25.981   4.971  49.317  1.00  0.00     0.029 C 
HETATM   29  C17 UNL     1      25.880   6.433  49.575  1.00  0.00     0.168 C 
HETATM   30  O2  UNL     1      24.577   6.821  49.669  1.00  0.00    -0.384 OA
ENDBRANCH  25  26
ENDBRANCH  24  25
ENDBRANCH   9  24
TORSDOF 5
ENDMDL
MODEL 7
REMARK VINA RESULT:      -8.4      4.718      7.175
REMARK  5 active torsions:
REMARK  status: ('A' for Active; 'I' for Inactive)
REMARK    1  A    between atoms: C4_5  and  N1_6 
REMARK    2  A    between atoms: N1_6  and  C5_7 
REMARK    3  A    between atoms: C12_15  and  O1_16 
REMARK    4  A    between atoms: O1_16  and  C13_17 
REMARK    5  A    between atoms: C13_17  and  C14_18 
ROOT
HETATM    1  C5  UNL     1      24.798   4.264  49.383  1.00  0.00     0.121 A 
HETATM    2  C6  UNL     1      23.431   3.804  49.457  1.00  0.00    -0.003 A 
HETATM    3  N2  UNL     1      24.627   3.412  49.907  1.00  0.00     0.000 N 
HETATM    4  C7  UNL     1      25.488   2.724  50.646  1.00  0.00     0.082 A 
HETATM    5  C8  UNL     1      26.602   3.184  50.206  1.00  0.00    -0.015 A 
HETATM    6  C9  UNL     1      25.313   3.075  50.298  1.00  0.00     0.058 A 
HETATM    7  C10 UNL     1      24.063   2.416  50.927  1.00  0.00     0.144 A 
HETATM    8  C11 UNL     1      24.325   1.366  51.931  1.00  0.00     0.114 A 
HETATM    9  C12 UNL     1      25.659   1.733  51.573  1.00  0.00     0.095 A 
HETATM   10  O3  UNL     1      23.366   0.655  52.617  1.00  0.00    -0.347 OA
HETATM   11  C18 UNL     1      22.113   1.306  52.860  1.00  0.00     0.201 C 
HETATM   12  C19 UNL     1      22.019   2.611  52.117  1.00  0.00     0.196 C 
HETATM   13  O4  UNL     1      22.578   2.532  50.823  1.00  0.00    -0.368 OA
ENDROOT
BRANCH   1  14
HETATM   14  N1  UNL     1      25.088   5.548  49.934  1.00  0.00    -0.381 N 
HETATM   15  H3  UNL     1      24.438   5.699  50.764  1.00  0.00     0.160 HD
BRANCH  14  16
HETATM   16  C4  UNL     1      25.990   6.606  49.648  1.00  0.00     0.030 A 
HETATM   17  C3  UNL     1      25.993   7.814  50.309  1.00  0.00     0.032 A 
HETATM   18  C2  UNL     1      26.837   8.867  50.055  1.00  0.00     0.046 A 
HETATM   19  C1  UNL     1      27.747   8.638  49.032  1.00  0.00     0.138 A 
HETATM   20  F1  UNL     1      28.636   9.585  48.676  1.00  0.00    -0.204 F 
HETATM   21  C21 UNL     1      27.786   7.451  48.341  1.00  0.00     0.074 A 
HETATM   22  C20 UNL     1      26.913   6.447  48.650  1.00  0.00     0.056 A 
HETATM   23 CL1  UNL     1      28.957   7.202  47.050  1.00  0.00    -0.081 Cl
ENDBRANCH  14  16
ENDBRANCH   1  14
BRANCH   9  24
HETATM   24  O1  UNL     1      25.864   0.706  52.533  1.00  0.00    -0.349 OA
BRANCH  24  25
HETATM   25  C13 UNL     1      27.345   0.702  52.740  1.00  0.00     0.207 C 
BRANCH  25  26
HETATM   26  C14 UNL     1      27.666  -0.170  53.848  1.00  0.00     0.145 C 
HETATM   27  C15 UNL     1      29.048   0.066  54.420  1.00  0.00     0.036 C 
HETATM   28  C16 UNL     1      29.882  -0.979  53.759  1.00  0.00     0.029 C 
HETATM   29  C17 UNL     1      28.889  -1.911  53.160  1.00  0.00     0.168 C 
HETATM   30  O2  UNL     1      27.616  -1.480  53.389  1.00  0.00    -0.384 OA
ENDBRANCH  25  26
ENDBRANCH  24  25
ENDBRANCH   9  24
TORSDOF 5
ENDMDL
MODEL 8
REMARK VINA RESULT:      -8.4      4.165      7.699
REMARK  5 active torsions:
REMARK  status: ('A' for Active; 'I' for Inactive)
REMARK    1  A    between atoms: C4_5  and  N1_6 
REMARK    2  A    between atoms: N1_6  and  C5_7 
REMARK    3  A    between atoms: C12_15  and  O1_16 
REMARK    4  A    between atoms: O1_16  and  C13_17 
REMARK    5  A    between atoms: C13_17  and  C14_18 
ROOT
HETATM    1  C5  UNL     1      25.767   2.982  50.664  1.00  0.00     0.121 A 
HETATM    2  C6  UNL     1      26.146   4.206  49.997  1.00  0.00    -0.003 A 
HETATM    3  N2  UNL     1      25.028   3.654  50.479  1.00  0.00     0.000 N 
HETATM    4  C7  UNL     1      23.766   3.608  50.886  1.00  0.00     0.082 A 
HETATM    5  C8  UNL     1      23.661   2.370  51.202  1.00  0.00    -0.015 A 
HETATM    6  C9  UNL     1      24.254   3.445  50.785  1.00  0.00     0.058 A 
HETATM    7  C10 UNL     1      24.214   4.952  50.442  1.00  0.00     0.144 A 
HETATM    8  C11 UNL     1      22.912   5.621  50.630  1.00  0.00     0.114 A 
HETATM    9  C12 UNL     1      22.586   4.286  51.022  1.00  0.00     0.095 A 
HETATM   10  O3  UNL     1      22.653   6.952  50.392  1.00  0.00    -0.347 OA
HETATM   11  C18 UNL     1      23.738   7.873  50.554  1.00  0.00     0.201 C 
HETATM   12  C19 UNL     1      25.042   7.153  50.764  1.00  0.00     0.196 C 
HETATM   13  O4  UNL     1      25.156   6.003  49.953  1.00  0.00    -0.368 OA
ENDROOT
BRANCH   1  14
HETATM   14  N1  UNL     1      26.364   2.715  51.932  1.00  0.00    -0.381 N 
HETATM   15  H3  UNL     1      26.110   3.517  52.585  1.00  0.00     0.160 HD
BRANCH  14  16
HETATM   16  C4  UNL     1      27.169   1.687  52.489  1.00  0.00     0.030 A 
HETATM   17  C3  UNL     1      28.319   1.917  53.211  1.00  0.00     0.032 A 
HETATM   18  C2  UNL     1      29.133   0.953  53.754  1.00  0.00     0.046 A 
HETATM   19  C1  UNL     1      28.712  -0.349  53.524  1.00  0.00     0.138 A 
HETATM   20  F1  UNL     1      29.415  -1.395  53.999  1.00  0.00    -0.204 F 
HETATM   21  C21 UNL     1      27.572  -0.633  52.810  1.00  0.00     0.074 A 
HETATM   22  C20 UNL     1      26.811   0.380  52.299  1.00  0.00     0.056 A 
HETATM   23 CL1  UNL     1      27.073  -2.300  52.542  1.00  0.00    -0.081 Cl
ENDBRANCH  14  16
ENDBRANCH   1  14
BRANCH   9  24
HETATM   24  O1  UNL     1      21.348   4.967  51.173  1.00  0.00    -0.349 OA
BRANCH  24  25
HETATM   25  C13 UNL     1      20.330   3.951  50.763  1.00  0.00     0.207 C 
BRANCH  25  26
HETATM   26  C14 UNL     1      19.760   3.347  51.947  1.00  0.00     0.145 C 
HETATM   27  C15 UNL     1      19.886   1.839  51.973  1.00  0.00     0.036 C 
HETATM   28  C16 UNL     1      18.562   1.370  51.474  1.00  0.00     0.029 C 
HETATM   29  C17 UNL     1      17.700   2.582  51.535  1.00  0.00     0.168 C 
HETATM   30  O2  UNL     1      18.408   3.660  51.977  1.00  0.00    -0.384 OA
ENDBRANCH  25  26
ENDBRANCH  24  25
ENDBRANCH   9  24
TORSDOF 5
ENDMDL
MODEL 9
REMARK VINA RESULT:      -8.2      6.157      8.931
REMARK  5 active torsions:
REMARK  status: ('A' for Active; 'I' for Inactive)
REMARK    1  A    between atoms: C4_5  and  N1_6 
REMARK    2  A    between atoms: N1_6  and  C5_7 
REMARK    3  A    between atoms: C12_15  and  O1_16 
REMARK    4  A    between atoms: O1_16  and  C13_17 
REMARK    5  A    between atoms: C13_17  and  C14_18 
ROOT
HETATM    1  C5  UNL     1      26.368   6.144  48.541  1.00  0.00     0.121 A 
HETATM    2  C6  UNL     1      25.007   6.534  48.827  1.00  0.00    -0.003 A 
HETATM    3  N2  UNL     1      25.802   5.487  49.068  1.00  0.00     0.000 N 
HETATM    4  C7  UNL     1      26.191   4.356  49.644  1.00  0.00     0.082 A 
HETATM    5  C8  UNL     1      27.302   4.149  49.038  1.00  0.00    -0.015 A 
HETATM    6  C9  UNL     1      26.209   4.781  49.337  1.00  0.00     0.058 A 
HETATM    7  C10 UNL     1      24.896   4.881  50.146  1.00  0.00     0.144 A 
HETATM    8  C11 UNL     1      24.624   3.764  51.073  1.00  0.00     0.114 A 
HETATM    9  C12 UNL     1      25.870   3.348  50.510  1.00  0.00     0.095 A 
HETATM   10  O3  UNL     1      23.522   3.651  51.891  1.00  0.00    -0.347 OA
HETATM   11  C18 UNL     1      22.915   4.866  52.348  1.00  0.00     0.201 C 
HETATM   12  C19 UNL     1      23.501   6.066  51.656  1.00  0.00     0.196 C 
HETATM   13  O4  UNL     1      23.750   5.828  50.287  1.00  0.00    -0.368 OA
ENDROOT
BRANCH   1  14
HETATM   14  N1  UNL     1      27.409   6.968  49.064  1.00  0.00    -0.381 N 
HETATM   15  H3  UNL     1      27.185   7.164  50.086  1.00  0.00     0.160 HD
BRANCH  14  16
HETATM   16  C4  UNL     1      28.603   7.550  48.564  1.00  0.00     0.030 A 
HETATM   17  C3  UNL     1      29.403   6.962  47.609  1.00  0.00     0.032 A 
HETATM   18  C2  UNL     1      30.571   7.482  47.107  1.00  0.00     0.046 A 
HETATM   19  C1  UNL     1      30.930   8.709  47.647  1.00  0.00     0.138 A 
HETATM   20  F1  UNL     1      32.053   9.336  47.248  1.00  0.00    -0.204 F 
HETATM   21  C21 UNL     1      30.167   9.339  48.602  1.00  0.00     0.074 A 
HETATM   22  C20 UNL     1      29.015   8.759  49.053  1.00  0.00     0.056 A 
HETATM   23 CL1  UNL     1      30.658  10.897  49.259  1.00  0.00    -0.081 Cl
ENDBRANCH  14  16
ENDBRANCH   1  14
BRANCH   9  24
HETATM   24  O1  UNL     1      25.560   2.287  51.403  1.00  0.00    -0.349 OA
BRANCH  24  25
HETATM   25  C13 UNL     1      26.885   1.648  51.672  1.00  0.00     0.207 C 
BRANCH  25  26
HETATM   26  C14 UNL     1      27.341   2.038  52.988  1.00  0.00     0.145 C 
HETATM   27  C15 UNL     1      28.577   1.291  53.443  1.00  0.00     0.036 C 
HETATM   28  C16 UNL     1      28.028   0.199  54.296  1.00  0.00     0.029 C 
HETATM   29  C17 UNL     1      26.616   0.600  54.539  1.00  0.00     0.168 C 
HETATM   30  O2  UNL     1      26.323   1.763  53.891  1.00  0.00    -0.384 OA
ENDBRANCH  25  26
ENDBRANCH  24  25
ENDBRANCH   9  24
TORSDOF 5
ENDMDL
