MODEL 1
REMARK VINA RESULT:      -8.3      0.000      0.000
REMARK  4 active torsions:
REMARK  status: ('A' for Active; 'I' for Inactive)
REMARK    1  A    between atoms: O1_2  and  C2_3 
REMARK    2  A    between atoms: C2_3  and  C14_19 
REMARK    3  A    between atoms: C3_4  and  C4_5 
REMARK    4  A    between atoms: C6_9  and  C7_10 
ROOT
HETATM    1  C4  UNL     1      25.739   0.767  52.659  1.00  0.00     0.068 A 
HETATM    2  N1  UNL     1      26.598   0.052  52.078  1.00  0.00    -0.244 NA
HETATM    3  C5  UNL     1      26.801  -1.251  52.535  1.00  0.00     0.228 A 
HETATM    4  N2  UNL     1      25.998  -1.357  53.485  1.00  0.00    -0.267 NA
HETATM    5  C6  UNL     1      25.254  -0.128  53.661  1.00  0.00     0.195 A 
ENDROOT
BRANCH   1   6
HETATM    6  C3  UNL     1      25.916   1.955  51.843  1.00  0.00     0.069 C 
HETATM    7  C2  UNL     1      25.324   2.938  51.250  1.00  0.00     0.103 C 
BRANCH   7   8
HETATM    8  O1  UNL     1      26.475   3.535  50.722  1.00  0.00    -0.353 OA
HETATM    9  C1  UNL     1      26.661   3.552  49.323  1.00  0.00     0.210 C 
ENDBRANCH   7   8
BRANCH   7  10
HETATM   10  C14 UNL     1      24.133   3.670  50.891  1.00  0.00     0.100 C 
HETATM   11  C15 UNL     1      23.058   3.247  50.250  1.00  0.00     0.032 C 
HETATM   12  C16 UNL     1      21.696   3.587  49.695  1.00  0.00     0.146 C 
HETATM   13  N3  UNL     1      21.044   4.394  50.683  1.00  0.00    -0.413 N 
HETATM   14  C17 UNL     1      21.102   3.892  52.005  1.00  0.00     0.143 C 
HETATM   15  C18 UNL     1      21.104   5.797  50.499  1.00  0.00     0.118 C 
HETATM   16  C19 UNL     1      22.486   6.312  50.143  1.00  0.00     0.046 C 
HETATM   17  C20 UNL     1      23.464   6.210  51.265  1.00  0.00     0.177 C 
HETATM   18  O2  UNL     1      24.182   4.989  51.301  1.00  0.00    -0.348 OA
ENDBRANCH   7  10
ENDBRANCH   1   6
BRANCH   5  19
HETATM   19  C7  UNL     1      23.803  -0.419  53.734  1.00  0.00    -0.020 A 
HETATM   20  C8  UNL     1      23.050  -0.027  52.606  1.00  0.00     0.037 A 
HETATM   21  C9  UNL     1      21.687  -0.144  52.432  1.00  0.00     0.073 A 
HETATM   22 CL1  UNL     1      20.857   0.377  50.987  1.00  0.00    -0.081 Cl
HETATM   23  C10 UNL     1      20.964  -0.700  53.456  1.00  0.00     0.138 A 
HETATM   24  F1  UNL     1      19.623  -0.851  53.369  1.00  0.00    -0.204 F 
HETATM   25  C11 UNL     1      21.620  -1.109  54.592  1.00  0.00     0.051 A 
HETATM   26  C12 UNL     1      22.979  -0.954  54.675  1.00  0.00    -0.050 A 
HETATM   27  C13 UNL     1      23.630  -1.458  55.883  1.00  0.00     0.049 C 
ENDBRANCH   5  19
TORSDOF 4
ENDMDL
MODEL 2
REMARK VINA RESULT:      -8.2      3.273      7.044
REMARK  4 active torsions:
REMARK  status: ('A' for Active; 'I' for Inactive)
REMARK    1  A    between atoms: O1_2  and  C2_3 
REMARK    2  A    between atoms: C2_3  and  C14_19 
REMARK    3  A    between atoms: C3_4  and  C4_5 
REMARK    4  A    between atoms: C6_9  and  C7_10 
ROOT
HETATM    1  C4  UNL     1      22.413   2.016  50.985  1.00  0.00     0.068 A 
HETATM    2  N1  UNL     1      22.155   1.197  50.064  1.00  0.00    -0.244 NA
HETATM    3  C5  UNL     1      21.649   1.686  48.859  1.00  0.00     0.228 A 
HETATM    4  N2  UNL     1      21.585   2.918  49.046  1.00  0.00    -0.267 NA
HETATM    5  C6  UNL     1      22.052   3.255  50.374  1.00  0.00     0.195 A 
ENDROOT
BRANCH   1   6
HETATM    6  C3  UNL     1      22.882   1.046  51.959  1.00  0.00     0.069 C 
HETATM    7  C2  UNL     1      23.881   0.660  52.682  1.00  0.00     0.103 C 
BRANCH   7   8
HETATM    8  O1  UNL     1      23.239  -0.426  53.289  1.00  0.00    -0.353 OA
HETATM    9  C1  UNL     1      22.062  -0.201  54.035  1.00  0.00     0.210 C 
ENDBRANCH   7   8
BRANCH   7  10
HETATM   10  C14 UNL     1      25.243   0.795  53.137  1.00  0.00     0.100 C 
HETATM   11  C15 UNL     1      25.826   0.256  54.192  1.00  0.00     0.032 C 
HETATM   12  C16 UNL     1      27.088   0.107  55.007  1.00  0.00     0.146 C 
HETATM   13  N3  UNL     1      28.160  -0.061  54.071  1.00  0.00    -0.413 N 
HETATM   14  C17 UNL     1      27.926  -1.015  53.052  1.00  0.00     0.143 C 
HETATM   15  C18 UNL     1      28.904   1.099  53.741  1.00  0.00     0.118 C 
HETATM   16  C19 UNL     1      28.046   2.313  53.436  1.00  0.00     0.046 C 
HETATM   17  C20 UNL     1      27.278   2.192  52.163  1.00  0.00     0.177 C 
HETATM   18  O2  UNL     1      25.994   1.613  52.313  1.00  0.00    -0.348 OA
ENDBRANCH   7  10
ENDBRANCH   1   6
BRANCH   5  19
HETATM   19  C7  UNL     1      23.053   4.346  50.298  1.00  0.00    -0.020 A 
HETATM   20  C8  UNL     1      24.333   3.962  49.844  1.00  0.00     0.037 A 
HETATM   21  C9  UNL     1      25.447   4.763  49.717  1.00  0.00     0.073 A 
HETATM   22 CL1  UNL     1      26.988   4.179  49.140  1.00  0.00    -0.081 Cl
HETATM   23  C10 UNL     1      25.320   6.084  50.066  1.00  0.00     0.138 A 
HETATM   24  F1  UNL     1      26.363   6.939  49.975  1.00  0.00    -0.204 F 
HETATM   25  C11 UNL     1      24.106   6.541  50.520  1.00  0.00     0.051 A 
HETATM   26  C12 UNL     1      23.053   5.670  50.611  1.00  0.00    -0.050 A 
HETATM   27  C13 UNL     1      21.772   6.224  51.046  1.00  0.00     0.049 C 
ENDBRANCH   5  19
TORSDOF 4
ENDMDL
MODEL 3
REMARK VINA RESULT:      -8.1      2.104      5.484
REMARK  4 active torsions:
REMARK  status: ('A' for Active; 'I' for Inactive)
REMARK    1  A    between atoms: O1_2  and  C2_3 
REMARK    2  A    between atoms: C2_3  and  C14_19 
REMARK    3  A    between atoms: C3_4  and  C4_5 
REMARK    4  A    between atoms: C6_9  and  C7_10 
ROOT
HETATM    1  C4  UNL     1      23.003   2.978  51.344  1.00  0.00     0.068 A 
HETATM    2  N1  UNL     1      23.121   4.134  51.830  1.00  0.00    -0.244 NA
HETATM    3  C5  UNL     1      21.976   4.780  52.302  1.00  0.00     0.228 A 
HETATM    4  N2  UNL     1      21.065   3.953  52.090  1.00  0.00    -0.267 NA
HETATM    5  C6  UNL     1      21.599   2.753  51.482  1.00  0.00     0.195 A 
ENDROOT
BRANCH   1   6
HETATM    6  C3  UNL     1      24.404   2.777  51.022  1.00  0.00     0.069 C 
HETATM    7  C2  UNL     1      25.554   2.383  51.462  1.00  0.00     0.103 C 
BRANCH   7   8
HETATM    8  O1  UNL     1      26.273   2.611  50.284  1.00  0.00    -0.353 OA
HETATM    9  C1  UNL     1      26.202   3.879  49.668  1.00  0.00     0.210 C 
ENDBRANCH   7   8
BRANCH   7  10
HETATM   10  C14 UNL     1      26.397   1.859  52.509  1.00  0.00     0.100 C 
HETATM   11  C15 UNL     1      26.098   1.002  53.469  1.00  0.00     0.032 C 
HETATM   12  C16 UNL     1      26.578   0.227  54.672  1.00  0.00     0.146 C 
HETATM   13  N3  UNL     1      27.875  -0.280  54.339  1.00  0.00    -0.413 N 
HETATM   14  C17 UNL     1      27.969  -0.912  53.076  1.00  0.00     0.143 C 
HETATM   15  C18 UNL     1      28.987   0.470  54.793  1.00  0.00     0.118 C 
HETATM   16  C19 UNL     1      28.862   1.963  54.549  1.00  0.00     0.046 C 
HETATM   17  C20 UNL     1      28.938   2.337  53.107  1.00  0.00     0.177 C 
HETATM   18  O2  UNL     1      27.685   2.360  52.447  1.00  0.00    -0.348 OA
ENDBRANCH   7  10
ENDBRANCH   1   6
BRANCH   5  19
HETATM   19  C7  UNL     1      21.125   1.556  52.218  1.00  0.00    -0.020 A 
HETATM   20  C8  UNL     1      22.092   0.922  53.026  1.00  0.00     0.037 A 
HETATM   21  C9  UNL     1      21.927  -0.222  53.780  1.00  0.00     0.073 A 
HETATM   22 CL1  UNL     1      23.199  -0.923  54.749  1.00  0.00    -0.081 Cl
HETATM   23  C10 UNL     1      20.695  -0.825  53.753  1.00  0.00     0.138 A 
HETATM   24  F1  UNL     1      20.448  -1.951  54.460  1.00  0.00    -0.204 F 
HETATM   25  C11 UNL     1      19.696  -0.271  52.990  1.00  0.00     0.051 A 
HETATM   26  C12 UNL     1      19.952   0.869  52.275  1.00  0.00    -0.050 A 
HETATM   27  C13 UNL     1      18.836   1.445  51.526  1.00  0.00     0.049 C 
ENDBRANCH   5  19
TORSDOF 4
ENDMDL
MODEL 4
REMARK VINA RESULT:      -8.1      0.963      1.367
REMARK  4 active torsions:
REMARK  status: ('A' for Active; 'I' for Inactive)
REMARK    1  A    between atoms: O1_2  and  C2_3 
REMARK    2  A    between atoms: C2_3  and  C14_19 
REMARK    3  A    between atoms: C3_4  and  C4_5 
REMARK    4  A    between atoms: C6_9  and  C7_10 
ROOT
HETATM    1  C4  UNL     1      25.293   1.156  52.478  1.00  0.00     0.068 A 
HETATM    2  N1  UNL     1      26.200   0.529  51.869  1.00  0.00    -0.244 NA
HETATM    3  C5  UNL     1      26.553  -0.743  52.322  1.00  0.00     0.228 A 
HETATM    4  N2  UNL     1      25.800  -0.925  53.300  1.00  0.00    -0.267 NA
HETATM    5  C6  UNL     1      24.940   0.223  53.500  1.00  0.00     0.195 A 
ENDROOT
BRANCH   1   6
HETATM    6  C3  UNL     1      25.318   2.351  51.653  1.00  0.00     0.069 C 
HETATM    7  C2  UNL     1      24.606   3.216  51.009  1.00  0.00     0.103 C 
BRANCH   7   8
HETATM    8  O1  UNL     1      25.670   3.992  50.538  1.00  0.00    -0.353 OA
HETATM    9  C1  UNL     1      26.612   3.411  49.661  1.00  0.00     0.210 C 
ENDBRANCH   7   8
BRANCH   7  10
HETATM   10  C14 UNL     1      23.333   3.734  50.570  1.00  0.00     0.100 C 
HETATM   11  C15 UNL     1      22.206   3.859  51.248  1.00  0.00     0.032 C 
HETATM   12  C16 UNL     1      20.761   4.294  51.238  1.00  0.00     0.146 C 
HETATM   13  N3  UNL     1      20.717   5.540  50.533  1.00  0.00    -0.413 N 
HETATM   14  C17 UNL     1      21.682   6.494  50.933  1.00  0.00     0.143 C 
HETATM   15  C18 UNL     1      20.364   5.483  49.162  1.00  0.00     0.118 C 
HETATM   16  C19 UNL     1      21.088   4.398  48.386  1.00  0.00     0.046 C 
HETATM   17  C20 UNL     1      22.546   4.664  48.213  1.00  0.00     0.177 C 
HETATM   18  O2  UNL     1      23.358   4.141  49.249  1.00  0.00    -0.348 OA
ENDBRANCH   7  10
ENDBRANCH   1   6
BRANCH   5  19
HETATM   19  C7  UNL     1      23.530  -0.215  53.627  1.00  0.00    -0.020 A 
HETATM   20  C8  UNL     1      22.679   0.174  52.570  1.00  0.00     0.037 A 
HETATM   21  C9  UNL     1      21.326  -0.067  52.458  1.00  0.00     0.073 A 
HETATM   22 CL1  UNL     1      20.367   0.462  51.099  1.00  0.00    -0.081 Cl
HETATM   23  C10 UNL     1      20.720  -0.759  53.477  1.00  0.00     0.138 A 
HETATM   24  F1  UNL     1      19.397  -1.036  53.448  1.00  0.00    -0.204 F 
HETATM   25  C11 UNL     1      21.477  -1.174  54.545  1.00  0.00     0.051 A 
HETATM   26  C12 UNL     1      22.817  -0.890  54.569  1.00  0.00    -0.050 A 
HETATM   27  C13 UNL     1      23.583  -1.405  55.703  1.00  0.00     0.049 C 
ENDBRANCH   5  19
TORSDOF 4
ENDMDL
MODEL 5
REMARK VINA RESULT:      -8.0      3.317      4.860
REMARK  4 active torsions:
REMARK  status: ('A' for Active; 'I' for Inactive)
REMARK    1  A    between atoms: O1_2  and  C2_3 
REMARK    2  A    between atoms: C2_3  and  C14_19 
REMARK    3  A    between atoms: C3_4  and  C4_5 
REMARK    4  A    between atoms: C6_9  and  C7_10 
ROOT
HETATM    1  C4  UNL     1      23.305   0.557  52.086  1.00  0.00     0.068 A 
HETATM    2  N1  UNL     1      22.339   0.732  52.875  1.00  0.00    -0.244 NA
HETATM    3  C5  UNL     1      22.359   0.081  54.110  1.00  0.00     0.228 A 
HETATM    4  N2  UNL     1      23.433  -0.556  54.088  1.00  0.00    -0.267 NA
HETATM    5  C6  UNL     1      24.133  -0.328  52.842  1.00  0.00     0.195 A 
ENDROOT
BRANCH   1   6
HETATM    6  C3  UNL     1      22.814   1.404  51.014  1.00  0.00     0.069 C 
HETATM    7  C2  UNL     1      23.075   2.411  50.246  1.00  0.00     0.103 C 
BRANCH   7   8
HETATM    8  O1  UNL     1      21.869   2.398  49.536  1.00  0.00    -0.353 OA
HETATM    9  C1  UNL     1      21.480   1.221  48.861  1.00  0.00     0.210 C 
ENDBRANCH   7   8
BRANCH   7  10
HETATM   10  C14 UNL     1      23.946   3.469  49.797  1.00  0.00     0.100 C 
HETATM   11  C15 UNL     1      23.652   4.548  49.093  1.00  0.00     0.032 C 
HETATM   12  C16 UNL     1      24.153   5.814  48.443  1.00  0.00     0.146 C 
HETATM   13  N3  UNL     1      25.062   6.416  49.372  1.00  0.00    -0.413 N 
HETATM   14  C17 UNL     1      24.589   6.509  50.703  1.00  0.00     0.143 C 
HETATM   15  C18 UNL     1      26.441   6.160  49.170  1.00  0.00     0.118 C 
HETATM   16  C19 UNL     1      26.762   4.702  48.900  1.00  0.00     0.046 C 
HETATM   17  C20 UNL     1      26.560   3.820  50.087  1.00  0.00     0.177 C 
HETATM   18  O2  UNL     1      25.257   3.273  50.189  1.00  0.00    -0.348 OA
ENDBRANCH   7  10
ENDBRANCH   1   6
BRANCH   5  19
HETATM   19  C7  UNL     1      25.541   0.049  53.111  1.00  0.00    -0.020 A 
HETATM   20  C8  UNL     1      26.480  -0.998  52.997  1.00  0.00     0.037 A 
HETATM   21  C9  UNL     1      27.837  -0.930  53.229  1.00  0.00     0.073 A 
HETATM   22 CL1  UNL     1      28.911  -2.296  53.055  1.00  0.00    -0.081 Cl
HETATM   23  C10 UNL     1      28.353   0.282  53.617  1.00  0.00     0.138 A 
HETATM   24  F1  UNL     1      29.672   0.437  53.867  1.00  0.00    -0.204 F 
HETATM   25  C11 UNL     1      27.506   1.355  53.753  1.00  0.00     0.051 A 
HETATM   26  C12 UNL     1      26.169   1.192  53.498  1.00  0.00    -0.050 A 
HETATM   27  C13 UNL     1      25.326   2.381  53.605  1.00  0.00     0.049 C 
ENDBRANCH   5  19
TORSDOF 4
ENDMDL
MODEL 6
REMARK VINA RESULT:      -7.9      2.888      4.431
REMARK  4 active torsions:
REMARK  status: ('A' for Active; 'I' for Inactive)
REMARK    1  A    between atoms: O1_2  and  C2_3 
REMARK    2  A    between atoms: C2_3  and  C14_19 
REMARK    3  A    between atoms: C3_4  and  C4_5 
REMARK    4  A    between atoms: C6_9  and  C7_10 
ROOT
HETATM    1  C4  UNL     1      21.885   1.278  51.161  1.00  0.00     0.068 A 
HETATM    2  N1  UNL     1      21.074   2.187  51.479  1.00  0.00    -0.244 NA
HETATM    3  C5  UNL     1      20.465   2.130  52.734  1.00  0.00     0.228 A 
HETATM    4  N2  UNL     1      20.939   1.093  53.242  1.00  0.00    -0.267 NA
HETATM    5  C6  UNL     1      21.868   0.459  52.331  1.00  0.00     0.195 A 
ENDROOT
BRANCH   1   6
HETATM    6  C3  UNL     1      22.208   1.783  49.838  1.00  0.00     0.069 C 
HETATM    7  C2  UNL     1      22.887   2.652  49.165  1.00  0.00     0.103 C 
BRANCH   7   8
HETATM    8  O1  UNL     1      22.456   2.256  47.894  1.00  0.00    -0.353 OA
HETATM    9  C1  UNL     1      21.128   2.532  47.500  1.00  0.00     0.210 C 
ENDBRANCH   7   8
BRANCH   7  10
HETATM   10  C14 UNL     1      23.810   3.759  49.094  1.00  0.00     0.100 C 
HETATM   11  C15 UNL     1      23.603   4.989  48.659  1.00  0.00     0.032 C 
HETATM   12  C16 UNL     1      24.183   6.360  48.408  1.00  0.00     0.146 C 
HETATM   13  N3  UNL     1      24.987   6.677  49.550  1.00  0.00    -0.413 N 
HETATM   14  C17 UNL     1      24.370   6.449  50.803  1.00  0.00     0.143 C 
HETATM   15  C18 UNL     1      26.378   6.432  49.437  1.00  0.00     0.118 C 
HETATM   16  C19 UNL     1      26.717   5.077  48.841  1.00  0.00     0.046 C 
HETATM   17  C20 UNL     1      26.378   3.934  49.737  1.00  0.00     0.177 C 
HETATM   18  O2  UNL     1      25.069   3.424  49.559  1.00  0.00    -0.348 OA
ENDBRANCH   7  10
ENDBRANCH   1   6
BRANCH   5  19
HETATM   19  C7  UNL     1      23.142   0.163  53.029  1.00  0.00    -0.020 A 
HETATM   20  C8  UNL     1      24.289   0.771  52.477  1.00  0.00     0.037 A 
HETATM   21  C9  UNL     1      25.593   0.633  52.904  1.00  0.00     0.073 A 
HETATM   22 CL1  UNL     1      26.942   1.438  52.142  1.00  0.00    -0.081 Cl
HETATM   23  C10 UNL     1      25.822  -0.182  53.983  1.00  0.00     0.138 A 
HETATM   24  F1  UNL     1      27.070  -0.376  54.466  1.00  0.00    -0.204 F 
HETATM   25  C11 UNL     1      24.758  -0.814  54.581  1.00  0.00     0.051 A 
HETATM   26  C12 UNL     1      23.496  -0.615  54.087  1.00  0.00    -0.050 A 
HETATM   27  C13 UNL     1      22.397  -1.268  54.797  1.00  0.00     0.049 C 
ENDBRANCH   5  19
TORSDOF 4
ENDMDL
MODEL 7
REMARK VINA RESULT:      -7.7      3.280      7.045
REMARK  4 active torsions:
REMARK  status: ('A' for Active; 'I' for Inactive)
REMARK    1  A    between atoms: O1_2  and  C2_3 
REMARK    2  A    between atoms: C2_3  and  C14_19 
REMARK    3  A    between atoms: C3_4  and  C4_5 
REMARK    4  A    between atoms: C6_9  and  C7_10 
ROOT
HETATM    1  C4  UNL     1      22.013   2.198  52.432  1.00  0.00     0.068 A 
HETATM    2  N1  UNL     1      20.883   1.650  52.334  1.00  0.00    -0.244 NA
HETATM    3  C5  UNL     1      19.796   2.427  51.931  1.00  0.00     0.228 A 
HETATM    4  N2  UNL     1      20.293   3.560  51.763  1.00  0.00    -0.267 NA
HETATM    5  C6  UNL     1      21.711   3.541  52.049  1.00  0.00     0.195 A 
ENDROOT
BRANCH   1   6
HETATM    6  C3  UNL     1      22.745   1.020  52.861  1.00  0.00     0.069 C 
HETATM    7  C2  UNL     1      23.896   0.550  53.212  1.00  0.00     0.103 C 
BRANCH   7   8
HETATM    8  O1  UNL     1      23.480  -0.768  53.433  1.00  0.00    -0.353 OA
HETATM    9  C1  UNL     1      22.507  -1.026  54.423  1.00  0.00     0.210 C 
ENDBRANCH   7   8
BRANCH   7  10
HETATM   10  C14 UNL     1      25.306   0.713  53.469  1.00  0.00     0.100 C 
HETATM   11  C15 UNL     1      26.041   0.200  54.440  1.00  0.00     0.032 C 
HETATM   12  C16 UNL     1      27.407   0.085  55.072  1.00  0.00     0.146 C 
HETATM   13  N3  UNL     1      28.339  -0.083  53.998  1.00  0.00    -0.413 N 
HETATM   14  C17 UNL     1      27.981  -1.057  53.036  1.00  0.00     0.143 C 
HETATM   15  C18 UNL     1      29.010   1.082  53.549  1.00  0.00     0.118 C 
HETATM   16  C19 UNL     1      28.097   2.278  53.350  1.00  0.00     0.046 C 
HETATM   17  C20 UNL     1      27.160   2.124  52.199  1.00  0.00     0.177 C 
HETATM   18  O2  UNL     1      25.920   1.528  52.536  1.00  0.00    -0.348 OA
ENDBRANCH   7  10
ENDBRANCH   1   6
BRANCH   5  19
HETATM   19  C7  UNL     1      22.463   4.163  50.934  1.00  0.00    -0.020 A 
HETATM   20  C8  UNL     1      22.860   5.501  51.144  1.00  0.00     0.037 A 
HETATM   21  C9  UNL     1      23.532   6.319  50.261  1.00  0.00     0.073 A 
HETATM   22 CL1  UNL     1      23.975   7.968  50.628  1.00  0.00    -0.081 Cl
HETATM   23  C10 UNL     1      23.860   5.795  49.036  1.00  0.00     0.138 A 
HETATM   24  F1  UNL     1      24.516   6.529  48.110  1.00  0.00    -0.204 F 
HETATM   25  C11 UNL     1      23.510   4.497  48.750  1.00  0.00     0.051 A 
HETATM   26  C12 UNL     1      22.844   3.758  49.692  1.00  0.00    -0.050 A 
HETATM   27  C13 UNL     1      22.548   2.367  49.353  1.00  0.00     0.049 C 
ENDBRANCH   5  19
TORSDOF 4
ENDMDL
MODEL 8
REMARK VINA RESULT:      -7.6      3.928      5.351
REMARK  4 active torsions:
REMARK  status: ('A' for Active; 'I' for Inactive)
REMARK    1  A    between atoms: O1_2  and  C2_3 
REMARK    2  A    between atoms: C2_3  and  C14_19 
REMARK    3  A    between atoms: C3_4  and  C4_5 
REMARK    4  A    between atoms: C6_9  and  C7_10 
ROOT
HETATM    1  C4  UNL     1      24.937   3.282  50.822  1.00  0.00     0.068 A 
HETATM    2  N1  UNL     1      24.198   4.266  51.088  1.00  0.00    -0.244 NA
HETATM    3  C5  UNL     1      23.151   4.089  51.993  1.00  0.00     0.228 A 
HETATM    4  N2  UNL     1      23.246   2.888  52.320  1.00  0.00    -0.267 NA
HETATM    5  C6  UNL     1      24.358   2.263  51.637  1.00  0.00     0.195 A 
ENDROOT
BRANCH   1   6
HETATM    6  C3  UNL     1      25.810   3.964  49.883  1.00  0.00     0.069 C 
HETATM    7  C2  UNL     1      26.109   5.095  49.334  1.00  0.00     0.103 C 
BRANCH   7   8
HETATM    8  O1  UNL     1      27.157   4.624  48.536  1.00  0.00    -0.353 OA
HETATM    9  C1  UNL     1      28.370   5.345  48.495  1.00  0.00     0.210 C 
ENDBRANCH   7   8
BRANCH   7  10
HETATM   10  C14 UNL     1      25.899   6.511  49.155  1.00  0.00     0.100 C 
HETATM   11  C15 UNL     1      26.122   7.499  50.004  1.00  0.00     0.032 C 
HETATM   12  C16 UNL     1      26.071   8.985  50.261  1.00  0.00     0.146 C 
HETATM   13  N3  UNL     1      26.553   9.622  49.072  1.00  0.00    -0.413 N 
HETATM   14  C17 UNL     1      27.757   9.091  48.550  1.00  0.00     0.143 C 
HETATM   15  C18 UNL     1      25.575  10.082  48.156  1.00  0.00     0.118 C 
HETATM   16  C19 UNL     1      24.473   9.077  47.877  1.00  0.00     0.046 C 
HETATM   17  C20 UNL     1      24.937   7.889  47.102  1.00  0.00     0.177 C 
HETATM   18  O2  UNL     1      25.393   6.815  47.905  1.00  0.00    -0.348 OA
ENDBRANCH   7  10
ENDBRANCH   1   6
BRANCH   5  19
HETATM   19  C7  UNL     1      25.211   1.541  52.612  1.00  0.00    -0.020 A 
HETATM   20  C8  UNL     1      26.476   2.120  52.852  1.00  0.00     0.037 A 
HETATM   21  C9  UNL     1      27.470   1.636  53.676  1.00  0.00     0.073 A 
HETATM   22 CL1  UNL     1      29.004   2.439  53.901  1.00  0.00    -0.081 Cl
HETATM   23  C10 UNL     1      27.224   0.463  54.345  1.00  0.00     0.138 A 
HETATM   24  F1  UNL     1      28.144  -0.082  55.170  1.00  0.00    -0.204 F 
HETATM   25  C11 UNL     1      26.015  -0.166  54.166  1.00  0.00     0.051 A 
HETATM   26  C12 UNL     1      25.086   0.391  53.327  1.00  0.00    -0.050 A 
HETATM   27  C13 UNL     1      23.798  -0.293  53.219  1.00  0.00     0.049 C 
ENDBRANCH   5  19
TORSDOF 4
ENDMDL
MODEL 9
REMARK VINA RESULT:      -7.4      1.863      2.618
REMARK  4 active torsions:
REMARK  status: ('A' for Active; 'I' for Inactive)
REMARK    1  A    between atoms: O1_2  and  C2_3 
REMARK    2  A    between atoms: C2_3  and  C14_19 
REMARK    3  A    between atoms: C3_4  and  C4_5 
REMARK    4  A    between atoms: C6_9  and  C7_10 
ROOT
HETATM    1  C4  UNL     1      25.861   2.231  51.850  1.00  0.00     0.068 A 
HETATM    2  N1  UNL     1      26.784   1.384  51.721  1.00  0.00    -0.244 NA
HETATM    3  C5  UNL     1      26.902   0.373  52.676  1.00  0.00     0.228 A 
HETATM    4  N2  UNL     1      25.970   0.612  53.471  1.00  0.00    -0.267 NA
HETATM    5  C6  UNL     1      25.226   1.779  53.047  1.00  0.00     0.195 A 
ENDROOT
BRANCH   1   6
HETATM    6  C3  UNL     1      26.170   3.012  50.666  1.00  0.00     0.069 C 
HETATM    7  C2  UNL     1      25.838   4.032  49.945  1.00  0.00     0.103 C 
BRANCH   7   8
HETATM    8  O1  UNL     1      26.837   3.886  48.976  1.00  0.00    -0.353 OA
HETATM    9  C1  UNL     1      27.710   4.966  48.720  1.00  0.00     0.210 C 
ENDBRANCH   7   8
BRANCH   7  10
HETATM   10  C14 UNL     1      24.994   5.170  49.673  1.00  0.00     0.100 C 
HETATM   11  C15 UNL     1      24.354   5.485  48.561  1.00  0.00     0.032 C 
HETATM   12  C16 UNL     1      23.445   6.460  47.853  1.00  0.00     0.146 C 
HETATM   13  N3  UNL     1      22.419   6.812  48.789  1.00  0.00    -0.413 N 
HETATM   14  C17 UNL     1      21.812   5.722  49.456  1.00  0.00     0.143 C 
HETATM   15  C18 UNL     1      22.602   8.017  49.510  1.00  0.00     0.118 C 
HETATM   16  C19 UNL     1      23.998   8.185  50.082  1.00  0.00     0.046 C 
HETATM   17  C20 UNL     1      24.303   7.233  51.190  1.00  0.00     0.177 C 
HETATM   18  O2  UNL     1      24.877   6.011  50.764  1.00  0.00    -0.348 OA
ENDBRANCH   7  10
ENDBRANCH   1   6
BRANCH   5  19
HETATM   19  C7  UNL     1      23.775   1.478  53.028  1.00  0.00    -0.020 A 
HETATM   20  C8  UNL     1      23.421   0.182  53.461  1.00  0.00     0.037 A 
HETATM   21  C9  UNL     1      22.155  -0.364  53.506  1.00  0.00     0.073 A 
HETATM   22 CL1  UNL     1      21.831  -1.987  54.064  1.00  0.00    -0.081 Cl
HETATM   23  C10 UNL     1      21.111   0.421  53.087  1.00  0.00     0.138 A 
HETATM   24  F1  UNL     1      19.839  -0.037  53.097  1.00  0.00    -0.204 F 
HETATM   25  C11 UNL     1      21.369   1.698  52.649  1.00  0.00     0.051 A 
HETATM   26  C12 UNL     1      22.660   2.156  52.642  1.00  0.00    -0.050 A 
HETATM   27  C13 UNL     1      22.868   3.540  52.219  1.00  0.00     0.049 C 
ENDBRANCH   5  19
TORSDOF 4
ENDMDL
