MODEL 1
REMARK VINA RESULT:      -8.5      0.000      0.000
REMARK  8 active torsions:
REMARK  status: ('A' for Active; 'I' for Inactive)
REMARK    1  A    between atoms: O1_2  and  C2_3 
REMARK    2  A    between atoms: C6_9  and  N3_10 
REMARK    3  A    between atoms: N3_10  and  C7_11 
REMARK    4  A    between atoms: C15_21  and  O2_22 
REMARK    5  A    between atoms: O2_22  and  C16_23 
REMARK    6  A    between atoms: C16_23  and  C17_24 
REMARK    7  A    between atoms: C17_24  and  C18_25 
REMARK    8  A    between atoms: C18_25  and  N4_26 
ROOT
HETATM    1  C2  UNL     1      20.142   0.028  52.532  1.00  0.00     0.077 A 
HETATM    2  C3  UNL     1      20.241  -0.609  53.683  1.00  0.00     0.067 A 
HETATM    3  C4  UNL     1      21.642  -0.758  54.078  1.00  0.00     0.070 A 
HETATM    4  N1  UNL     1      21.919  -1.380  55.224  1.00  0.00    -0.241 NA
HETATM    5  C5  UNL     1      23.186  -1.539  55.630  1.00  0.00     0.235 A 
HETATM    6  N2  UNL     1      24.120  -1.040  54.820  1.00  0.00    -0.224 NA
HETATM    7  C6  UNL     1      23.874  -0.413  53.666  1.00  0.00     0.138 A 
HETATM    8  C13 UNL     1      22.583  -0.232  53.218  1.00  0.00     0.019 A 
HETATM    9  C14 UNL     1      22.469   0.470  51.934  1.00  0.00     0.084 A 
HETATM   10  C15 UNL     1      21.037   0.630  51.533  1.00  0.00     0.182 A 
ENDROOT
BRANCH   7  11
HETATM   11  N3  UNL     1      25.001   0.050  52.942  1.00  0.00    -0.340 N 
HETATM   12  H6  UNL     1      24.777   0.599  52.075  1.00  0.00     0.167 HD
BRANCH  11  13
HETATM   13  C7  UNL     1      26.395  -0.076  53.145  1.00  0.00     0.035 A 
HETATM   14  C8  UNL     1      27.076  -1.264  52.853  1.00  0.00     0.032 A 
HETATM   15  C9  UNL     1      28.427  -1.389  53.050  1.00  0.00     0.046 A 
HETATM   16  C10 UNL     1      29.154  -0.333  53.547  1.00  0.00     0.138 A 
HETATM   17  F1  UNL     1      30.480  -0.554  53.706  1.00  0.00    -0.204 F 
HETATM   18  C11 UNL     1      28.550   0.866  53.856  1.00  0.00     0.074 A 
HETATM   19 CL1  UNL     1      29.516   2.183  54.486  1.00  0.00    -0.081 Cl
HETATM   20  C12 UNL     1      27.193   0.934  53.637  1.00  0.00     0.056 A 
ENDBRANCH  11  13
ENDBRANCH   7  11
BRANCH  10  21
HETATM   21  O2  UNL     1      20.704   1.963  51.276  1.00  0.00    -0.379 OA
BRANCH  21  22
HETATM   22  C16 UNL     1      21.187   2.811  52.268  1.00  0.00     0.170 C 
BRANCH  22  23
HETATM   23  C17 UNL     1      21.660   4.101  51.632  1.00  0.00     0.056 C 
BRANCH  23  24
HETATM   24  C18 UNL     1      23.001   4.431  52.224  1.00  0.00     0.274 C 
BRANCH  24  25
HETATM   25  N4  UNL     1      24.072   4.532  51.291  1.00  0.00     0.092 N 
HETATM   26  C19 UNL     1      24.847   3.304  51.353  1.00  0.00     0.298 C 
HETATM   27  C20 UNL     1      26.088   3.399  50.526  1.00  0.00     0.198 C 
HETATM   28  O3  UNL     1      26.114   4.638  49.908  1.00  0.00    -0.388 OA
HETATM   29  C21 UNL     1      24.992   4.887  49.130  1.00  0.00     0.198 C 
HETATM   30  C22 UNL     1      23.696   4.820  49.943  1.00  0.00     0.298 C 
ENDBRANCH  24  25
ENDBRANCH  23  24
ENDBRANCH  22  23
ENDBRANCH  21  22
ENDBRANCH  10  21
BRANCH   1  31
HETATM   31  O1  UNL     1      18.840   0.217  52.077  1.00  0.00    -0.357 OA
HETATM   32  C1  UNL     1      17.810  -0.676  52.406  1.00  0.00     0.209 C 
ENDBRANCH   1  31
TORSDOF 8
ENDMDL
MODEL 2
REMARK VINA RESULT:      -8.3      3.447      6.279
REMARK  8 active torsions:
REMARK  status: ('A' for Active; 'I' for Inactive)
REMARK    1  A    between atoms: O1_2  and  C2_3 
REMARK    2  A    between atoms: C6_9  and  N3_10 
REMARK    3  A    between atoms: N3_10  and  C7_11 
REMARK    4  A    between atoms: C15_21  and  O2_22 
REMARK    5  A    between atoms: O2_22  and  C16_23 
REMARK    6  A    between atoms: C16_23  and  C17_24 
REMARK    7  A    between atoms: C17_24  and  C18_25 
REMARK    8  A    between atoms: C18_25  and  N4_26 
ROOT
HETATM    1  C2  UNL     1      22.445   0.649  52.516  1.00  0.00     0.077 A 
HETATM    2  C3  UNL     1      21.790   0.266  51.436  1.00  0.00     0.067 A 
HETATM    3  C4  UNL     1      21.946   1.240  50.357  1.00  0.00     0.070 A 
HETATM    4  N1  UNL     1      21.348   1.001  49.190  1.00  0.00    -0.241 NA
HETATM    5  C5  UNL     1      21.464   1.862  48.171  1.00  0.00     0.235 A 
HETATM    6  N2  UNL     1      22.204   2.945  48.408  1.00  0.00    -0.224 NA
HETATM    7  C6  UNL     1      22.815   3.213  49.566  1.00  0.00     0.138 A 
HETATM    8  C13 UNL     1      22.717   2.349  50.636  1.00  0.00     0.019 A 
HETATM    9  C14 UNL     1      23.438   2.777  51.840  1.00  0.00     0.084 A 
HETATM   10  C15 UNL     1      23.285   1.777  52.943  1.00  0.00     0.182 A 
ENDROOT
BRANCH   7  11
HETATM   11  N3  UNL     1      23.560   4.417  49.628  1.00  0.00    -0.340 N 
HETATM   12  H6  UNL     1      23.037   5.244  50.011  1.00  0.00     0.167 HD
BRANCH  11  13
HETATM   13  C7  UNL     1      24.889   4.747  49.274  1.00  0.00     0.035 A 
HETATM   14  C8  UNL     1      25.934   3.825  49.405  1.00  0.00     0.032 A 
HETATM   15  C9  UNL     1      27.224   4.144  49.065  1.00  0.00     0.046 A 
HETATM   16  C10 UNL     1      27.523   5.395  48.581  1.00  0.00     0.138 A 
HETATM   17  F1  UNL     1      28.823   5.614  48.274  1.00  0.00    -0.204 F 
HETATM   18  C11 UNL     1      26.544   6.353  48.427  1.00  0.00     0.074 A 
HETATM   19 CL1  UNL     1      26.971   7.933  47.808  1.00  0.00    -0.081 Cl
HETATM   20  C12 UNL     1      25.269   5.977  48.783  1.00  0.00     0.056 A 
ENDBRANCH  11  13
ENDBRANCH   7  11
BRANCH  10  21
HETATM   21  O2  UNL     1      24.518   1.345  53.441  1.00  0.00    -0.379 OA
BRANCH  21  22
HETATM   22  C16 UNL     1      25.425   2.395  53.544  1.00  0.00     0.170 C 
BRANCH  22  23
HETATM   23  C17 UNL     1      26.830   1.832  53.613  1.00  0.00     0.056 C 
BRANCH  23  24
HETATM   24  C18 UNL     1      26.797   0.647  54.534  1.00  0.00     0.274 C 
BRANCH  24  25
HETATM   25  N4  UNL     1      27.554  -0.481  54.105  1.00  0.00     0.092 N 
HETATM   26  C19 UNL     1      26.852  -1.106  52.998  1.00  0.00     0.298 C 
HETATM   27  C20 UNL     1      27.496  -2.396  52.601  1.00  0.00     0.198 C 
HETATM   28  O3  UNL     1      28.609  -2.598  53.400  1.00  0.00    -0.388 OA
HETATM   29  C21 UNL     1      29.526  -1.558  53.336  1.00  0.00     0.198 C 
HETATM   30  C22 UNL     1      28.913  -0.218  53.754  1.00  0.00     0.298 C 
ENDBRANCH  24  25
ENDBRANCH  23  24
ENDBRANCH  22  23
ENDBRANCH  21  22
ENDBRANCH  10  21
BRANCH   1  31
HETATM   31  O1  UNL     1      22.352  -0.221  53.598  1.00  0.00    -0.357 OA
HETATM   32  C1  UNL     1      21.130  -0.473  54.237  1.00  0.00     0.209 C 
ENDBRANCH   1  31
TORSDOF 8
ENDMDL
MODEL 3
REMARK VINA RESULT:      -8.2      3.184      5.646
REMARK  8 active torsions:
REMARK  status: ('A' for Active; 'I' for Inactive)
REMARK    1  A    between atoms: O1_2  and  C2_3 
REMARK    2  A    between atoms: C6_9  and  N3_10 
REMARK    3  A    between atoms: N3_10  and  C7_11 
REMARK    4  A    between atoms: C15_21  and  O2_22 
REMARK    5  A    between atoms: O2_22  and  C16_23 
REMARK    6  A    between atoms: C16_23  and  C17_24 
REMARK    7  A    between atoms: C17_24  and  C18_25 
REMARK    8  A    between atoms: C18_25  and  N4_26 
ROOT
HETATM    1  C2  UNL     1      20.719   0.293  52.600  1.00  0.00     0.077 A 
HETATM    2  C3  UNL     1      20.297   0.282  51.350  1.00  0.00     0.067 A 
HETATM    3  C4  UNL     1      21.204   1.036  50.485  1.00  0.00     0.070 A 
HETATM    4  N1  UNL     1      20.923   1.121  49.185  1.00  0.00    -0.241 NA
HETATM    5  C5  UNL     1      21.725   1.797  48.353  1.00  0.00     0.235 A 
HETATM    6  N2  UNL     1      22.795   2.363  48.911  1.00  0.00    -0.224 NA
HETATM    7  C6  UNL     1      23.103   2.297  50.209  1.00  0.00     0.138 A 
HETATM    8  C13 UNL     1      22.301   1.609  51.095  1.00  0.00     0.019 A 
HETATM    9  C14 UNL     1      22.763   1.626  52.487  1.00  0.00     0.084 A 
HETATM   10  C15 UNL     1      21.840   0.848  53.372  1.00  0.00     0.182 A 
ENDROOT
BRANCH   7  11
HETATM   11  N3  UNL     1      24.286   2.962  50.617  1.00  0.00    -0.340 N 
HETATM   12  H6  UNL     1      24.577   2.784  51.611  1.00  0.00     0.167 HD
BRANCH  11  13
HETATM   13  C7  UNL     1      25.177   3.837  49.954  1.00  0.00     0.035 A 
HETATM   14  C8  UNL     1      26.456   3.423  49.561  1.00  0.00     0.032 A 
HETATM   15  C9  UNL     1      27.324   4.269  48.919  1.00  0.00     0.046 A 
HETATM   16  C10 UNL     1      26.951   5.564  48.644  1.00  0.00     0.138 A 
HETATM   17  F1  UNL     1      27.875   6.321  48.009  1.00  0.00    -0.204 F 
HETATM   18  C11 UNL     1      25.708   6.040  49.002  1.00  0.00     0.074 A 
HETATM   19 CL1  UNL     1      25.276   7.695  48.631  1.00  0.00    -0.081 Cl
HETATM   20  C12 UNL     1      24.880   5.146  49.642  1.00  0.00     0.056 A 
ENDBRANCH  11  13
ENDBRANCH   7  11
BRANCH  10  21
HETATM   21  O2  UNL     1      22.510  -0.142  54.097  1.00  0.00    -0.379 OA
BRANCH  21  22
HETATM   22  C16 UNL     1      23.572  -0.676  53.374  1.00  0.00     0.170 C 
BRANCH  22  23
HETATM   23  C17 UNL     1      24.840  -0.558  54.194  1.00  0.00     0.056 C 
BRANCH  23  24
HETATM   24  C18 UNL     1      25.990  -0.919  53.299  1.00  0.00     0.274 C 
BRANCH  24  25
HETATM   25  N4  UNL     1      27.096  -0.022  53.335  1.00  0.00     0.092 N 
HETATM   26  C19 UNL     1      26.606   1.317  53.060  1.00  0.00     0.298 C 
HETATM   27  C20 UNL     1      27.729   2.291  52.912  1.00  0.00     0.198 C 
HETATM   28  O3  UNL     1      28.924   1.622  53.117  1.00  0.00    -0.388 OA
HETATM   29  C21 UNL     1      28.992   0.987  54.349  1.00  0.00     0.198 C 
HETATM   30  C22 UNL     1      27.868  -0.037  54.536  1.00  0.00     0.298 C 
ENDBRANCH  24  25
ENDBRANCH  23  24
ENDBRANCH  22  23
ENDBRANCH  21  22
ENDBRANCH  10  21
BRANCH   1  31
HETATM   31  O1  UNL     1      19.914  -0.403  53.497  1.00  0.00    -0.357 OA
HETATM   32  C1  UNL     1      18.668  -0.922  53.116  1.00  0.00     0.209 C 
ENDBRANCH   1  31
TORSDOF 8
ENDMDL
MODEL 4
REMARK VINA RESULT:      -8.1      1.153      1.679
REMARK  8 active torsions:
REMARK  status: ('A' for Active; 'I' for Inactive)
REMARK    1  A    between atoms: O1_2  and  C2_3 
REMARK    2  A    between atoms: C6_9  and  N3_10 
REMARK    3  A    between atoms: N3_10  and  C7_11 
REMARK    4  A    between atoms: C15_21  and  O2_22 
REMARK    5  A    between atoms: O2_22  and  C16_23 
REMARK    6  A    between atoms: C16_23  and  C17_24 
REMARK    7  A    between atoms: C17_24  and  C18_25 
REMARK    8  A    between atoms: C18_25  and  N4_26 
ROOT
HETATM    1  C2  UNL     1      20.219   0.783  52.314  1.00  0.00     0.077 A 
HETATM    2  C3  UNL     1      20.195   0.118  53.453  1.00  0.00     0.067 A 
HETATM    3  C4  UNL     1      21.545  -0.275  53.857  1.00  0.00     0.070 A 
HETATM    4  N1  UNL     1      21.698  -0.955  54.994  1.00  0.00    -0.241 NA
HETATM    5  C5  UNL     1      22.915  -1.334  55.407  1.00  0.00     0.235 A 
HETATM    6  N2  UNL     1      23.930  -0.987  54.616  1.00  0.00    -0.224 NA
HETATM    7  C6  UNL     1      23.808  -0.307  53.472  1.00  0.00     0.138 A 
HETATM    8  C13 UNL     1      22.572   0.099  53.016  1.00  0.00     0.019 A 
HETATM    9  C14 UNL     1      22.595   0.832  51.745  1.00  0.00     0.084 A 
HETATM   10  C15 UNL     1      21.215   1.241  51.335  1.00  0.00     0.182 A 
ENDROOT
BRANCH   7  11
HETATM   11  N3  UNL     1      25.005  -0.030  52.767  1.00  0.00    -0.340 N 
HETATM   12  H6  UNL     1      24.961  -0.198  51.731  1.00  0.00     0.167 HD
BRANCH  11  13
HETATM   13  C7  UNL     1      26.278   0.436  53.173  1.00  0.00     0.035 A 
HETATM   14  C8  UNL     1      26.496   1.778  53.507  1.00  0.00     0.032 A 
HETATM   15  C9  UNL     1      27.729   2.233  53.899  1.00  0.00     0.046 A 
HETATM   16  C10 UNL     1      28.795   1.367  53.974  1.00  0.00     0.138 A 
HETATM   17  F1  UNL     1      29.969   1.910  54.370  1.00  0.00    -0.204 F 
HETATM   18  C11 UNL     1      28.653   0.032  53.660  1.00  0.00     0.074 A 
HETATM   19 CL1  UNL     1      30.036  -1.033  53.769  1.00  0.00    -0.081 Cl
HETATM   20  C12 UNL     1      27.393  -0.367  53.273  1.00  0.00     0.056 A 
ENDBRANCH  11  13
ENDBRANCH   7  11
BRANCH  10  21
HETATM   21  O2  UNL     1      21.117   2.616  51.101  1.00  0.00    -0.379 OA
BRANCH  21  22
HETATM   22  C16 UNL     1      21.575   3.354  52.188  1.00  0.00     0.170 C 
BRANCH  22  23
HETATM   23  C17 UNL     1      22.412   4.512  51.685  1.00  0.00     0.056 C 
BRANCH  23  24
HETATM   24  C18 UNL     1      22.701   4.262  50.233  1.00  0.00     0.274 C 
BRANCH  24  25
HETATM   25  N4  UNL     1      24.077   4.317  49.866  1.00  0.00     0.092 N 
HETATM   26  C19 UNL     1      24.535   5.687  50.023  1.00  0.00     0.298 C 
HETATM   27  C20 UNL     1      25.923   5.863  49.497  1.00  0.00     0.198 C 
HETATM   28  O3  UNL     1      26.379   4.639  49.038  1.00  0.00    -0.388 OA
HETATM   29  C21 UNL     1      26.350   3.644  50.005  1.00  0.00     0.198 C 
HETATM   30  C22 UNL     1      24.940   3.416  50.559  1.00  0.00     0.298 C 
ENDBRANCH  24  25
ENDBRANCH  23  24
ENDBRANCH  22  23
ENDBRANCH  21  22
ENDBRANCH  10  21
BRANCH   1  31
HETATM   31  O1  UNL     1      18.974   1.199  51.851  1.00  0.00    -0.357 OA
HETATM   32  C1  UNL     1      18.233   0.429  50.943  1.00  0.00     0.209 C 
ENDBRANCH   1  31
TORSDOF 8
ENDMDL
MODEL 5
REMARK VINA RESULT:      -7.8      3.364      5.271
REMARK  8 active torsions:
REMARK  status: ('A' for Active; 'I' for Inactive)
REMARK    1  A    between atoms: O1_2  and  C2_3 
REMARK    2  A    between atoms: C6_9  and  N3_10 
REMARK    3  A    between atoms: N3_10  and  C7_11 
REMARK    4  A    between atoms: C15_21  and  O2_22 
REMARK    5  A    between atoms: O2_22  and  C16_23 
REMARK    6  A    between atoms: C16_23  and  C17_24 
REMARK    7  A    between atoms: C17_24  and  C18_25 
REMARK    8  A    between atoms: C18_25  and  N4_26 
ROOT
HETATM    1  C2  UNL     1      23.075   0.124  52.888  1.00  0.00     0.077 A 
HETATM    2  C3  UNL     1      24.259   0.028  53.462  1.00  0.00     0.067 A 
HETATM    3  C4  UNL     1      25.233   0.892  52.795  1.00  0.00     0.070 A 
HETATM    4  N1  UNL     1      26.484   0.916  53.255  1.00  0.00    -0.241 NA
HETATM    5  C5  UNL     1      27.411   1.694  52.681  1.00  0.00     0.235 A 
HETATM    6  N2  UNL     1      26.996   2.421  51.643  1.00  0.00    -0.224 NA
HETATM    7  C6  UNL     1      25.751   2.418  51.160  1.00  0.00     0.138 A 
HETATM    8  C13 UNL     1      24.771   1.630  51.726  1.00  0.00     0.019 A 
HETATM    9  C14 UNL     1      23.454   1.729  51.086  1.00  0.00     0.084 A 
HETATM   10  C15 UNL     1      22.455   0.851  51.771  1.00  0.00     0.182 A 
ENDROOT
BRANCH   7  11
HETATM   11  N3  UNL     1      25.498   3.260  50.049  1.00  0.00    -0.340 N 
HETATM   12  H6  UNL     1      24.749   2.922  49.394  1.00  0.00     0.167 HD
BRANCH  11  13
HETATM   13  C7  UNL     1      26.056   4.489  49.624  1.00  0.00     0.035 A 
HETATM   14  C8  UNL     1      27.215   4.538  48.840  1.00  0.00     0.032 A 
HETATM   15  C9  UNL     1      27.759   5.728  48.429  1.00  0.00     0.046 A 
HETATM   16  C10 UNL     1      27.169   6.918  48.784  1.00  0.00     0.138 A 
HETATM   17  F1  UNL     1      27.779   8.037  48.331  1.00  0.00    -0.204 F 
HETATM   18  C11 UNL     1      26.026   6.945  49.555  1.00  0.00     0.074 A 
HETATM   19 CL1  UNL     1      25.310   8.484  49.983  1.00  0.00    -0.081 Cl
HETATM   20  C12 UNL     1      25.525   5.722  49.937  1.00  0.00     0.056 A 
ENDBRANCH  11  13
ENDBRANCH   7  11
BRANCH  10  21
HETATM   21  O2  UNL     1      21.320   1.558  52.179  1.00  0.00    -0.379 OA
BRANCH  21  22
HETATM   22  C16 UNL     1      21.518   2.933  52.102  1.00  0.00     0.170 C 
BRANCH  22  23
HETATM   23  C17 UNL     1      20.188   3.614  51.857  1.00  0.00     0.056 C 
BRANCH  23  24
HETATM   24  C18 UNL     1      19.887   3.503  50.390  1.00  0.00     0.274 C 
BRANCH  24  25
HETATM   25  N4  UNL     1      21.011   3.637  49.525  1.00  0.00     0.092 N 
HETATM   26  C19 UNL     1      20.927   2.604  48.507  1.00  0.00     0.298 C 
HETATM   27  C20 UNL     1      22.158   2.570  47.660  1.00  0.00     0.198 C 
HETATM   28  O3  UNL     1      23.013   3.573  48.083  1.00  0.00    -0.388 OA
HETATM   29  C21 UNL     1      22.437   4.836  48.051  1.00  0.00     0.198 C 
HETATM   30  C22 UNL     1      21.181   4.921  48.923  1.00  0.00     0.298 C 
ENDBRANCH  24  25
ENDBRANCH  23  24
ENDBRANCH  22  23
ENDBRANCH  21  22
ENDBRANCH  10  21
BRANCH   1  31
HETATM   31  O1  UNL     1      22.081  -0.666  53.459  1.00  0.00    -0.357 OA
HETATM   32  C1  UNL     1      21.957  -0.800  54.849  1.00  0.00     0.209 C 
ENDBRANCH   1  31
TORSDOF 8
ENDMDL
MODEL 6
REMARK VINA RESULT:      -7.8      2.233      5.873
REMARK  8 active torsions:
REMARK  status: ('A' for Active; 'I' for Inactive)
REMARK    1  A    between atoms: O1_2  and  C2_3 
REMARK    2  A    between atoms: C6_9  and  N3_10 
REMARK    3  A    between atoms: N3_10  and  C7_11 
REMARK    4  A    between atoms: C15_21  and  O2_22 
REMARK    5  A    between atoms: O2_22  and  C16_23 
REMARK    6  A    between atoms: C16_23  and  C17_24 
REMARK    7  A    between atoms: C17_24  and  C18_25 
REMARK    8  A    between atoms: C18_25  and  N4_26 
ROOT
HETATM    1  C2  UNL     1      22.270   3.378  50.663  1.00  0.00     0.077 A 
HETATM    2  C3  UNL     1      23.049   3.782  49.678  1.00  0.00     0.067 A 
HETATM    3  C4  UNL     1      24.460   3.601  50.020  1.00  0.00     0.070 A 
HETATM    4  N1  UNL     1      25.384   3.958  49.128  1.00  0.00    -0.241 NA
HETATM    5  C5  UNL     1      26.688   3.808  49.394  1.00  0.00     0.235 A 
HETATM    6  N2  UNL     1      26.980   3.288  50.587  1.00  0.00    -0.224 NA
HETATM    7  C6  UNL     1      26.078   2.922  51.501  1.00  0.00     0.138 A 
HETATM    8  C13 UNL     1      24.727   3.062  51.261  1.00  0.00     0.019 A 
HETATM    9  C14 UNL     1      23.857   2.620  52.358  1.00  0.00     0.084 A 
HETATM   10  C15 UNL     1      22.414   2.798  52.006  1.00  0.00     0.182 A 
ENDROOT
BRANCH   7  11
HETATM   11  N3  UNL     1      26.581   2.387  52.713  1.00  0.00    -0.340 N 
HETATM   12  H6  UNL     1      26.229   2.853  53.586  1.00  0.00     0.167 HD
BRANCH  11  13
HETATM   13  C7  UNL     1      27.481   1.334  53.001  1.00  0.00     0.035 A 
HETATM   14  C8  UNL     1      28.743   1.578  53.557  1.00  0.00     0.032 A 
HETATM   15  C9  UNL     1      29.617   0.559  53.836  1.00  0.00     0.046 A 
HETATM   16  C10 UNL     1      29.268  -0.745  53.572  1.00  0.00     0.138 A 
HETATM   17  F1  UNL     1      30.198  -1.678  53.881  1.00  0.00    -0.204 F 
HETATM   18  C11 UNL     1      28.043  -1.058  53.025  1.00  0.00     0.074 A 
HETATM   19 CL1  UNL     1      27.641  -2.732  52.706  1.00  0.00    -0.081 Cl
HETATM   20  C12 UNL     1      27.206   0.004  52.767  1.00  0.00     0.056 A 
ENDBRANCH  11  13
ENDBRANCH   7  11
BRANCH  10  21
HETATM   21  O2  UNL     1      21.685   1.613  52.139  1.00  0.00    -0.379 OA
BRANCH  21  22
HETATM   22  C16 UNL     1      22.499   0.553  52.525  1.00  0.00     0.170 C 
BRANCH  22  23
HETATM   23  C17 UNL     1      21.652  -0.504  53.203  1.00  0.00     0.056 C 
BRANCH  23  24
HETATM   24  C18 UNL     1      20.450   0.186  53.783  1.00  0.00     0.274 C 
BRANCH  24  25
HETATM   25  N4  UNL     1      19.202  -0.457  53.543  1.00  0.00     0.092 N 
HETATM   26  C19 UNL     1      18.789  -0.157  52.183  1.00  0.00     0.298 C 
HETATM   27  C20 UNL     1      17.407  -0.656  51.908  1.00  0.00     0.198 C 
HETATM   28  O3  UNL     1      16.936  -1.296  53.042  1.00  0.00    -0.388 OA
HETATM   29  C21 UNL     1      17.751  -2.336  53.464  1.00  0.00     0.198 C 
HETATM   30  C22 UNL     1      19.175  -1.866  53.776  1.00  0.00     0.298 C 
ENDBRANCH  24  25
ENDBRANCH  23  24
ENDBRANCH  22  23
ENDBRANCH  21  22
ENDBRANCH  10  21
BRANCH   1  31
HETATM   31  O1  UNL     1      20.905   3.514  50.424  1.00  0.00    -0.357 OA
HETATM   32  C1  UNL     1      20.374   3.425  49.129  1.00  0.00     0.209 C 
ENDBRANCH   1  31
TORSDOF 8
ENDMDL
MODEL 7
REMARK VINA RESULT:      -7.8      3.379      7.363
REMARK  8 active torsions:
REMARK  status: ('A' for Active; 'I' for Inactive)
REMARK    1  A    between atoms: O1_2  and  C2_3 
REMARK    2  A    between atoms: C6_9  and  N3_10 
REMARK    3  A    between atoms: N3_10  and  C7_11 
REMARK    4  A    between atoms: C15_21  and  O2_22 
REMARK    5  A    between atoms: O2_22  and  C16_23 
REMARK    6  A    between atoms: C16_23  and  C17_24 
REMARK    7  A    between atoms: C17_24  and  C18_25 
REMARK    8  A    between atoms: C18_25  and  N4_26 
ROOT
HETATM    1  C2  UNL     1      26.059   4.927  49.397  1.00  0.00     0.077 A 
HETATM    2  C3  UNL     1      25.374   5.998  49.751  1.00  0.00     0.067 A 
HETATM    3  C4  UNL     1      24.053   5.628  50.259  1.00  0.00     0.070 A 
HETATM    4  N1  UNL     1      23.232   6.597  50.665  1.00  0.00    -0.241 NA
HETATM    5  C5  UNL     1      22.014   6.308  51.141  1.00  0.00     0.235 A 
HETATM    6  N2  UNL     1      21.697   5.013  51.176  1.00  0.00    -0.224 NA
HETATM    7  C6  UNL     1      22.497   4.021  50.777  1.00  0.00     0.138 A 
HETATM    8  C13 UNL     1      23.758   4.281  50.282  1.00  0.00     0.019 A 
HETATM    9  C14 UNL     1      24.519   3.093  49.880  1.00  0.00     0.084 A 
HETATM   10  C15 UNL     1      25.874   3.469  49.367  1.00  0.00     0.182 A 
ENDROOT
BRANCH   7  11
HETATM   11  N3  UNL     1      21.985   2.705  50.893  1.00  0.00    -0.340 N 
HETATM   12  H6  UNL     1      21.643   2.280  49.994  1.00  0.00     0.167 HD
BRANCH  11  13
HETATM   13  C7  UNL     1      21.831   1.823  51.988  1.00  0.00     0.035 A 
HETATM   14  C8  UNL     1      20.598   1.660  52.631  1.00  0.00     0.032 A 
HETATM   15  C9  UNL     1      20.446   0.807  53.694  1.00  0.00     0.046 A 
HETATM   16  C10 UNL     1      21.518   0.082  54.159  1.00  0.00     0.138 A 
HETATM   17  F1  UNL     1      21.269  -0.731  55.211  1.00  0.00    -0.204 F 
HETATM   18  C11 UNL     1      22.761   0.193  53.574  1.00  0.00     0.074 A 
HETATM   19 CL1  UNL     1      24.098  -0.749  54.198  1.00  0.00    -0.081 Cl
HETATM   20  C12 UNL     1      22.854   1.063  52.511  1.00  0.00     0.056 A 
ENDBRANCH  11  13
ENDBRANCH   7  11
BRANCH  10  21
HETATM   21  O2  UNL     1      26.900   2.803  50.042  1.00  0.00    -0.379 OA
BRANCH  21  22
HETATM   22  C16 UNL     1      26.621   2.673  51.399  1.00  0.00     0.170 C 
BRANCH  22  23
HETATM   23  C17 UNL     1      26.529   1.203  51.750  1.00  0.00     0.056 C 
BRANCH  23  24
HETATM   24  C18 UNL     1      26.923   1.057  53.191  1.00  0.00     0.274 C 
BRANCH  24  25
HETATM   25  N4  UNL     1      27.858   0.019  53.466  1.00  0.00     0.092 N 
HETATM   26  C19 UNL     1      27.548  -1.113  52.609  1.00  0.00     0.298 C 
HETATM   27  C20 UNL     1      28.379  -2.306  52.956  1.00  0.00     0.198 C 
HETATM   28  O3  UNL     1      29.236  -1.962  53.988  1.00  0.00    -0.388 OA
HETATM   29  C21 UNL     1      30.047  -0.876  53.689  1.00  0.00     0.198 C 
HETATM   30  C22 UNL     1      29.236   0.377  53.346  1.00  0.00     0.298 C 
ENDBRANCH  24  25
ENDBRANCH  23  24
ENDBRANCH  22  23
ENDBRANCH  21  22
ENDBRANCH  10  21
BRANCH   1  31
HETATM   31  O1  UNL     1      27.333   5.185  48.900  1.00  0.00    -0.357 OA
HETATM   32  C1  UNL     1      27.649   6.403  48.282  1.00  0.00     0.209 C 
ENDBRANCH   1  31
TORSDOF 8
ENDMDL
MODEL 8
REMARK VINA RESULT:      -7.7      4.480      7.759
REMARK  8 active torsions:
REMARK  status: ('A' for Active; 'I' for Inactive)
REMARK    1  A    between atoms: O1_2  and  C2_3 
REMARK    2  A    between atoms: C6_9  and  N3_10 
REMARK    3  A    between atoms: N3_10  and  C7_11 
REMARK    4  A    between atoms: C15_21  and  O2_22 
REMARK    5  A    between atoms: O2_22  and  C16_23 
REMARK    6  A    between atoms: C16_23  and  C17_24 
REMARK    7  A    between atoms: C17_24  and  C18_25 
REMARK    8  A    between atoms: C18_25  and  N4_26 
ROOT
HETATM    1  C2  UNL     1      26.174   6.949  48.566  1.00  0.00     0.077 A 
HETATM    2  C3  UNL     1      25.115   7.087  49.341  1.00  0.00     0.067 A 
HETATM    3  C4  UNL     1      24.886   5.879  50.133  1.00  0.00     0.070 A 
HETATM    4  N1  UNL     1      23.852   5.853  50.974  1.00  0.00    -0.241 NA
HETATM    5  C5  UNL     1      23.603   4.771  51.723  1.00  0.00     0.235 A 
HETATM    6  N2  UNL     1      24.447   3.751  51.565  1.00  0.00    -0.224 NA
HETATM    7  C6  UNL     1      25.490   3.746  50.731  1.00  0.00     0.138 A 
HETATM    8  C13 UNL     1      25.776   4.842  49.945  1.00  0.00     0.019 A 
HETATM    9  C14 UNL     1      26.949   4.689  49.077  1.00  0.00     0.084 A 
HETATM   10  C15 UNL     1      27.189   5.927  48.272  1.00  0.00     0.182 A 
ENDROOT
BRANCH   7  11
HETATM   11  N3  UNL     1      26.275   2.567  50.702  1.00  0.00    -0.340 N 
HETATM   12  H6  UNL     1      26.481   2.192  49.742  1.00  0.00     0.167 HD
BRANCH  11  13
HETATM   13  C7  UNL     1      26.853   1.768  51.717  1.00  0.00     0.035 A 
HETATM   14  C8  UNL     1      26.491   0.427  51.891  1.00  0.00     0.032 A 
HETATM   15  C9  UNL     1      27.048  -0.349  52.875  1.00  0.00     0.046 A 
HETATM   16  C10 UNL     1      27.989   0.182  53.725  1.00  0.00     0.138 A 
HETATM   17  F1  UNL     1      28.480  -0.662  54.663  1.00  0.00    -0.204 F 
HETATM   18  C11 UNL     1      28.393   1.495  53.612  1.00  0.00     0.074 A 
HETATM   19 CL1  UNL     1      29.594   2.129  54.716  1.00  0.00    -0.081 Cl
HETATM   20  C12 UNL     1      27.801   2.225  52.607  1.00  0.00     0.056 A 
ENDBRANCH  11  13
ENDBRANCH   7  11
BRANCH  10  21
HETATM   21  O2  UNL     1      28.486   6.424  48.435  1.00  0.00    -0.379 OA
BRANCH  21  22
HETATM   22  C16 UNL     1      29.443   5.442  48.198  1.00  0.00     0.170 C 
BRANCH  22  23
HETATM   23  C17 UNL     1      30.804   5.967  48.604  1.00  0.00     0.056 C 
BRANCH  23  24
HETATM   24  C18 UNL     1      31.759   5.656  47.488  1.00  0.00     0.274 C 
BRANCH  24  25
HETATM   25  N4  UNL     1      32.555   4.489  47.672  1.00  0.00     0.092 N 
HETATM   26  C19 UNL     1      32.154   3.504  46.683  1.00  0.00     0.298 C 
HETATM   27  C20 UNL     1      32.825   2.189  46.918  1.00  0.00     0.198 C 
HETATM   28  O3  UNL     1      33.670   2.313  48.008  1.00  0.00    -0.388 OA
HETATM   29  C21 UNL     1      34.614   3.320  47.859  1.00  0.00     0.198 C 
HETATM   30  C22 UNL     1      33.969   4.691  47.636  1.00  0.00     0.298 C 
ENDBRANCH  24  25
ENDBRANCH  23  24
ENDBRANCH  22  23
ENDBRANCH  21  22
ENDBRANCH  10  21
BRANCH   1  31
HETATM   31  O1  UNL     1      26.469   8.055  47.775  1.00  0.00    -0.357 OA
HETATM   32  C1  UNL     1      26.194   9.361  48.205  1.00  0.00     0.209 C 
ENDBRANCH   1  31
TORSDOF 8
ENDMDL
MODEL 9
REMARK VINA RESULT:      -7.7      2.557      3.873
REMARK  8 active torsions:
REMARK  status: ('A' for Active; 'I' for Inactive)
REMARK    1  A    between atoms: O1_2  and  C2_3 
REMARK    2  A    between atoms: C6_9  and  N3_10 
REMARK    3  A    between atoms: N3_10  and  C7_11 
REMARK    4  A    between atoms: C15_21  and  O2_22 
REMARK    5  A    between atoms: O2_22  and  C16_23 
REMARK    6  A    between atoms: C16_23  and  C17_24 
REMARK    7  A    between atoms: C17_24  and  C18_25 
REMARK    8  A    between atoms: C18_25  and  N4_26 
ROOT
HETATM    1  C2  UNL     1      22.598   2.469  48.899  1.00  0.00     0.077 A 
HETATM    2  C3  UNL     1      21.658   1.646  49.326  1.00  0.00     0.067 A 
HETATM    3  C4  UNL     1      21.973   1.143  50.662  1.00  0.00     0.070 A 
HETATM    4  N1  UNL     1      21.120   0.299  51.243  1.00  0.00    -0.241 NA
HETATM    5  C5  UNL     1      21.362  -0.186  52.468  1.00  0.00     0.235 A 
HETATM    6  N2  UNL     1      22.491   0.229  53.043  1.00  0.00    -0.224 NA
HETATM    7  C6  UNL     1      23.365   1.073  52.487  1.00  0.00     0.138 A 
HETATM    8  C13 UNL     1      23.148   1.592  51.228  1.00  0.00     0.019 A 
HETATM    9  C14 UNL     1      24.194   2.501  50.748  1.00  0.00     0.084 A 
HETATM   10  C15 UNL     1      23.870   3.023  49.383  1.00  0.00     0.182 A 
ENDROOT
BRANCH   7  11
HETATM   11  N3  UNL     1      24.509   1.399  53.255  1.00  0.00    -0.340 N 
HETATM   12  H6  UNL     1      24.375   2.181  53.945  1.00  0.00     0.167 HD
BRANCH  11  13
HETATM   13  C7  UNL     1      25.827   0.884  53.290  1.00  0.00     0.035 A 
HETATM   14  C8  UNL     1      26.129  -0.392  52.799  1.00  0.00     0.032 A 
HETATM   15  C9  UNL     1      27.404  -0.894  52.833  1.00  0.00     0.046 A 
HETATM   16  C10 UNL     1      28.430  -0.145  53.360  1.00  0.00     0.138 A 
HETATM   17  F1  UNL     1      29.651  -0.728  53.350  1.00  0.00    -0.204 F 
HETATM   18  C11 UNL     1      28.205   1.119  53.862  1.00  0.00     0.074 A 
HETATM   19 CL1  UNL     1      29.540   2.037  54.523  1.00  0.00    -0.081 Cl
HETATM   20  C12 UNL     1      26.906   1.571  53.800  1.00  0.00     0.056 A 
ENDBRANCH  11  13
ENDBRANCH   7  11
BRANCH  10  21
HETATM   21  O2  UNL     1      23.879   4.420  49.334  1.00  0.00    -0.379 OA
BRANCH  21  22
HETATM   22  C16 UNL     1      24.495   4.968  50.455  1.00  0.00     0.170 C 
BRANCH  22  23
HETATM   23  C17 UNL     1      25.106   6.303  50.083  1.00  0.00     0.056 C 
BRANCH  23  24
HETATM   24  C18 UNL     1      25.434   6.257  48.619  1.00  0.00     0.274 C 
BRANCH  24  25
HETATM   25  N4  UNL     1      26.817   6.376  48.299  1.00  0.00     0.092 N 
HETATM   26  C19 UNL     1      27.333   7.568  48.947  1.00  0.00     0.298 C 
HETATM   27  C20 UNL     1      28.737   7.857  48.523  1.00  0.00     0.198 C 
HETATM   28  O3  UNL     1      29.147   6.865  47.648  1.00  0.00    -0.388 OA
HETATM   29  C21 UNL     1      29.055   5.588  48.184  1.00  0.00     0.198 C 
HETATM   30  C22 UNL     1      27.626   5.242  48.615  1.00  0.00     0.298 C 
ENDBRANCH  24  25
ENDBRANCH  23  24
ENDBRANCH  22  23
ENDBRANCH  21  22
ENDBRANCH  10  21
BRANCH   1  31
HETATM   31  O1  UNL     1      22.381   2.999  47.630  1.00  0.00    -0.357 OA
HETATM   32  C1  UNL     1      21.089   3.277  47.161  1.00  0.00     0.209 C 
ENDBRANCH   1  31
TORSDOF 8
ENDMDL
