MODEL 1
REMARK VINA RESULT:      -6.8      0.000      0.000
REMARK  5 active torsions:
REMARK  status: ('A' for Active; 'I' for Inactive)
REMARK    1  A    between atoms: O1_2  and  C2_3 
REMARK    2  A    between atoms: C3_4  and  O2_5 
REMARK    3  A    between atoms: C9_12  and  N2_13 
REMARK    4  A    between atoms: N2_13  and  C10_14 
REMARK    5  A    between atoms: N2_13  and  C11_16 
ROOT
HETATM    1  C2  UNL     1      22.815   1.765  50.881  1.00  0.00     0.110 C 
HETATM    2  C3  UNL     1      24.092   2.270  50.959  1.00  0.00     0.089 C 
HETATM    3  C5  UNL     1      24.352   1.586  52.326  1.00  0.00     0.118 A 
HETATM    4  C6  UNL     1      23.777   2.666  53.115  1.00  0.00     0.003 A 
HETATM    5  C7  UNL     1      22.853   2.099  52.362  1.00  0.00     0.133 A 
HETATM    6  N1  UNL     1      21.975   0.836  52.606  1.00  0.00    -0.281 NA
HETATM    7  C8  UNL     1      22.519   0.490  53.820  1.00  0.00     0.112 C 
HETATM    8  C9  UNL     1      23.724   0.358  52.795  1.00  0.00     0.147 C 
ENDROOT
BRANCH   8   9
HETATM    9  N2  UNL     1      24.698  -0.322  53.745  1.00  0.00    -0.331 N 
BRANCH   9  10
HETATM   10  C10 UNL     1      23.940  -0.958  54.787  1.00  0.00     0.201 C 
HETATM   11  N3  UNL     1      24.358  -1.604  55.827  1.00  0.00    -0.295 NA
HETATM   12  H12 UNL     1      25.379  -1.719  55.998  1.00  0.00     0.187 HD
ENDBRANCH   9  10
BRANCH   9  13
HETATM   13  C11 UNL     1      26.116  -0.395  53.728  1.00  0.00     0.036 A 
HETATM   14  C12 UNL     1      26.714  -1.286  52.874  1.00  0.00     0.029 A 
HETATM   15  C13 UNL     1      28.091  -1.291  52.925  1.00  0.00     0.002 A 
HETATM   16  C14 UNL     1      28.879  -0.497  53.738  1.00  0.00     0.000 A 
HETATM   17  C15 UNL     1      28.221   0.384  54.578  1.00  0.00     0.002 A 
HETATM   18  C16 UNL     1      26.841   0.420  54.560  1.00  0.00     0.029 A 
ENDBRANCH   9  13
ENDBRANCH   8   9
BRANCH   2  19
HETATM   19  O2  UNL     1      25.043   3.098  50.231  1.00  0.00    -0.357 OA
HETATM   20  C4  UNL     1      26.427   2.916  50.513  1.00  0.00     0.209 C 
ENDBRANCH   2  19
BRANCH   1  21
HETATM   21  O1  UNL     1      22.569   1.390  49.575  1.00  0.00    -0.355 OA
HETATM   22  C1  UNL     1      21.194   1.360  49.128  1.00  0.00     0.209 C 
ENDBRANCH   1  21
TORSDOF 5
ENDMDL
MODEL 2
REMARK VINA RESULT:      -6.7      1.968      5.059
REMARK  5 active torsions:
REMARK  status: ('A' for Active; 'I' for Inactive)
REMARK    1  A    between atoms: O1_2  and  C2_3 
REMARK    2  A    between atoms: C3_4  and  O2_5 
REMARK    3  A    between atoms: C9_12  and  N2_13 
REMARK    4  A    between atoms: N2_13  and  C10_14 
REMARK    5  A    between atoms: N2_13  and  C11_16 
ROOT
HETATM    1  C2  UNL     1      27.031   1.026  53.763  1.00  0.00     0.110 C 
HETATM    2  C3  UNL     1      26.631   1.200  52.458  1.00  0.00     0.089 C 
HETATM    3  C5  UNL     1      25.324   0.396  52.680  1.00  0.00     0.118 A 
HETATM    4  C6  UNL     1      25.932  -0.902  52.419  1.00  0.00     0.003 A 
HETATM    5  C7  UNL     1      26.454  -0.354  53.501  1.00  0.00     0.133 A 
HETATM    6  N1  UNL     1      25.970  -0.366  54.981  1.00  0.00    -0.281 NA
HETATM    7  C8  UNL     1      24.812  -1.075  54.770  1.00  0.00     0.112 C 
HETATM    8  C9  UNL     1      24.611   0.265  53.943  1.00  0.00     0.147 C 
ENDROOT
BRANCH   8   9
HETATM    9  N2  UNL     1      23.139   0.059  53.620  1.00  0.00    -0.331 N 
BRANCH   9  10
HETATM   10  C10 UNL     1      22.611  -0.921  54.528  1.00  0.00     0.201 C 
HETATM   11  N3  UNL     1      21.428  -1.006  55.047  1.00  0.00    -0.295 NA
HETATM   12  H12 UNL     1      20.703  -0.295  54.816  1.00  0.00     0.187 HD
ENDBRANCH   9  10
BRANCH   9  13
HETATM   13  C11 UNL     1      22.311   0.656  52.632  1.00  0.00     0.036 A 
HETATM   14  C12 UNL     1      21.735  -0.153  51.686  1.00  0.00     0.029 A 
HETATM   15  C13 UNL     1      20.950   0.509  50.768  1.00  0.00     0.002 A 
HETATM   16  C14 UNL     1      20.710   1.871  50.733  1.00  0.00     0.000 A 
HETATM   17  C15 UNL     1      21.317   2.638  51.713  1.00  0.00     0.002 A 
HETATM   18  C16 UNL     1      22.113   2.013  52.653  1.00  0.00     0.029 A 
ENDBRANCH   9  13
ENDBRANCH   8   9
BRANCH   2  19
HETATM   19  O2  UNL     1      27.043   1.821  51.207  1.00  0.00    -0.357 OA
HETATM   20  C4  UNL     1      26.237   2.879  50.699  1.00  0.00     0.209 C 
ENDBRANCH   2  19
BRANCH   1  21
HETATM   21  O1  UNL     1      27.601   2.201  54.209  1.00  0.00    -0.355 OA
HETATM   22  C1  UNL     1      28.986   2.450  53.877  1.00  0.00     0.209 C 
ENDBRANCH   1  21
TORSDOF 5
ENDMDL
MODEL 3
REMARK VINA RESULT:      -6.6      2.752      5.801
REMARK  5 active torsions:
REMARK  status: ('A' for Active; 'I' for Inactive)
REMARK    1  A    between atoms: O1_2  and  C2_3 
REMARK    2  A    between atoms: C3_4  and  O2_5 
REMARK    3  A    between atoms: C9_12  and  N2_13 
REMARK    4  A    between atoms: N2_13  and  C10_14 
REMARK    5  A    between atoms: N2_13  and  C11_16 
ROOT
HETATM    1  C2  UNL     1      27.304  -0.174  53.440  1.00  0.00     0.110 C 
HETATM    2  C3  UNL     1      26.272  -0.066  54.344  1.00  0.00     0.089 C 
HETATM    3  C5  UNL     1      25.589   1.066  53.532  1.00  0.00     0.118 A 
HETATM    4  C6  UNL     1      26.361   2.139  54.144  1.00  0.00     0.003 A 
HETATM    5  C7  UNL     1      27.149   1.337  53.451  1.00  0.00     0.133 A 
HETATM    6  N1  UNL     1      27.507   1.323  51.935  1.00  0.00    -0.281 NA
HETATM    7  C8  UNL     1      26.696   2.369  51.565  1.00  0.00     0.112 C 
HETATM    8  C9  UNL     1      25.691   1.259  52.092  1.00  0.00     0.147 C 
ENDROOT
BRANCH   8   9
HETATM    9  N2  UNL     1      24.412   1.937  51.628  1.00  0.00    -0.331 N 
BRANCH   9  10
HETATM   10  C10 UNL     1      24.680   3.338  51.460  1.00  0.00     0.201 C 
HETATM   11  N3  UNL     1      24.091   4.357  52.000  1.00  0.00    -0.295 NA
HETATM   12  H12 UNL     1      23.300   4.215  52.662  1.00  0.00     0.187 HD
ENDBRANCH   9  10
BRANCH   9  13
HETATM   13  C11 UNL     1      23.120   1.408  51.368  1.00  0.00     0.036 A 
HETATM   14  C12 UNL     1      22.496   0.690  52.357  1.00  0.00     0.029 A 
HETATM   15  C13 UNL     1      21.249   0.214  52.019  1.00  0.00     0.002 A 
HETATM   16  C14 UNL     1      20.607   0.399  50.807  1.00  0.00     0.000 A 
HETATM   17  C15 UNL     1      21.284   1.131  49.847  1.00  0.00     0.002 A 
HETATM   18  C16 UNL     1      22.538   1.626  50.145  1.00  0.00     0.029 A 
ENDBRANCH   9  13
ENDBRANCH   8   9
BRANCH   2  19
HETATM   19  O2  UNL     1      25.776  -0.631  55.591  1.00  0.00    -0.357 OA
HETATM   20  C4  UNL     1      24.476  -1.212  55.581  1.00  0.00     0.209 C 
ENDBRANCH   2  19
BRANCH   1  21
HETATM   21  O1  UNL     1      27.611  -1.510  53.281  1.00  0.00    -0.355 OA
HETATM   22  C1  UNL     1      26.859  -2.265  52.304  1.00  0.00     0.209 C 
ENDBRANCH   1  21
TORSDOF 5
ENDMDL
MODEL 4
REMARK VINA RESULT:      -6.6      3.027      6.032
REMARK  5 active torsions:
REMARK  status: ('A' for Active; 'I' for Inactive)
REMARK    1  A    between atoms: O1_2  and  C2_3 
REMARK    2  A    between atoms: C3_4  and  O2_5 
REMARK    3  A    between atoms: C9_12  and  N2_13 
REMARK    4  A    between atoms: N2_13  and  C10_14 
REMARK    5  A    between atoms: N2_13  and  C11_16 
ROOT
HETATM    1  C2  UNL     1      25.712   1.780  53.450  1.00  0.00     0.110 C 
HETATM    2  C3  UNL     1      25.999   1.041  52.325  1.00  0.00     0.089 C 
HETATM    3  C5  UNL     1      25.227   2.020  51.402  1.00  0.00     0.118 A 
HETATM    4  C6  UNL     1      23.933   1.383  51.603  1.00  0.00     0.003 A 
HETATM    5  C7  UNL     1      24.377   1.898  52.735  1.00  0.00     0.133 A 
HETATM    6  N1  UNL     1      24.270   3.343  53.306  1.00  0.00    -0.281 NA
HETATM    7  C8  UNL     1      23.620   3.898  52.230  1.00  0.00     0.112 C 
HETATM    8  C9  UNL     1      25.025   3.441  51.650  1.00  0.00     0.147 C 
ENDROOT
BRANCH   8   9
HETATM    9  N2  UNL     1      24.897   4.129  50.299  1.00  0.00    -0.331 N 
BRANCH   9  10
HETATM   10  C10 UNL     1      23.572   3.895  49.799  1.00  0.00     0.201 C 
HETATM   11  N3  UNL     1      23.200   3.408  48.659  1.00  0.00    -0.295 NA
HETATM   12  H12 UNL     1      23.911   3.123  47.953  1.00  0.00     0.187 HD
ENDBRANCH   9  10
BRANCH   9  13
HETATM   13  C11 UNL     1      25.833   4.894  49.553  1.00  0.00     0.036 A 
HETATM   14  C12 UNL     1      25.502   6.182  49.216  1.00  0.00     0.029 A 
HETATM   15  C13 UNL     1      26.465   6.850  48.493  1.00  0.00     0.002 A 
HETATM   16  C14 UNL     1      27.689   6.338  48.099  1.00  0.00     0.000 A 
HETATM   17  C15 UNL     1      27.969   5.034  48.468  1.00  0.00     0.002 A 
HETATM   18  C16 UNL     1      27.029   4.329  49.194  1.00  0.00     0.029 A 
ENDBRANCH   9  13
ENDBRANCH   8   9
BRANCH   2  19
HETATM   19  O2  UNL     1      26.698  -0.160  51.890  1.00  0.00    -0.357 OA
HETATM   20  C4  UNL     1      26.552  -1.333  52.685  1.00  0.00     0.209 C 
ENDBRANCH   2  19
BRANCH   1  21
HETATM   21  O1  UNL     1      26.829   1.798  54.261  1.00  0.00    -0.355 OA
HETATM   22  C1  UNL     1      28.066   2.287  53.696  1.00  0.00     0.209 C 
ENDBRANCH   1  21
TORSDOF 5
ENDMDL
MODEL 5
REMARK VINA RESULT:      -6.4      2.362      4.770
REMARK  5 active torsions:
REMARK  status: ('A' for Active; 'I' for Inactive)
REMARK    1  A    between atoms: O1_2  and  C2_3 
REMARK    2  A    between atoms: C3_4  and  O2_5 
REMARK    3  A    between atoms: C9_12  and  N2_13 
REMARK    4  A    between atoms: N2_13  and  C10_14 
REMARK    5  A    between atoms: N2_13  and  C11_16 
ROOT
HETATM    1  C2  UNL     1      25.533   3.232  50.527  1.00  0.00     0.110 C 
HETATM    2  C3  UNL     1      25.845   2.202  51.383  1.00  0.00     0.089 C 
HETATM    3  C5  UNL     1      24.354   1.938  51.717  1.00  0.00     0.118 A 
HETATM    4  C6  UNL     1      24.289   2.928  52.783  1.00  0.00     0.003 A 
HETATM    5  C7  UNL     1      24.518   3.511  51.621  1.00  0.00     0.133 A 
HETATM    6  N1  UNL     1      23.535   3.975  50.505  1.00  0.00    -0.281 NA
HETATM    7  C8  UNL     1      22.382   3.528  51.105  1.00  0.00     0.112 C 
HETATM    8  C9  UNL     1      23.225   2.210  50.838  1.00  0.00     0.147 C 
ENDROOT
BRANCH   8   9
HETATM    9  N2  UNL     1      22.124   1.218  51.183  1.00  0.00    -0.331 N 
BRANCH   9  10
HETATM   10  C10 UNL     1      21.261   1.089  50.043  1.00  0.00     0.201 C 
HETATM   11  N3  UNL     1      21.567   0.900  48.799  1.00  0.00    -0.295 NA
HETATM   12  H12 UNL     1      22.565   0.820  48.512  1.00  0.00     0.187 HD
ENDBRANCH   9  10
BRANCH   9  13
HETATM   13  C11 UNL     1      21.874   0.482  52.372  1.00  0.00     0.036 A 
HETATM   14  C12 UNL     1      22.490  -0.733  52.531  1.00  0.00     0.029 A 
HETATM   15  C13 UNL     1      22.191  -1.377  53.711  1.00  0.00     0.002 A 
HETATM   16  C14 UNL     1      21.351  -0.907  54.705  1.00  0.00     0.000 A 
HETATM   17  C15 UNL     1      20.758   0.325  54.491  1.00  0.00     0.002 A 
HETATM   18  C16 UNL     1      21.031   1.004  53.320  1.00  0.00     0.029 A 
ENDBRANCH   9  13
ENDBRANCH   8   9
BRANCH   2  19
HETATM   19  O2  UNL     1      26.978   1.464  51.924  1.00  0.00    -0.357 OA
HETATM   20  C4  UNL     1      26.769   0.100  52.277  1.00  0.00     0.209 C 
ENDBRANCH   2  19
BRANCH   1  21
HETATM   21  O1  UNL     1      26.368   3.160  49.430  1.00  0.00    -0.355 OA
HETATM   22  C1  UNL     1      27.067   4.361  49.032  1.00  0.00     0.209 C 
ENDBRANCH   1  21
TORSDOF 5
ENDMDL
MODEL 6
REMARK VINA RESULT:      -6.4      1.495      2.370
REMARK  5 active torsions:
REMARK  status: ('A' for Active; 'I' for Inactive)
REMARK    1  A    between atoms: O1_2  and  C2_3 
REMARK    2  A    between atoms: C3_4  and  O2_5 
REMARK    3  A    between atoms: C9_12  and  N2_13 
REMARK    4  A    between atoms: N2_13  and  C10_14 
REMARK    5  A    between atoms: N2_13  and  C11_16 
ROOT
HETATM    1  C2  UNL     1      22.598   3.443  51.357  1.00  0.00     0.110 C 
HETATM    2  C3  UNL     1      22.812   2.461  50.417  1.00  0.00     0.089 C 
HETATM    3  C5  UNL     1      23.865   1.747  51.304  1.00  0.00     0.118 A 
HETATM    4  C6  UNL     1      24.983   2.560  50.846  1.00  0.00     0.003 A 
HETATM    5  C7  UNL     1      24.104   3.302  51.493  1.00  0.00     0.133 A 
HETATM    6  N1  UNL     1      23.930   3.580  53.016  1.00  0.00    -0.281 NA
HETATM    7  C8  UNL     1      24.945   2.761  53.448  1.00  0.00     0.112 C 
HETATM    8  C9  UNL     1      23.909   1.775  52.760  1.00  0.00     0.147 C 
ENDROOT
BRANCH   8   9
HETATM    9  N2  UNL     1      24.556   0.479  53.225  1.00  0.00    -0.331 N 
BRANCH   9  10
HETATM   10  C10 UNL     1      23.521  -0.500  53.408  1.00  0.00     0.201 C 
HETATM   11  N3  UNL     1      22.645  -0.600  54.355  1.00  0.00    -0.295 NA
HETATM   12  H12 UNL     1      22.629   0.096  55.130  1.00  0.00     0.187 HD
ENDBRANCH   9  10
BRANCH   9  13
HETATM   13  C11 UNL     1      25.916   0.155  53.473  1.00  0.00     0.036 A 
HETATM   14  C12 UNL     1      26.642  -0.433  52.469  1.00  0.00     0.029 A 
HETATM   15  C13 UNL     1      27.950  -0.713  52.797  1.00  0.00     0.002 A 
HETATM   16  C14 UNL     1      28.559  -0.455  54.012  1.00  0.00     0.000 A 
HETATM   17  C15 UNL     1      27.778   0.139  54.988  1.00  0.00     0.002 A 
HETATM   18  C16 UNL     1      26.460   0.436  54.700  1.00  0.00     0.029 A 
ENDBRANCH   9  13
ENDBRANCH   8   9
BRANCH   2  19
HETATM   19  O2  UNL     1      22.383   2.026  49.095  1.00  0.00    -0.357 OA
HETATM   20  C4  UNL     1      21.377   1.021  49.026  1.00  0.00     0.209 C 
ENDBRANCH   2  19
BRANCH   1  21
HETATM   21  O1  UNL     1      21.248   3.728  51.394  1.00  0.00    -0.355 OA
HETATM   22  C1  UNL     1      20.424   2.980  52.316  1.00  0.00     0.209 C 
ENDBRANCH   1  21
TORSDOF 5
ENDMDL
MODEL 7
REMARK VINA RESULT:      -6.2      2.138      3.291
REMARK  5 active torsions:
REMARK  status: ('A' for Active; 'I' for Inactive)
REMARK    1  A    between atoms: O1_2  and  C2_3 
REMARK    2  A    between atoms: C3_4  and  O2_5 
REMARK    3  A    between atoms: C9_12  and  N2_13 
REMARK    4  A    between atoms: N2_13  and  C10_14 
REMARK    5  A    between atoms: N2_13  and  C11_16 
ROOT
HETATM    1  C2  UNL     1      22.213   3.711  51.679  1.00  0.00     0.110 C 
HETATM    2  C3  UNL     1      21.317   2.809  52.206  1.00  0.00     0.089 C 
HETATM    3  C5  UNL     1      22.386   1.688  52.282  1.00  0.00     0.118 A 
HETATM    4  C6  UNL     1      22.183   1.232  50.914  1.00  0.00     0.003 A 
HETATM    5  C7  UNL     1      22.651   2.466  50.927  1.00  0.00     0.133 A 
HETATM    6  N1  UNL     1      24.112   2.999  51.019  1.00  0.00    -0.281 NA
HETATM    7  C8  UNL     1      24.726   1.776  51.138  1.00  0.00     0.112 C 
HETATM    8  C9  UNL     1      23.820   1.890  52.436  1.00  0.00     0.147 C 
ENDROOT
BRANCH   8   9
HETATM    9  N2  UNL     1      24.380   0.673  53.156  1.00  0.00    -0.331 N 
BRANCH   9  10
HETATM   10  C10 UNL     1      23.279  -0.117  53.629  1.00  0.00     0.201 C 
HETATM   11  N3  UNL     1      23.226  -0.936  54.630  1.00  0.00    -0.295 NA
HETATM   12  H12 UNL     1      24.067  -1.093  55.223  1.00  0.00     0.187 HD
ENDBRANCH   9  10
BRANCH   9  13
HETATM   13  C11 UNL     1      25.721   0.267  53.392  1.00  0.00     0.036 A 
HETATM   14  C12 UNL     1      26.472   0.982  54.291  1.00  0.00     0.029 A 
HETATM   15  C13 UNL     1      27.759   0.520  54.457  1.00  0.00     0.002 A 
HETATM   16  C14 UNL     1      28.324  -0.565  53.812  1.00  0.00     0.000 A 
HETATM   17  C15 UNL     1      27.520  -1.249  52.917  1.00  0.00     0.002 A 
HETATM   18  C16 UNL     1      26.223  -0.818  52.720  1.00  0.00     0.029 A 
ENDBRANCH   9  13
ENDBRANCH   8   9
BRANCH   2  19
HETATM   19  O2  UNL     1      19.927   2.684  52.620  1.00  0.00    -0.357 OA
HETATM   20  C4  UNL     1      18.922   3.001  51.662  1.00  0.00     0.209 C 
ENDBRANCH   2  19
BRANCH   1  21
HETATM   21  O1  UNL     1      21.980   4.947  52.248  1.00  0.00    -0.355 OA
HETATM   22  C1  UNL     1      21.767   6.069  51.362  1.00  0.00     0.209 C 
ENDBRANCH   1  21
TORSDOF 5
ENDMDL
MODEL 8
REMARK VINA RESULT:      -6.0      3.170      4.684
REMARK  5 active torsions:
REMARK  status: ('A' for Active; 'I' for Inactive)
REMARK    1  A    between atoms: O1_2  and  C2_3 
REMARK    2  A    between atoms: C3_4  and  O2_5 
REMARK    3  A    between atoms: C9_12  and  N2_13 
REMARK    4  A    between atoms: N2_13  and  C10_14 
REMARK    5  A    between atoms: N2_13  and  C11_16 
ROOT
HETATM    1  C2  UNL     1      19.941   2.789  51.465  1.00  0.00     0.110 C 
HETATM    2  C3  UNL     1      20.583   1.946  52.342  1.00  0.00     0.089 C 
HETATM    3  C5  UNL     1      21.984   2.379  51.838  1.00  0.00     0.118 A 
HETATM    4  C6  UNL     1      22.023   1.420  50.742  1.00  0.00     0.003 A 
HETATM    5  C7  UNL     1      21.055   2.299  50.557  1.00  0.00     0.133 A 
HETATM    6  N1  UNL     1      21.080   3.721  49.922  1.00  0.00    -0.281 NA
HETATM    7  C8  UNL     1      22.431   3.769  49.680  1.00  0.00     0.112 C 
HETATM    8  C9  UNL     1      22.317   3.673  51.260  1.00  0.00     0.147 C 
ENDROOT
BRANCH   8   9
HETATM    9  N2  UNL     1      23.781   3.950  51.565  1.00  0.00    -0.331 N 
BRANCH   9  10
HETATM   10  C10 UNL     1      24.025   5.351  51.367  1.00  0.00     0.201 C 
HETATM   11  N3  UNL     1      24.190   6.288  52.244  1.00  0.00    -0.295 NA
HETATM   12  H12 UNL     1      24.154   6.066  53.261  1.00  0.00     0.187 HD
ENDBRANCH   9  10
BRANCH   9  13
HETATM   13  C11 UNL     1      24.825   3.081  51.979  1.00  0.00     0.036 A 
HETATM   14  C12 UNL     1      25.651   2.548  51.022  1.00  0.00     0.029 A 
HETATM   15  C13 UNL     1      26.634   1.717  51.512  1.00  0.00     0.002 A 
HETATM   16  C14 UNL     1      26.841   1.395  52.841  1.00  0.00     0.000 A 
HETATM   17  C15 UNL     1      25.978   1.962  53.763  1.00  0.00     0.002 A 
HETATM   18  C16 UNL     1      24.977   2.801  53.313  1.00  0.00     0.029 A 
ENDBRANCH   9  13
ENDBRANCH   8   9
BRANCH   2  19
HETATM   19  O2  UNL     1      20.324   0.971  53.393  1.00  0.00    -0.357 OA
HETATM   20  C4  UNL     1      21.443   0.290  53.951  1.00  0.00     0.209 C 
ENDBRANCH   2  19
BRANCH   1  21
HETATM   21  O1  UNL     1      18.862   3.357  52.112  1.00  0.00    -0.355 OA
HETATM   22  C1  UNL     1      17.540   3.071  51.601  1.00  0.00     0.209 C 
ENDBRANCH   1  21
TORSDOF 5
ENDMDL
MODEL 9
REMARK VINA RESULT:      -5.8      3.913      5.259
REMARK  5 active torsions:
REMARK  status: ('A' for Active; 'I' for Inactive)
REMARK    1  A    between atoms: O1_2  and  C2_3 
REMARK    2  A    between atoms: C3_4  and  O2_5 
REMARK    3  A    between atoms: C9_12  and  N2_13 
REMARK    4  A    between atoms: N2_13  and  C10_14 
REMARK    5  A    between atoms: N2_13  and  C11_16 
ROOT
HETATM    1  C2  UNL     1      20.052   2.605  51.603  1.00  0.00     0.110 C 
HETATM    2  C3  UNL     1      20.711   1.806  52.509  1.00  0.00     0.089 C 
HETATM    3  C5  UNL     1      22.101   2.186  51.935  1.00  0.00     0.118 A 
HETATM    4  C6  UNL     1      22.091   1.163  50.899  1.00  0.00     0.003 A 
HETATM    5  C7  UNL     1      21.129   2.043  50.692  1.00  0.00     0.133 A 
HETATM    6  N1  UNL     1      21.152   3.424  49.971  1.00  0.00    -0.281 NA
HETATM    7  C8  UNL     1      22.496   3.437  49.683  1.00  0.00     0.112 C 
HETATM    8  C9  UNL     1      22.432   3.438  51.269  1.00  0.00     0.147 C 
ENDROOT
BRANCH   8   9
HETATM    9  N2  UNL     1      23.909   3.711  51.510  1.00  0.00    -0.331 N 
BRANCH   9  10
HETATM   10  C10 UNL     1      24.186   3.494  52.902  1.00  0.00     0.201 C 
HETATM   11  N3  UNL     1      25.235   2.981  53.460  1.00  0.00    -0.295 NA
HETATM   12  H12 UNL     1      26.034   2.658  52.876  1.00  0.00     0.187 HD
ENDBRANCH   9  10
BRANCH   9  13
HETATM   13  C11 UNL     1      24.938   4.112  50.617  1.00  0.00     0.036 A 
HETATM   14  C12 UNL     1      25.821   3.163  50.169  1.00  0.00     0.029 A 
HETATM   15  C13 UNL     1      26.786   3.639  49.309  1.00  0.00     0.002 A 
HETATM   16  C14 UNL     1      26.923   4.948  48.883  1.00  0.00     0.000 A 
HETATM   17  C15 UNL     1      26.004   5.862  49.368  1.00  0.00     0.002 A 
HETATM   18  C16 UNL     1      25.020   5.426  50.233  1.00  0.00     0.029 A 
ENDBRANCH   9  13
ENDBRANCH   8   9
BRANCH   2  19
HETATM   19  O2  UNL     1      20.474   0.900  53.625  1.00  0.00    -0.357 OA
HETATM   20  C4  UNL     1      19.705  -0.271  53.371  1.00  0.00     0.209 C 
ENDBRANCH   2  19
BRANCH   1  21
HETATM   21  O1  UNL     1      19.003   3.227  52.248  1.00  0.00    -0.355 OA
HETATM   22  C1  UNL     1      17.739   3.317  51.552  1.00  0.00     0.209 C 
ENDBRANCH   1  21
TORSDOF 5
ENDMDL
