MODEL 1
REMARK VINA RESULT:      -8.6      0.000      0.000
REMARK  3 active torsions:
REMARK  status: ('A' for Active; 'I' for Inactive)
REMARK    1  A    between atoms: O1_2  and  C2_3 
REMARK    2  A    between atoms: C5_6  and  C6_7 
REMARK    3  A    between atoms: C9_12  and  O2_13 
ROOT
HETATM    1  C6  UNL     1      25.667   2.170  51.452  1.00  0.00     0.041 C 
HETATM    2  N1  UNL     1      24.374   2.150  51.525  1.00  0.00    -0.277 NA
HETATM    3  C7  UNL     1      23.793   3.252  50.757  1.00  0.00     0.182 C 
HETATM    4  S1  UNL     1      23.865   4.711  51.779  1.00  0.00    -0.110 SA
HETATM    5  C8  UNL     1      23.341   6.204  51.055  1.00  0.00     0.095 C 
HETATM    6  C9  UNL     1      23.405   7.470  50.703  1.00  0.00     0.115 C 
HETATM    7  N2  UNL     1      22.594   8.368  49.991  1.00  0.00    -0.259 NA
HETATM    8  C10 UNL     1      22.733   8.416  48.665  1.00  0.00     0.406 C 
HETATM    9  O3  UNL     1      23.511   7.800  47.580  1.00  0.00    -0.325 OA
HETATM   10  C11 UNL     1      23.962   6.528  48.079  1.00  0.00     0.071 A 
HETATM   11  C12 UNL     1      22.859   5.750  47.909  1.00  0.00     0.037 A 
HETATM   12  C13 UNL     1      23.434   4.633  48.475  1.00  0.00     0.010 A 
HETATM   13  C14 UNL     1      24.712   4.654  48.947  1.00  0.00    -0.051 A 
HETATM   14  C15 UNL     1      25.762   5.509  49.063  1.00  0.00     0.010 A 
HETATM   15  C16 UNL     1      25.241   6.652  48.510  1.00  0.00     0.037 A 
HETATM   16  C17 UNL     1      24.877   3.362  49.664  1.00  0.00     0.059 C 
HETATM   17  C18 UNL     1      26.077   3.336  50.585  1.00  0.00     0.072 C 
ENDROOT
BRANCH   1  18
HETATM   18  C5  UNL     1      26.558   1.213  52.102  1.00  0.00    -0.012 A 
HETATM   19  C4  UNL     1      27.639   1.721  52.781  1.00  0.00     0.016 A 
HETATM   20  C3  UNL     1      28.497   0.812  53.406  1.00  0.00     0.037 A 
HETATM   21  C2  UNL     1      28.236  -0.544  53.322  1.00  0.00     0.068 A 
HETATM   22  C20 UNL     1      27.140  -1.021  52.632  1.00  0.00     0.037 A 
HETATM   23  C19 UNL     1      26.281  -0.135  52.007  1.00  0.00     0.016 A 
BRANCH  21  24
HETATM   24  O1  UNL     1      29.060  -1.480  53.927  1.00  0.00    -0.356 OA
HETATM   25  C1  UNL     1      29.110  -2.772  53.325  1.00  0.00     0.210 C 
ENDBRANCH  21  24
ENDBRANCH   1  18
BRANCH   6  26
HETATM   26  O2  UNL     1      24.338   8.498  50.880  1.00  0.00    -0.351 OA
HETATM   27  H8  UNL     1      24.412   8.860  51.809  1.00  0.00     0.218 HD
ENDBRANCH   6  26
TORSDOF 3
ENDMDL
MODEL 2
REMARK VINA RESULT:      -8.5      3.012      3.822
REMARK  3 active torsions:
REMARK  status: ('A' for Active; 'I' for Inactive)
REMARK    1  A    between atoms: O1_2  and  C2_3 
REMARK    2  A    between atoms: C5_6  and  C6_7 
REMARK    3  A    between atoms: C9_12  and  O2_13 
ROOT
HETATM    1  C6  UNL     1      23.553   3.549  50.872  1.00  0.00     0.041 C 
HETATM    2  N1  UNL     1      22.681   4.487  50.683  1.00  0.00    -0.277 NA
HETATM    3  C7  UNL     1      23.275   5.610  49.955  1.00  0.00     0.182 C 
HETATM    4  S1  UNL     1      24.148   6.612  51.143  1.00  0.00    -0.110 SA
HETATM    5  C8  UNL     1      25.052   7.961  50.519  1.00  0.00     0.095 C 
HETATM    6  C9  UNL     1      26.092   8.749  50.346  1.00  0.00     0.115 C 
HETATM    7  N2  UNL     1      26.375   9.907  49.602  1.00  0.00    -0.259 NA
HETATM    8  C10 UNL     1      26.800   9.752  48.347  1.00  0.00     0.406 C 
HETATM    9  O3  UNL     1      27.104   8.694  47.372  1.00  0.00    -0.325 OA
HETATM   10  C11 UNL     1      26.364   7.534  47.790  1.00  0.00     0.071 A 
HETATM   11  C12 UNL     1      25.120   7.803  47.308  1.00  0.00     0.037 A 
HETATM   12  C13 UNL     1      24.557   6.661  47.836  1.00  0.00     0.010 A 
HETATM   13  C14 UNL     1      25.298   5.770  48.553  1.00  0.00    -0.051 A 
HETATM   14  C15 UNL     1      26.575   5.589  48.981  1.00  0.00     0.010 A 
HETATM   15  C16 UNL     1      27.189   6.709  48.481  1.00  0.00     0.037 A 
HETATM   16  C17 UNL     1      24.307   4.820  49.123  1.00  0.00     0.059 C 
HETATM   17  C18 UNL     1      24.861   3.984  50.256  1.00  0.00     0.072 C 
ENDROOT
BRANCH   1  18
HETATM   18  C5  UNL     1      23.293   2.290  51.565  1.00  0.00    -0.012 A 
HETATM   19  C4  UNL     1      22.125   1.634  51.258  1.00  0.00     0.016 A 
HETATM   20  C3  UNL     1      21.869   0.428  51.916  1.00  0.00     0.037 A 
HETATM   21  C2  UNL     1      22.779  -0.056  52.838  1.00  0.00     0.068 A 
HETATM   22  C20 UNL     1      23.942   0.629  53.123  1.00  0.00     0.037 A 
HETATM   23  C19 UNL     1      24.213   1.824  52.480  1.00  0.00     0.016 A 
BRANCH  21  24
HETATM   24  O1  UNL     1      22.564  -1.247  53.513  1.00  0.00    -0.356 OA
HETATM   25  C1  UNL     1      21.540  -1.243  54.507  1.00  0.00     0.210 C 
ENDBRANCH  21  24
ENDBRANCH   1  18
BRANCH   6  26
HETATM   26  O2  UNL     1      27.404   8.775  50.831  1.00  0.00    -0.351 OA
HETATM   27  H8  UNL     1      27.497   8.837  51.825  1.00  0.00     0.218 HD
ENDBRANCH   6  26
TORSDOF 3
ENDMDL
MODEL 3
REMARK VINA RESULT:      -8.2      3.674      4.899
REMARK  3 active torsions:
REMARK  status: ('A' for Active; 'I' for Inactive)
REMARK    1  A    between atoms: O1_2  and  C2_3 
REMARK    2  A    between atoms: C5_6  and  C6_7 
REMARK    3  A    between atoms: C9_12  and  O2_13 
ROOT
HETATM    1  C6  UNL     1      24.733   1.899  52.520  1.00  0.00     0.041 C 
HETATM    2  N1  UNL     1      24.330   3.124  52.641  1.00  0.00    -0.277 NA
HETATM    3  C7  UNL     1      22.931   3.254  52.229  1.00  0.00     0.182 C 
HETATM    4  S1  UNL     1      22.909   3.384  50.452  1.00  0.00    -0.110 SA
HETATM    5  C8  UNL     1      21.347   3.432  49.687  1.00  0.00     0.095 C 
HETATM    6  C9  UNL     1      20.403   3.095  48.835  1.00  0.00     0.115 C 
HETATM    7  N2  UNL     1      19.076   3.483  48.584  1.00  0.00    -0.259 NA
HETATM    8  C10 UNL     1      18.109   2.869  49.269  1.00  0.00     0.406 C 
HETATM    9  O3  UNL     1      17.924   1.831  50.293  1.00  0.00    -0.325 OA
HETATM   10  C11 UNL     1      19.168   1.744  51.010  1.00  0.00     0.071 A 
HETATM   11  C12 UNL     1      19.074   2.794  51.869  1.00  0.00     0.037 A 
HETATM   12  C13 UNL     1      20.328   2.598  52.407  1.00  0.00     0.010 A 
HETATM   13  C14 UNL     1      21.132   1.584  51.982  1.00  0.00    -0.051 A 
HETATM   14  C15 UNL     1      21.123   0.555  51.095  1.00  0.00     0.010 A 
HETATM   15  C16 UNL     1      19.886   0.701  50.522  1.00  0.00     0.037 A 
HETATM   16  C17 UNL     1      22.446   1.843  52.626  1.00  0.00     0.059 C 
HETATM   17  C18 UNL     1      23.585   1.069  51.998  1.00  0.00     0.072 C 
ENDROOT
BRANCH   1  18
HETATM   18  C5  UNL     1      26.075   1.423  52.843  1.00  0.00    -0.012 A 
HETATM   19  C4  UNL     1      26.347   0.098  52.603  1.00  0.00     0.016 A 
HETATM   20  C3  UNL     1      27.629  -0.366  52.910  1.00  0.00     0.037 A 
HETATM   21  C2  UNL     1      28.565   0.506  53.437  1.00  0.00     0.068 A 
HETATM   22  C20 UNL     1      28.258   1.832  53.666  1.00  0.00     0.037 A 
HETATM   23  C19 UNL     1      26.994   2.308  53.368  1.00  0.00     0.016 A 
BRANCH  21  24
HETATM   24  O1  UNL     1      29.847   0.089  53.755  1.00  0.00    -0.356 OA
HETATM   25  C1  UNL     1      30.086  -1.318  53.733  1.00  0.00     0.210 C 
ENDBRANCH  21  24
ENDBRANCH   1  18
BRANCH   6  26
HETATM   26  O2  UNL     1      20.301   2.175  47.785  1.00  0.00    -0.351 OA
HETATM   27  H8  UNL     1      20.985   2.267  47.061  1.00  0.00     0.218 HD
ENDBRANCH   6  26
TORSDOF 3
ENDMDL
MODEL 4
REMARK VINA RESULT:      -8.1      4.334      6.531
REMARK  3 active torsions:
REMARK  status: ('A' for Active; 'I' for Inactive)
REMARK    1  A    between atoms: O1_2  and  C2_3 
REMARK    2  A    between atoms: C5_6  and  C6_7 
REMARK    3  A    between atoms: C9_12  and  O2_13 
ROOT
HETATM    1  C6  UNL     1      24.879   4.245  49.947  1.00  0.00     0.041 C 
HETATM    2  N1  UNL     1      24.714   4.158  51.228  1.00  0.00    -0.277 NA
HETATM    3  C7  UNL     1      23.533   3.354  51.547  1.00  0.00     0.182 C 
HETATM    4  S1  UNL     1      22.110   4.418  51.400  1.00  0.00    -0.110 SA
HETATM    5  C8  UNL     1      20.550   3.676  51.614  1.00  0.00     0.095 C 
HETATM    6  C9  UNL     1      19.303   3.370  51.328  1.00  0.00     0.115 C 
HETATM    7  N2  UNL     1      18.291   2.589  51.909  1.00  0.00    -0.259 NA
HETATM    8  C10 UNL     1      18.250   1.291  51.599  1.00  0.00     0.406 C 
HETATM    9  O3  UNL     1      18.961   0.294  50.785  1.00  0.00    -0.325 OA
HETATM   10  C11 UNL     1      20.289   0.809  50.584  1.00  0.00     0.071 A 
HETATM   11  C12 UNL     1      20.899   0.483  51.755  1.00  0.00     0.037 A 
HETATM   12  C13 UNL     1      22.093   1.085  51.418  1.00  0.00     0.010 A 
HETATM   13  C14 UNL     1      22.259   1.711  50.220  1.00  0.00    -0.051 A 
HETATM   14  C15 UNL     1      21.564   1.979  49.083  1.00  0.00     0.010 A 
HETATM   15  C16 UNL     1      20.353   1.399  49.364  1.00  0.00     0.037 A 
HETATM   16  C17 UNL     1      23.568   2.407  50.330  1.00  0.00     0.059 C 
HETATM   17  C18 UNL     1      23.774   3.468  49.271  1.00  0.00     0.072 C 
ENDROOT
BRANCH   1  18
HETATM   18  C5  UNL     1      25.959   4.974  49.288  1.00  0.00    -0.012 A 
HETATM   19  C4  UNL     1      27.145   4.305  49.100  1.00  0.00     0.016 A 
HETATM   20  C3  UNL     1      28.184   4.996  48.471  1.00  0.00     0.037 A 
HETATM   21  C2  UNL     1      27.991   6.304  48.066  1.00  0.00     0.068 A 
HETATM   22  C20 UNL     1      26.787   6.946  48.271  1.00  0.00     0.037 A 
HETATM   23  C19 UNL     1      25.747   6.278  48.892  1.00  0.00     0.016 A 
BRANCH  21  24
HETATM   24  O1  UNL     1      28.995   7.025  47.438  1.00  0.00    -0.356 OA
HETATM   25  C1  UNL     1      30.245   7.107  48.120  1.00  0.00     0.210 C 
ENDBRANCH  21  24
ENDBRANCH   1  18
BRANCH   6  26
HETATM   26  O2  UNL     1      18.420   3.689  50.290  1.00  0.00    -0.351 OA
HETATM   27  H8  UNL     1      18.052   4.619  50.306  1.00  0.00     0.218 HD
ENDBRANCH   6  26
TORSDOF 3
ENDMDL
MODEL 5
REMARK VINA RESULT:      -8.0      4.101      4.894
REMARK  3 active torsions:
REMARK  status: ('A' for Active; 'I' for Inactive)
REMARK    1  A    between atoms: O1_2  and  C2_3 
REMARK    2  A    between atoms: C5_6  and  C6_7 
REMARK    3  A    between atoms: C9_12  and  O2_13 
ROOT
HETATM    1  C6  UNL     1      23.700   1.088  52.468  1.00  0.00     0.041 C 
HETATM    2  N1  UNL     1      22.768   0.975  53.360  1.00  0.00    -0.277 NA
HETATM    3  C7  UNL     1      21.446   1.147  52.755  1.00  0.00     0.182 C 
HETATM    4  S1  UNL     1      21.149   2.899  52.614  1.00  0.00    -0.110 SA
HETATM    5  C8  UNL     1      19.683   3.384  51.811  1.00  0.00     0.095 C 
HETATM    6  C9  UNL     1      18.928   4.038  50.955  1.00  0.00     0.115 C 
HETATM    7  N2  UNL     1      17.562   4.080  50.631  1.00  0.00    -0.259 NA
HETATM    8  C10 UNL     1      17.108   3.202  49.734  1.00  0.00     0.406 C 
HETATM    9  O3  UNL     1      17.579   2.099  48.884  1.00  0.00    -0.325 OA
HETATM   10  C11 UNL     1      18.783   1.603  49.495  1.00  0.00     0.071 A 
HETATM   11  C12 UNL     1      18.292   0.807  50.483  1.00  0.00     0.037 A 
HETATM   12  C13 UNL     1      19.537   0.483  50.979  1.00  0.00     0.010 A 
HETATM   13  C14 UNL     1      20.676   0.976  50.418  1.00  0.00    -0.051 A 
HETATM   14  C15 UNL     1      21.064   1.782  49.395  1.00  0.00     0.010 A 
HETATM   15  C16 UNL     1      19.854   2.141  48.859  1.00  0.00     0.037 A 
HETATM   16  C17 UNL     1      21.763   0.586  51.353  1.00  0.00     0.059 C 
HETATM   17  C18 UNL     1      23.050   1.352  51.131  1.00  0.00     0.072 C 
ENDROOT
BRANCH   1  18
HETATM   18  C5  UNL     1      25.131   0.971  52.732  1.00  0.00    -0.012 A 
HETATM   19  C4  UNL     1      25.762   2.065  53.275  1.00  0.00     0.016 A 
HETATM   20  C3  UNL     1      27.131   1.962  53.530  1.00  0.00     0.037 A 
HETATM   21  C2  UNL     1      27.797   0.786  53.234  1.00  0.00     0.068 A 
HETATM   22  C20 UNL     1      27.133  -0.294  52.688  1.00  0.00     0.037 A 
HETATM   23  C19 UNL     1      25.776  -0.209  52.429  1.00  0.00     0.016 A 
BRANCH  21  24
HETATM   24  O1  UNL     1      29.154   0.641  53.471  1.00  0.00    -0.356 OA
HETATM   25  C1  UNL     1      29.646  -0.694  53.578  1.00  0.00     0.210 C 
ENDBRANCH  21  24
ENDBRANCH   1  18
BRANCH   6  26
HETATM   26  O2  UNL     1      19.163   4.996  49.962  1.00  0.00    -0.351 OA
HETATM   27  H8  UNL     1      20.114   5.285  49.855  1.00  0.00     0.218 HD
ENDBRANCH   6  26
TORSDOF 3
ENDMDL
MODEL 6
REMARK VINA RESULT:      -8.0      3.737      4.649
REMARK  3 active torsions:
REMARK  status: ('A' for Active; 'I' for Inactive)
REMARK    1  A    between atoms: O1_2  and  C2_3 
REMARK    2  A    between atoms: C5_6  and  C6_7 
REMARK    3  A    between atoms: C9_12  and  O2_13 
ROOT
HETATM    1  C6  UNL     1      24.457   1.961  51.899  1.00  0.00     0.041 C 
HETATM    2  N1  UNL     1      24.574   2.644  50.805  1.00  0.00    -0.277 NA
HETATM    3  C7  UNL     1      23.283   3.206  50.403  1.00  0.00     0.182 C 
HETATM    4  S1  UNL     1      22.386   1.923  49.551  1.00  0.00    -0.110 SA
HETATM    5  C8  UNL     1      20.756   2.294  49.065  1.00  0.00     0.095 C 
HETATM    6  C9  UNL     1      19.458   2.122  48.942  1.00  0.00     0.115 C 
HETATM    7  N2  UNL     1      18.388   2.836  48.379  1.00  0.00    -0.259 NA
HETATM    8  C10 UNL     1      17.781   3.750  49.139  1.00  0.00     0.406 C 
HETATM    9  O3  UNL     1      17.845   4.331  50.488  1.00  0.00    -0.325 OA
HETATM   10  C11 UNL     1      19.183   4.102  50.964  1.00  0.00     0.071 A 
HETATM   11  C12 UNL     1      19.875   5.104  50.356  1.00  0.00     0.037 A 
HETATM   12  C13 UNL     1      21.094   4.703  50.858  1.00  0.00     0.010 A 
HETATM   13  C14 UNL     1      21.206   3.614  51.669  1.00  0.00    -0.051 A 
HETATM   14  C15 UNL     1      20.424   2.659  52.238  1.00  0.00     0.010 A 
HETATM   15  C16 UNL     1      19.184   3.010  51.768  1.00  0.00     0.037 A 
HETATM   16  C17 UNL     1      22.668   3.388  51.807  1.00  0.00     0.059 C 
HETATM   17  C18 UNL     1      23.015   2.016  52.343  1.00  0.00     0.072 C 
ENDROOT
BRANCH   1  18
HETATM   18  C5  UNL     1      25.550   1.267  52.574  1.00  0.00    -0.012 A 
HETATM   19  C4  UNL     1      25.863   1.676  53.848  1.00  0.00     0.016 A 
HETATM   20  C3  UNL     1      26.908   1.018  54.501  1.00  0.00     0.037 A 
HETATM   21  C2  UNL     1      27.582  -0.005  53.857  1.00  0.00     0.068 A 
HETATM   22  C20 UNL     1      27.242  -0.390  52.576  1.00  0.00     0.037 A 
HETATM   23  C19 UNL     1      26.210   0.251  51.915  1.00  0.00     0.016 A 
BRANCH  21  24
HETATM   24  O1  UNL     1      28.624  -0.684  54.468  1.00  0.00    -0.356 OA
HETATM   25  C1  UNL     1      29.739  -1.020  53.643  1.00  0.00     0.210 C 
ENDBRANCH  21  24
ENDBRANCH   1  18
BRANCH   6  26
HETATM   26  O2  UNL     1      18.551   1.131  49.336  1.00  0.00    -0.351 OA
HETATM   27  H8  UNL     1      17.905   1.396  50.051  1.00  0.00     0.218 HD
ENDBRANCH   6  26
TORSDOF 3
ENDMDL
MODEL 7
REMARK VINA RESULT:      -7.9      3.021      4.043
REMARK  3 active torsions:
REMARK  status: ('A' for Active; 'I' for Inactive)
REMARK    1  A    between atoms: O1_2  and  C2_3 
REMARK    2  A    between atoms: C5_6  and  C6_7 
REMARK    3  A    between atoms: C9_12  and  O2_13 
ROOT
HETATM    1  C6  UNL     1      24.491   4.380  50.458  1.00  0.00     0.041 C 
HETATM    2  N1  UNL     1      23.647   5.345  50.276  1.00  0.00    -0.277 NA
HETATM    3  C7  UNL     1      24.273   6.454  49.553  1.00  0.00     0.182 C 
HETATM    4  S1  UNL     1      25.179   7.422  50.745  1.00  0.00    -0.110 SA
HETATM    5  C8  UNL     1      26.122   8.747  50.126  1.00  0.00     0.095 C 
HETATM    6  C9  UNL     1      27.184   9.504  49.955  1.00  0.00     0.115 C 
HETATM    7  N2  UNL     1      27.500  10.657  49.218  1.00  0.00    -0.259 NA
HETATM    8  C10 UNL     1      27.917  10.497  47.960  1.00  0.00     0.406 C 
HETATM    9  O3  UNL     1      28.187   9.436  46.978  1.00  0.00    -0.325 OA
HETATM   10  C11 UNL     1      27.413   8.296  47.391  1.00  0.00     0.071 A 
HETATM   11  C12 UNL     1      26.177   8.606  46.915  1.00  0.00     0.037 A 
HETATM   12  C13 UNL     1      25.581   7.478  47.437  1.00  0.00     0.010 A 
HETATM   13  C14 UNL     1      26.296   6.561  48.146  1.00  0.00    -0.051 A 
HETATM   14  C15 UNL     1      27.568   6.339  48.570  1.00  0.00     0.010 A 
HETATM   15  C16 UNL     1      28.215   7.443  48.075  1.00  0.00     0.037 A 
HETATM   16  C17 UNL     1      25.279   5.638  48.714  1.00  0.00     0.059 C 
HETATM   17  C18 UNL     1      25.810   4.778  49.840  1.00  0.00     0.072 C 
ENDROOT
BRANCH   1  18
HETATM   18  C5  UNL     1      24.194   3.125  51.143  1.00  0.00    -0.012 A 
HETATM   19  C4  UNL     1      25.222   2.525  51.831  1.00  0.00     0.016 A 
HETATM   20  C3  UNL     1      24.946   1.324  52.489  1.00  0.00     0.037 A 
HETATM   21  C2  UNL     1      23.673   0.787  52.428  1.00  0.00     0.068 A 
HETATM   22  C20 UNL     1      22.664   1.415  51.728  1.00  0.00     0.037 A 
HETATM   23  C19 UNL     1      22.919   2.605  51.070  1.00  0.00     0.016 A 
BRANCH  21  24
HETATM   24  O1  UNL     1      23.357  -0.402  53.067  1.00  0.00    -0.356 OA
HETATM   25  C1  UNL     1      24.130  -0.735  54.219  1.00  0.00     0.210 C 
ENDBRANCH  21  24
ENDBRANCH   1  18
BRANCH   6  26
HETATM   26  O2  UNL     1      28.497   9.487  50.437  1.00  0.00    -0.351 OA
HETATM   27  H8  UNL     1      29.198   9.796  49.795  1.00  0.00     0.218 HD
ENDBRANCH   6  26
TORSDOF 3
ENDMDL
MODEL 8
REMARK VINA RESULT:      -7.8      1.796      2.025
REMARK  3 active torsions:
REMARK  status: ('A' for Active; 'I' for Inactive)
REMARK    1  A    between atoms: O1_2  and  C2_3 
REMARK    2  A    between atoms: C5_6  and  C6_7 
REMARK    3  A    between atoms: C9_12  and  O2_13 
ROOT
HETATM    1  C6  UNL     1      24.230   1.855  51.270  1.00  0.00     0.041 C 
HETATM    2  N1  UNL     1      22.987   1.519  51.136  1.00  0.00    -0.277 NA
HETATM    3  C7  UNL     1      22.279   2.474  50.280  1.00  0.00     0.182 C 
HETATM    4  S1  UNL     1      21.831   3.868  51.296  1.00  0.00    -0.110 SA
HETATM    5  C8  UNL     1      21.075   5.214  50.493  1.00  0.00     0.095 C 
HETATM    6  C9  UNL     1      20.880   6.469  50.151  1.00  0.00     0.115 C 
HETATM    7  N2  UNL     1      19.994   7.168  49.316  1.00  0.00    -0.259 NA
HETATM    8  C10 UNL     1      20.322   7.297  48.028  1.00  0.00     0.406 C 
HETATM    9  O3  UNL     1      21.386   6.927  47.084  1.00  0.00    -0.325 OA
HETATM   10  C11 UNL     1      22.053   5.786  47.653  1.00  0.00     0.071 A 
HETATM   11  C12 UNL     1      21.215   4.770  47.311  1.00  0.00     0.037 A 
HETATM   12  C13 UNL     1      21.952   3.806  47.966  1.00  0.00     0.010 A 
HETATM   13  C14 UNL     1      23.096   4.120  48.636  1.00  0.00    -0.051 A 
HETATM   14  C15 UNL     1      23.872   5.201  48.915  1.00  0.00     0.010 A 
HETATM   15  C16 UNL     1      23.179   6.202  48.283  1.00  0.00     0.037 A 
HETATM   16  C17 UNL     1      23.460   2.883  49.374  1.00  0.00     0.059 C 
HETATM   17  C18 UNL     1      24.470   3.116  50.476  1.00  0.00     0.072 C 
ENDROOT
BRANCH   1  18
HETATM   18  C5  UNL     1      25.216   1.120  52.058  1.00  0.00    -0.012 A 
HETATM   19  C4  UNL     1      26.541   1.334  51.763  1.00  0.00     0.016 A 
HETATM   20  C3  UNL     1      27.491   0.635  52.512  1.00  0.00     0.037 A 
HETATM   21  C2  UNL     1      27.076  -0.234  53.506  1.00  0.00     0.068 A 
HETATM   22  C20 UNL     1      25.736  -0.425  53.775  1.00  0.00     0.037 A 
HETATM   23  C19 UNL     1      24.782   0.259  53.043  1.00  0.00     0.016 A 
BRANCH  21  24
HETATM   24  O1  UNL     1      27.985  -0.946  54.273  1.00  0.00    -0.356 OA
HETATM   25  C1  UNL     1      29.364  -0.635  54.083  1.00  0.00     0.210 C 
ENDBRANCH  21  24
ENDBRANCH   1  18
BRANCH   6  26
HETATM   26  O2  UNL     1      21.492   7.686  50.472  1.00  0.00    -0.351 OA
HETATM   27  H8  UNL     1      21.469   8.384  49.756  1.00  0.00     0.218 HD
ENDBRANCH   6  26
TORSDOF 3
ENDMDL
MODEL 9
REMARK VINA RESULT:      -7.7      4.225      6.606
REMARK  3 active torsions:
REMARK  status: ('A' for Active; 'I' for Inactive)
REMARK    1  A    between atoms: O1_2  and  C2_3 
REMARK    2  A    between atoms: C5_6  and  C6_7 
REMARK    3  A    between atoms: C9_12  and  O2_13 
ROOT
HETATM    1  C6  UNL     1      25.562   5.439  49.047  1.00  0.00     0.041 C 
HETATM    2  N1  UNL     1      24.481   6.151  49.044  1.00  0.00    -0.277 NA
HETATM    3  C7  UNL     1      23.363   5.403  49.623  1.00  0.00     0.182 C 
HETATM    4  S1  UNL     1      22.713   4.344  48.346  1.00  0.00    -0.110 SA
HETATM    5  C8  UNL     1      21.440   3.250  48.806  1.00  0.00     0.095 C 
HETATM    6  C9  UNL     1      20.807   2.102  48.914  1.00  0.00     0.115 C 
HETATM    7  N2  UNL     1      19.605   1.655  49.487  1.00  0.00    -0.259 NA
HETATM    8  C10 UNL     1      19.623   1.298  50.773  1.00  0.00     0.406 C 
HETATM    9  O3  UNL     1      20.546   1.200  51.912  1.00  0.00    -0.325 OA
HETATM   10  C11 UNL     1      21.628   2.107  51.636  1.00  0.00     0.071 A 
HETATM   11  C12 UNL     1      21.094   3.304  52.002  1.00  0.00     0.037 A 
HETATM   12  C13 UNL     1      22.203   4.030  51.624  1.00  0.00     0.010 A 
HETATM   13  C14 UNL     1      23.301   3.424  51.094  1.00  0.00    -0.051 A 
HETATM   14  C15 UNL     1      23.746   2.182  50.769  1.00  0.00     0.010 A 
HETATM   15  C16 UNL     1      22.671   1.407  51.125  1.00  0.00     0.037 A 
HETATM   16  C17 UNL     1      24.163   4.539  50.621  1.00  0.00     0.059 C 
HETATM   17  C18 UNL     1      25.245   4.096  49.661  1.00  0.00     0.072 C 
ENDROOT
BRANCH   1  18
HETATM   18  C5  UNL     1      26.858   5.881  48.542  1.00  0.00    -0.012 A 
HETATM   19  C4  UNL     1      26.928   7.147  48.011  1.00  0.00     0.016 A 
HETATM   20  C3  UNL     1      28.165   7.577  47.525  1.00  0.00     0.037 A 
HETATM   21  C2  UNL     1      29.259   6.732  47.591  1.00  0.00     0.068 A 
HETATM   22  C20 UNL     1      29.154   5.467  48.130  1.00  0.00     0.037 A 
HETATM   23  C19 UNL     1      27.936   5.024  48.617  1.00  0.00     0.016 A 
BRANCH  21  24
HETATM   24  O1  UNL     1      30.504   7.119  47.121  1.00  0.00    -0.356 OA
HETATM   25  C1  UNL     1      31.629   6.396  47.618  1.00  0.00     0.210 C 
ENDBRANCH  21  24
ENDBRANCH   1  18
BRANCH   6  26
HETATM   26  O2  UNL     1      21.065   0.789  48.503  1.00  0.00    -0.351 OA
HETATM   27  H8  UNL     1      20.674   0.527  47.620  1.00  0.00     0.218 HD
ENDBRANCH   6  26
TORSDOF 3
ENDMDL
