MODEL 1
REMARK VINA RESULT:      -8.8      0.000      0.000
REMARK  3 active torsions:
REMARK  status: ('A' for Active; 'I' for Inactive)
REMARK    1  A    between atoms: C5_8  and  C6_9 
REMARK    2  A    between atoms: C6_9  and  C7_10 
REMARK    3  A    between atoms: C7_10  and  N2_11 
ROOT
HETATM    1  O1  UNL     1      21.345   3.341  51.956  1.00  0.00    -0.339 OA
HETATM    2  C1  UNL     1      20.106   3.673  51.714  1.00  0.00     0.219 A 
HETATM    3  C2  UNL     1      20.945   4.790  51.462  1.00  0.00     0.214 A 
HETATM    4  C3  UNL     1      22.033   5.493  51.325  1.00  0.00     0.084 C 
HETATM    5  C4  UNL     1      23.337   4.935  51.503  1.00  0.00     0.241 C 
HETATM    6  O2  UNL     1      24.112   5.908  51.395  1.00  0.00    -0.269 OA
HETATM    7  N1  UNL     1      24.533   4.239  51.691  1.00  0.00    -0.335 N 
HETATM    8  C5  UNL     1      24.693   2.824  51.688  1.00  0.00     0.209 C 
HETATM    9  N4  UNL     1      24.255   2.197  52.959  1.00  0.00    -0.274 NA
HETATM   10  C11 UNL     1      23.599   1.065  52.876  1.00  0.00     0.147 C 
HETATM   11  C12 UNL     1      22.966   0.059  53.685  1.00  0.00     0.105 A 
HETATM   12  N5  UNL     1      23.910  -0.479  54.465  1.00  0.00    -0.236 NA
HETATM   13  C13 UNL     1      23.654  -1.451  55.358  1.00  0.00     0.258 A 
HETATM   14  N6  UNL     1      22.398  -1.889  55.458  1.00  0.00    -0.143 NA
HETATM   15  N7  UNL     1      21.479  -1.355  54.689  1.00  0.00    -0.147 NA
HETATM   16  C14 UNL     1      21.675  -0.378  53.775  1.00  0.00     0.110 A 
HETATM   17  C15 UNL     1      20.439   0.005  53.098  1.00  0.00     0.052 C 
HETATM   18  C16 UNL     1      19.892   1.038  52.525  1.00  0.00     0.088 C 
HETATM   19  N8  UNL     1      19.888   2.368  52.099  1.00  0.00    -0.362 N 
HETATM   20  H3  UNL     1      25.532   4.440  51.887  1.00  0.00     0.164 HD
HETATM   21  H16 UNL     1      19.026   2.938  51.814  1.00  0.00     0.162 HD
ENDROOT
BRANCH   8  22
HETATM   22  C6  UNL     1      25.968   2.261  51.182  1.00  0.00     0.069 C 
BRANCH  22  23
HETATM   23  C7  UNL     1      27.024   2.090  52.233  1.00  0.00     0.133 C 
BRANCH  23  24
HETATM   24  N2  UNL     1      27.205   0.734  52.657  1.00  0.00    -0.350 N 
HETATM   25  C8  UNL     1      26.788  -0.439  52.142  1.00  0.00     0.111 A 
HETATM   26  C9  UNL     1      27.193  -1.504  52.880  1.00  0.00     0.135 A 
HETATM   27  N3  UNL     1      27.901  -0.989  53.915  1.00  0.00    -0.255 NA
HETATM   28  C10 UNL     1      27.898   0.363  53.763  1.00  0.00     0.209 A 
ENDBRANCH  23  24
ENDBRANCH  22  23
ENDBRANCH   8  22
TORSDOF 3
ENDMDL
MODEL 2
REMARK VINA RESULT:      -8.5      2.403      5.050
REMARK  3 active torsions:
REMARK  status: ('A' for Active; 'I' for Inactive)
REMARK    1  A    between atoms: C5_8  and  C6_9 
REMARK    2  A    between atoms: C6_9  and  C7_10 
REMARK    3  A    between atoms: C7_10  and  N2_11 
ROOT
HETATM    1  O1  UNL     1      22.443   0.976  53.304  1.00  0.00    -0.339 OA
HETATM    2  C1  UNL     1      21.740   0.073  53.929  1.00  0.00     0.219 A 
HETATM    3  C2  UNL     1      20.867   1.062  53.405  1.00  0.00     0.214 A 
HETATM    4  C3  UNL     1      20.468   2.115  52.751  1.00  0.00     0.084 C 
HETATM    5  C4  UNL     1      21.363   2.937  51.999  1.00  0.00     0.241 C 
HETATM    6  O2  UNL     1      20.658   3.888  51.602  1.00  0.00    -0.269 OA
HETATM    7  N1  UNL     1      22.358   3.624  51.298  1.00  0.00    -0.335 N 
HETATM    8  C5  UNL     1      23.648   3.126  50.964  1.00  0.00     0.209 C 
HETATM    9  N4  UNL     1      24.588   3.159  52.112  1.00  0.00    -0.274 NA
HETATM   10  C11 UNL     1      25.390   2.132  52.261  1.00  0.00     0.147 C 
HETATM   11  C12 UNL     1      26.435   1.624  53.108  1.00  0.00     0.105 A 
HETATM   12  N5  UNL     1      27.455   2.486  53.046  1.00  0.00    -0.236 NA
HETATM   13  C13 UNL     1      28.598   2.317  53.732  1.00  0.00     0.258 A 
HETATM   14  N6  UNL     1      28.705   1.234  54.506  1.00  0.00    -0.143 NA
HETATM   15  N7  UNL     1      27.699   0.395  54.560  1.00  0.00    -0.147 NA
HETATM   16  C14 UNL     1      26.528   0.512  53.895  1.00  0.00     0.110 A 
HETATM   17  C15 UNL     1      25.610  -0.585  54.190  1.00  0.00     0.052 C 
HETATM   18  C16 UNL     1      24.333  -0.831  54.252  1.00  0.00     0.088 C 
HETATM   19  N8  UNL     1      22.989  -0.467  54.145  1.00  0.00    -0.362 N 
HETATM   20  H3  UNL     1      22.510   4.558  50.872  1.00  0.00     0.164 HD
HETATM   21  H16 UNL     1      22.154  -1.007  54.546  1.00  0.00     0.162 HD
ENDROOT
BRANCH   8  22
HETATM   22  C6  UNL     1      24.274   3.584  49.700  1.00  0.00     0.069 C 
BRANCH  22  23
HETATM   23  C7  UNL     1      24.762   5.001  49.733  1.00  0.00     0.133 C 
BRANCH  23  24
HETATM   24  N2  UNL     1      26.083   5.173  49.206  1.00  0.00    -0.350 N 
HETATM   25  C8  UNL     1      26.720   6.244  48.695  1.00  0.00     0.111 A 
HETATM   26  C9  UNL     1      27.989   5.956  48.306  1.00  0.00     0.135 A 
HETATM   27  N3  UNL     1      28.171   4.641  48.583  1.00  0.00    -0.255 NA
HETATM   28  C10 UNL     1      27.010   4.186  49.125  1.00  0.00     0.209 A 
ENDBRANCH  23  24
ENDBRANCH  22  23
ENDBRANCH   8  22
TORSDOF 3
ENDMDL
MODEL 3
REMARK VINA RESULT:      -8.4      1.962      5.542
REMARK  3 active torsions:
REMARK  status: ('A' for Active; 'I' for Inactive)
REMARK    1  A    between atoms: C5_8  and  C6_9 
REMARK    2  A    between atoms: C6_9  and  C7_10 
REMARK    3  A    between atoms: C7_10  and  N2_11 
ROOT
HETATM    1  O1  UNL     1      26.040   0.423  53.824  1.00  0.00    -0.339 OA
HETATM    2  C1  UNL     1      26.933  -0.264  54.482  1.00  0.00     0.219 A 
HETATM    3  C2  UNL     1      27.589   0.576  53.544  1.00  0.00     0.214 A 
HETATM    4  C3  UNL     1      27.754   1.486  52.628  1.00  0.00     0.084 C 
HETATM    5  C4  UNL     1      26.668   2.250  52.099  1.00  0.00     0.241 C 
HETATM    6  O2  UNL     1      27.180   2.936  51.189  1.00  0.00    -0.269 OA
HETATM    7  N1  UNL     1      25.510   2.923  51.700  1.00  0.00    -0.335 N 
HETATM    8  C5  UNL     1      24.271   2.952  52.400  1.00  0.00     0.209 C 
HETATM    9  N4  UNL     1      23.481   1.709  52.216  1.00  0.00    -0.274 NA
HETATM   10  C11 UNL     1      22.855   1.233  53.265  1.00  0.00     0.147 C 
HETATM   11  C12 UNL     1      22.003   0.153  53.683  1.00  0.00     0.105 A 
HETATM   12  N5  UNL     1      20.872   0.241  52.976  1.00  0.00    -0.236 NA
HETATM   13  C13 UNL     1      19.855  -0.628  53.112  1.00  0.00     0.258 A 
HETATM   14  N6  UNL     1      19.995  -1.616  53.999  1.00  0.00    -0.143 NA
HETATM   15  N7  UNL     1      21.108  -1.693  54.688  1.00  0.00    -0.147 NA
HETATM   16  C14 UNL     1      22.162  -0.851  54.594  1.00  0.00     0.110 A 
HETATM   17  C15 UNL     1      23.253  -1.227  55.489  1.00  0.00     0.052 C 
HETATM   18  C16 UNL     1      24.551  -1.148  55.571  1.00  0.00     0.088 C 
HETATM   19  N8  UNL     1      25.807  -0.770  55.095  1.00  0.00    -0.362 N 
HETATM   20  H3  UNL     1      25.177   3.505  50.909  1.00  0.00     0.164 HD
HETATM   21  H16 UNL     1      26.751  -1.145  55.435  1.00  0.00     0.162 HD
ENDROOT
BRANCH   8  22
HETATM   22  C6  UNL     1      23.439   4.176  52.310  1.00  0.00     0.069 C 
BRANCH  22  23
HETATM   23  C7  UNL     1      22.660   4.297  51.034  1.00  0.00     0.133 C 
BRANCH  23  24
HETATM   24  N2  UNL     1      21.324   3.787  51.119  1.00  0.00    -0.350 N 
HETATM   25  C8  UNL     1      20.544   3.144  50.229  1.00  0.00     0.111 A 
HETATM   26  C9  UNL     1      19.322   2.836  50.737  1.00  0.00     0.135 A 
HETATM   27  N3  UNL     1      19.323   3.303  52.010  1.00  0.00    -0.255 NA
HETATM   28  C10 UNL     1      20.539   3.873  52.222  1.00  0.00     0.209 A 
ENDBRANCH  23  24
ENDBRANCH  22  23
ENDBRANCH   8  22
TORSDOF 3
ENDMDL
MODEL 4
REMARK VINA RESULT:      -8.2      1.881      5.008
REMARK  3 active torsions:
REMARK  status: ('A' for Active; 'I' for Inactive)
REMARK    1  A    between atoms: C5_8  and  C6_9 
REMARK    2  A    between atoms: C6_9  and  C7_10 
REMARK    3  A    between atoms: C7_10  and  N2_11 
ROOT
HETATM    1  O1  UNL     1      21.523   2.123  52.550  1.00  0.00    -0.339 OA
HETATM    2  C1  UNL     1      20.361   2.714  52.608  1.00  0.00     0.219 A 
HETATM    3  C2  UNL     1      20.210   1.352  52.977  1.00  0.00     0.214 A 
HETATM    4  C3  UNL     1      20.530   0.124  53.269  1.00  0.00     0.084 C 
HETATM    5  C4  UNL     1      21.883  -0.335  53.284  1.00  0.00     0.241 C 
HETATM    6  O2  UNL     1      21.797  -1.562  53.502  1.00  0.00    -0.269 OA
HETATM    7  N1  UNL     1      23.251  -0.621  53.274  1.00  0.00    -0.335 N 
HETATM    8  C5  UNL     1      24.310   0.330  53.304  1.00  0.00     0.209 C 
HETATM    9  N4  UNL     1      24.544   0.966  51.984  1.00  0.00    -0.274 NA
HETATM   10  C11 UNL     1      24.803   2.251  51.974  1.00  0.00     0.147 C 
HETATM   11  C12 UNL     1      25.094   3.342  51.084  1.00  0.00     0.105 A 
HETATM   12  N5  UNL     1      26.235   3.047  50.451  1.00  0.00    -0.236 NA
HETATM   13  C13 UNL     1      26.792   3.856  49.533  1.00  0.00     0.258 A 
HETATM   14  N6  UNL     1      26.166   5.002  49.251  1.00  0.00    -0.143 NA
HETATM   15  N7  UNL     1      25.048   5.281  49.877  1.00  0.00    -0.147 NA
HETATM   16  C14 UNL     1      24.442   4.509  50.808  1.00  0.00     0.110 A 
HETATM   17  C15 UNL     1      23.200   5.102  51.296  1.00  0.00     0.052 C 
HETATM   18  C16 UNL     1      22.046   4.745  51.781  1.00  0.00     0.088 C 
HETATM   19  N8  UNL     1      21.111   3.796  52.199  1.00  0.00    -0.362 N 
HETATM   20  H3  UNL     1      23.876  -1.448  53.226  1.00  0.00     0.164 HD
HETATM   21  H16 UNL     1      20.064   3.965  52.353  1.00  0.00     0.162 HD
ENDROOT
BRANCH   8  22
HETATM   22  C6  UNL     1      25.570  -0.041  53.992  1.00  0.00     0.069 C 
BRANCH  22  23
HETATM   23  C7  UNL     1      26.477  -0.919  53.182  1.00  0.00     0.133 C 
BRANCH  23  24
HETATM   24  N2  UNL     1      27.869  -0.623  53.345  1.00  0.00    -0.350 N 
HETATM   25  C8  UNL     1      28.962  -1.409  53.379  1.00  0.00     0.111 A 
HETATM   26  C9  UNL     1      30.106  -0.699  53.557  1.00  0.00     0.135 A 
HETATM   27  N3  UNL     1      29.726   0.600  53.640  1.00  0.00    -0.255 NA
HETATM   28  C10 UNL     1      28.373   0.626  53.510  1.00  0.00     0.209 A 
ENDBRANCH  23  24
ENDBRANCH  22  23
ENDBRANCH   8  22
TORSDOF 3
ENDMDL
MODEL 5
REMARK VINA RESULT:      -8.2      2.227      5.543
REMARK  3 active torsions:
REMARK  status: ('A' for Active; 'I' for Inactive)
REMARK    1  A    between atoms: C5_8  and  C6_9 
REMARK    2  A    between atoms: C6_9  and  C7_10 
REMARK    3  A    between atoms: C7_10  and  N2_11 
ROOT
HETATM    1  O1  UNL     1      25.710   0.303  53.735  1.00  0.00    -0.339 OA
HETATM    2  C1  UNL     1      26.498  -0.509  54.384  1.00  0.00     0.219 A 
HETATM    3  C2  UNL     1      27.279   0.319  53.536  1.00  0.00     0.214 A 
HETATM    4  C3  UNL     1      27.577   1.264  52.691  1.00  0.00     0.084 C 
HETATM    5  C4  UNL     1      26.598   2.164  52.166  1.00  0.00     0.241 C 
HETATM    6  O2  UNL     1      27.220   2.851  51.329  1.00  0.00    -0.269 OA
HETATM    7  N1  UNL     1      25.532   2.972  51.763  1.00  0.00    -0.335 N 
HETATM    8  C5  UNL     1      24.267   3.079  52.407  1.00  0.00     0.209 C 
HETATM    9  N4  UNL     1      23.372   1.935  52.104  1.00  0.00    -0.274 NA
HETATM   10  C11 UNL     1      22.651   1.458  53.089  1.00  0.00     0.147 C 
HETATM   11  C12 UNL     1      21.678   0.445  53.395  1.00  0.00     0.105 A 
HETATM   12  N5  UNL     1      20.598   0.688  52.645  1.00  0.00    -0.236 NA
HETATM   13  C13 UNL     1      19.497  -0.082  52.677  1.00  0.00     0.258 A 
HETATM   14  N6  UNL     1      19.496  -1.133  53.500  1.00  0.00    -0.143 NA
HETATM   15  N7  UNL     1      20.560  -1.363  54.232  1.00  0.00    -0.147 NA
HETATM   16  C14 UNL     1      21.694  -0.626  54.242  1.00  0.00     0.110 A 
HETATM   17  C15 UNL     1      22.696  -1.164  55.158  1.00  0.00     0.052 C 
HETATM   18  C16 UNL     1      23.989  -1.219  55.303  1.00  0.00     0.088 C 
HETATM   19  N8  UNL     1      25.299  -0.938  54.910  1.00  0.00    -0.362 N 
HETATM   20  H3  UNL     1      25.298   3.633  50.998  1.00  0.00     0.164 HD
HETATM   21  H16 UNL     1      26.184  -1.426  55.266  1.00  0.00     0.162 HD
ENDROOT
BRANCH   8  22
HETATM   22  C6  UNL     1      23.563   4.383  52.362  1.00  0.00     0.069 C 
BRANCH  22  23
HETATM   23  C7  UNL     1      23.344   4.916  50.978  1.00  0.00     0.133 C 
BRANCH  23  24
HETATM   24  N2  UNL     1      24.156   6.053  50.659  1.00  0.00    -0.350 N 
HETATM   25  C8  UNL     1      25.383   6.162  50.113  1.00  0.00     0.111 A 
HETATM   26  C9  UNL     1      25.780   7.455  49.987  1.00  0.00     0.135 A 
HETATM   27  N3  UNL     1      24.761   8.205  50.473  1.00  0.00    -0.255 NA
HETATM   28  C10 UNL     1      23.790   7.341  50.874  1.00  0.00     0.209 A 
ENDBRANCH  23  24
ENDBRANCH  22  23
ENDBRANCH   8  22
TORSDOF 3
ENDMDL
MODEL 6
REMARK VINA RESULT:      -8.1      2.416      6.884
REMARK  3 active torsions:
REMARK  status: ('A' for Active; 'I' for Inactive)
REMARK    1  A    between atoms: C5_8  and  C6_9 
REMARK    2  A    between atoms: C6_9  and  C7_10 
REMARK    3  A    between atoms: C7_10  and  N2_11 
ROOT
HETATM    1  O1  UNL     1      26.236   1.579  52.755  1.00  0.00    -0.339 OA
HETATM    2  C1  UNL     1      27.465   1.923  52.482  1.00  0.00     0.219 A 
HETATM    3  C2  UNL     1      27.471   0.971  53.535  1.00  0.00     0.214 A 
HETATM    4  C3  UNL     1      27.026   0.104  54.398  1.00  0.00     0.084 C 
HETATM    5  C4  UNL     1      25.647  -0.261  54.481  1.00  0.00     0.241 C 
HETATM    6  O2  UNL     1      25.582  -1.023  55.469  1.00  0.00    -0.269 OA
HETATM    7  N1  UNL     1      24.276  -0.523  54.422  1.00  0.00    -0.335 N 
HETATM    8  C5  UNL     1      23.404  -0.206  53.343  1.00  0.00     0.209 C 
HETATM    9  N4  UNL     1      23.020   1.227  53.321  1.00  0.00    -0.274 NA
HETATM   10  C11 UNL     1      22.967   1.818  52.151  1.00  0.00     0.147 C 
HETATM   11  C12 UNL     1      22.682   3.084  51.532  1.00  0.00     0.105 A 
HETATM   12  N5  UNL     1      21.409   3.385  51.808  1.00  0.00    -0.236 NA
HETATM   13  C13 UNL     1      20.817   4.516  51.385  1.00  0.00     0.258 A 
HETATM   14  N6  UNL     1      21.547   5.366  50.659  1.00  0.00    -0.143 NA
HETATM   15  N7  UNL     1      22.794   5.061  50.394  1.00  0.00    -0.147 NA
HETATM   16  C14 UNL     1      23.442   3.942  50.791  1.00  0.00     0.110 A 
HETATM   17  C15 UNL     1      24.832   3.917  50.343  1.00  0.00     0.052 C 
HETATM   18  C16 UNL     1      25.989   3.439  50.702  1.00  0.00     0.088 C 
HETATM   19  N8  UNL     1      26.828   2.718  51.554  1.00  0.00    -0.362 N 
HETATM   20  H3  UNL     1      23.533  -0.934  55.018  1.00  0.00     0.164 HD
HETATM   21  H16 UNL     1      27.898   2.767  51.577  1.00  0.00     0.162 HD
ENDROOT
BRANCH   8  22
HETATM   22  C6  UNL     1      22.259  -1.109  53.073  1.00  0.00     0.069 C 
BRANCH  22  23
HETATM   23  C7  UNL     1      21.088  -0.905  53.986  1.00  0.00     0.133 C 
BRANCH  23  24
HETATM   24  N2  UNL     1      19.840  -0.738  53.301  1.00  0.00    -0.350 N 
HETATM   25  C8  UNL     1      18.647  -1.349  53.436  1.00  0.00     0.111 A 
HETATM   26  C9  UNL     1      17.720  -0.873  52.564  1.00  0.00     0.135 A 
HETATM   27  N3  UNL     1      18.350   0.084  51.840  1.00  0.00    -0.255 NA
HETATM   28  C10 UNL     1      19.628   0.151  52.299  1.00  0.00     0.209 A 
ENDBRANCH  23  24
ENDBRANCH  22  23
ENDBRANCH   8  22
TORSDOF 3
ENDMDL
MODEL 7
REMARK VINA RESULT:      -7.8      2.336      5.437
REMARK  3 active torsions:
REMARK  status: ('A' for Active; 'I' for Inactive)
REMARK    1  A    between atoms: C5_8  and  C6_9 
REMARK    2  A    between atoms: C6_9  and  C7_10 
REMARK    3  A    between atoms: C7_10  and  N2_11 
ROOT
HETATM    1  O1  UNL     1      25.001   0.393  53.355  1.00  0.00    -0.339 OA
HETATM    2  C1  UNL     1      25.580  -0.566  54.024  1.00  0.00     0.219 A 
HETATM    3  C2  UNL     1      26.567   0.172  53.320  1.00  0.00     0.214 A 
HETATM    4  C3  UNL     1      27.097   1.101  52.578  1.00  0.00     0.084 C 
HETATM    5  C4  UNL     1      26.331   2.170  52.018  1.00  0.00     0.241 C 
HETATM    6  O2  UNL     1      27.139   2.793  51.298  1.00  0.00    -0.269 OA
HETATM    7  N1  UNL     1      25.450   3.155  51.564  1.00  0.00    -0.335 N 
HETATM    8  C5  UNL     1      24.152   3.427  52.080  1.00  0.00     0.209 C 
HETATM    9  N4  UNL     1      23.135   2.455  51.608  1.00  0.00    -0.274 NA
HETATM   10  C11 UNL     1      22.243   2.047  52.479  1.00  0.00     0.147 C 
HETATM   11  C12 UNL     1      21.101   1.185  52.613  1.00  0.00     0.105 A 
HETATM   12  N5  UNL     1      20.161   1.634  51.774  1.00  0.00    -0.236 NA
HETATM   13  C13 UNL     1      18.960   1.046  51.639  1.00  0.00     0.258 A 
HETATM   14  N6  UNL     1      18.708  -0.033  52.383  1.00  0.00    -0.143 NA
HETATM   15  N7  UNL     1      19.636  -0.465  53.203  1.00  0.00    -0.147 NA
HETATM   16  C14 UNL     1      20.859   0.083  53.381  1.00  0.00     0.110 A 
HETATM   17  C15 UNL     1      21.660  -0.653  54.356  1.00  0.00     0.052 C 
HETATM   18  C16 UNL     1      22.905  -0.919  54.630  1.00  0.00     0.088 C 
HETATM   19  N8  UNL     1      24.278  -0.828  54.394  1.00  0.00    -0.362 N 
HETATM   20  H3  UNL     1      25.407   3.884  50.827  1.00  0.00     0.164 HD
HETATM   21  H16 UNL     1      25.034  -1.467  54.804  1.00  0.00     0.162 HD
ENDROOT
BRANCH   8  22
HETATM   22  C6  UNL     1      23.662   4.826  52.053  1.00  0.00     0.069 C 
BRANCH  22  23
HETATM   23  C7  UNL     1      23.406   5.361  50.676  1.00  0.00     0.133 C 
BRANCH  23  24
HETATM   24  N2  UNL     1      24.528   6.039  50.098  1.00  0.00    -0.350 N 
HETATM   25  C8  UNL     1      25.240   7.110  50.498  1.00  0.00     0.111 A 
HETATM   26  C9  UNL     1      26.239   7.421  49.632  1.00  0.00     0.135 A 
HETATM   27  N3  UNL     1      26.162   6.506  48.634  1.00  0.00    -0.255 NA
HETATM   28  C10 UNL     1      25.124   5.680  48.934  1.00  0.00     0.209 A 
ENDBRANCH  23  24
ENDBRANCH  22  23
ENDBRANCH   8  22
TORSDOF 3
ENDMDL
MODEL 8
REMARK VINA RESULT:      -7.6      1.951      4.921
REMARK  3 active torsions:
REMARK  status: ('A' for Active; 'I' for Inactive)
REMARK    1  A    between atoms: C5_8  and  C6_9 
REMARK    2  A    between atoms: C6_9  and  C7_10 
REMARK    3  A    between atoms: C7_10  and  N2_11 
ROOT
HETATM    1  O1  UNL     1      21.560   1.281  53.039  1.00  0.00    -0.339 OA
HETATM    2  C1  UNL     1      20.280   1.146  53.253  1.00  0.00     0.219 A 
HETATM    3  C2  UNL     1      20.958   0.000  53.746  1.00  0.00     0.214 A 
HETATM    4  C3  UNL     1      21.940  -0.791  54.071  1.00  0.00     0.084 C 
HETATM    5  C4  UNL     1      23.311  -0.431  53.886  1.00  0.00     0.241 C 
HETATM    6  O2  UNL     1      23.951  -1.454  54.208  1.00  0.00    -0.269 OA
HETATM    7  N1  UNL     1      24.593   0.075  53.659  1.00  0.00    -0.335 N 
HETATM    8  C5  UNL     1      24.932   1.438  53.432  1.00  0.00     0.209 C 
HETATM    9  N4  UNL     1      24.633   1.878  52.047  1.00  0.00    -0.274 NA
HETATM   10  C11 UNL     1      24.124   3.076  51.893  1.00  0.00     0.147 C 
HETATM   11  C12 UNL     1      23.660   3.990  50.885  1.00  0.00     0.105 A 
HETATM   12  N5  UNL     1      24.698   4.266  50.088  1.00  0.00    -0.236 NA
HETATM   13  C13 UNL     1      24.607   5.087  49.028  1.00  0.00     0.258 A 
HETATM   14  N6  UNL     1      23.422   5.646  48.772  1.00  0.00    -0.143 NA
HETATM   15  N7  UNL     1      22.411   5.370  49.560  1.00  0.00    -0.147 NA
HETATM   16  C14 UNL     1      22.441   4.553  50.638  1.00  0.00     0.110 A 
HETATM   17  C15 UNL     1      21.138   4.445  51.288  1.00  0.00     0.052 C 
HETATM   18  C16 UNL     1      20.439   3.602  51.993  1.00  0.00     0.088 C 
HETATM   19  N8  UNL     1      20.247   2.379  52.638  1.00  0.00    -0.362 N 
HETATM   20  H3  UNL     1      25.566  -0.275  53.567  1.00  0.00     0.164 HD
HETATM   21  H16 UNL     1      19.308   1.974  52.959  1.00  0.00     0.162 HD
ENDROOT
BRANCH   8  22
HETATM   22  C6  UNL     1      26.246   1.927  53.916  1.00  0.00     0.069 C 
BRANCH  22  23
HETATM   23  C7  UNL     1      27.376   1.706  52.957  1.00  0.00     0.133 C 
BRANCH  23  24
HETATM   24  N2  UNL     1      28.127   0.513  53.210  1.00  0.00    -0.350 N 
HETATM   25  C8  UNL     1      27.883  -0.784  52.939  1.00  0.00     0.111 A 
HETATM   26  C9  UNL     1      28.882  -1.600  53.364  1.00  0.00     0.135 A 
HETATM   27  N3  UNL     1      29.807  -0.787  53.931  1.00  0.00    -0.255 NA
HETATM   28  C10 UNL     1      29.334   0.484  53.829  1.00  0.00     0.209 A 
ENDBRANCH  23  24
ENDBRANCH  22  23
ENDBRANCH   8  22
TORSDOF 3
ENDMDL
MODEL 9
REMARK VINA RESULT:      -7.3      2.481      7.368
REMARK  3 active torsions:
REMARK  status: ('A' for Active; 'I' for Inactive)
REMARK    1  A    between atoms: C5_8  and  C6_9 
REMARK    2  A    between atoms: C6_9  and  C7_10 
REMARK    3  A    between atoms: C7_10  and  N2_11 
ROOT
HETATM    1  O1  UNL     1      25.341   0.686  52.955  1.00  0.00    -0.339 OA
HETATM    2  C1  UNL     1      26.589   0.393  53.196  1.00  0.00     0.219 A 
HETATM    3  C2  UNL     1      25.754  -0.401  54.026  1.00  0.00     0.214 A 
HETATM    4  C3  UNL     1      24.670  -0.915  54.531  1.00  0.00     0.084 C 
HETATM    5  C4  UNL     1      23.365  -0.576  54.057  1.00  0.00     0.241 C 
HETATM    6  O2  UNL     1      22.585  -1.172  54.829  1.00  0.00    -0.269 OA
HETATM    7  N1  UNL     1      22.168  -0.156  53.470  1.00  0.00    -0.335 N 
HETATM    8  C5  UNL     1      22.030   0.491  52.210  1.00  0.00     0.209 C 
HETATM    9  N4  UNL     1      22.381   1.932  52.266  1.00  0.00    -0.274 NA
HETATM   10  C11 UNL     1      23.059   2.426  51.258  1.00  0.00     0.147 C 
HETATM   11  C12 UNL     1      23.644   3.647  50.775  1.00  0.00     0.105 A 
HETATM   12  N5  UNL     1      22.652   4.529  50.616  1.00  0.00    -0.236 NA
HETATM   13  C13 UNL     1      22.854   5.786  50.183  1.00  0.00     0.258 A 
HETATM   14  N6  UNL     1      24.106   6.154  49.904  1.00  0.00    -0.143 NA
HETATM   15  N7  UNL     1      25.072   5.281  50.063  1.00  0.00    -0.147 NA
HETATM   16  C14 UNL     1      24.931   4.007  50.494  1.00  0.00     0.110 A 
HETATM   17  C15 UNL     1      26.208   3.305  50.578  1.00  0.00     0.052 C 
HETATM   18  C16 UNL     1      26.781   2.350  51.253  1.00  0.00     0.088 C 
HETATM   19  N8  UNL     1      26.797   1.354  52.232  1.00  0.00    -0.362 N 
HETATM   20  H3  UNL     1      21.154  -0.137  53.690  1.00  0.00     0.164 HD
HETATM   21  H16 UNL     1      27.669   0.889  52.646  1.00  0.00     0.162 HD
ENDROOT
BRANCH   8  22
HETATM   22  C6  UNL     1      20.806   0.231  51.415  1.00  0.00     0.069 C 
BRANCH  22  23
HETATM   23  C7  UNL     1      19.560   0.831  51.992  1.00  0.00     0.133 C 
BRANCH  23  24
HETATM   24  N2  UNL     1      18.566  -0.134  52.359  1.00  0.00    -0.350 N 
HETATM   25  C8  UNL     1      17.326  -0.377  51.891  1.00  0.00     0.111 A 
HETATM   26  C9  UNL     1      16.721  -1.405  52.540  1.00  0.00     0.135 A 
HETATM   27  N3  UNL     1      17.614  -1.838  53.463  1.00  0.00    -0.255 NA
HETATM   28  C10 UNL     1      18.722  -1.059  53.338  1.00  0.00     0.209 A 
ENDBRANCH  23  24
ENDBRANCH  22  23
ENDBRANCH   8  22
TORSDOF 3
ENDMDL
