MODEL 1
REMARK VINA RESULT:      -8.3      0.000      0.000
REMARK  6 active torsions:
REMARK  status: ('A' for Active; 'I' for Inactive)
REMARK    1  A    between atoms: C3_3  and  C4_4 
REMARK    2  A    between atoms: C5_5  and  C6_6 
REMARK    3  A    between atoms: C6_6  and  C7_7 
REMARK    4  A    between atoms: C11_11  and  N1_12 
REMARK    5  A    between atoms: N1_12  and  C12_13 
REMARK    6  A    between atoms: C17_21  and  C18_22 
ROOT
HETATM    1  C1  UNL     1      30.841   7.868  48.309  1.00  0.00     0.096 C 
HETATM    2  C2  UNL     1      29.592   7.473  48.360  1.00  0.00    -0.155 C 
HETATM    3  C3  UNL     1      28.382   6.959  48.240  1.00  0.00     0.050 C 
ENDROOT
BRANCH   3   4
HETATM    4  C4  UNL     1      28.293   5.504  48.392  1.00  0.00     0.004 C 
HETATM    5  C5  UNL     1      27.074   5.053  48.718  1.00  0.00    -0.022 C 
BRANCH   5   6
HETATM    6  C6  UNL     1      25.768   5.752  48.962  1.00  0.00     0.066 C 
BRANCH   6   7
HETATM    7  C7  UNL     1      25.127   5.028  50.115  1.00  0.00    -0.053 A 
HETATM    8  C8  UNL     1      24.137   5.632  50.862  1.00  0.00     0.007 A 
HETATM    9  C9  UNL     1      23.587   4.905  51.895  1.00  0.00     0.003 A 
HETATM   10  C10 UNL     1      23.972   3.627  52.215  1.00  0.00     0.029 A 
HETATM   11  C11 UNL     1      24.968   3.042  51.450  1.00  0.00     0.034 A 
HETATM   12  C20 UNL     1      25.530   3.747  50.414  1.00  0.00     0.037 A 
BRANCH  11  13
HETATM   13  N1  UNL     1      25.459   1.726  51.645  1.00  0.00    -0.339 N 
HETATM   14  H11 UNL     1      25.595   1.049  50.894  1.00  0.00     0.167 HD
BRANCH  13  15
HETATM   15  C12 UNL     1      25.872   1.008  52.795  1.00  0.00     0.160 A 
HETATM   16  N2  UNL     1      27.168   1.126  53.220  1.00  0.00    -0.222 NA
HETATM   17  C13 UNL     1      27.593   0.443  54.318  1.00  0.00     0.238 A 
HETATM   18  N3  UNL     1      26.795  -0.370  55.041  1.00  0.00    -0.216 NA
HETATM   19  C14 UNL     1      25.519  -0.493  54.631  1.00  0.00     0.196 A 
HETATM   20  C15 UNL     1      25.016   0.180  53.512  1.00  0.00     0.128 A 
HETATM   21  O1  UNL     1      24.752  -1.343  55.418  1.00  0.00    -0.332 OA
HETATM   22  N4  UNL     1      23.692   0.159  52.930  1.00  0.00    -0.383 N 
HETATM   23  C16 UNL     1      22.830  -0.989  53.151  1.00  0.00     0.129 C 
HETATM   24  H13 UNL     1      23.534   1.060  52.381  1.00  0.00     0.159 HD
HETATM   25  C17 UNL     1      22.441  -1.287  54.531  1.00  0.00     0.056 C 
HETATM   26  C19 UNL     1      23.383  -1.287  55.637  1.00  0.00     0.186 C 
BRANCH  25  27
HETATM   27  C18 UNL     1      21.221  -0.405  54.854  1.00  0.00     0.230 C 
HETATM   28  F1  UNL     1      20.605  -0.095  53.672  1.00  0.00    -0.255 F 
ENDBRANCH  25  27
ENDBRANCH  13  15
ENDBRANCH  11  13
ENDBRANCH   6   7
ENDBRANCH   5   6
ENDBRANCH   3   4
TORSDOF 6
ENDMDL
MODEL 2
REMARK VINA RESULT:      -8.2      2.388      3.782
REMARK  6 active torsions:
REMARK  status: ('A' for Active; 'I' for Inactive)
REMARK    1  A    between atoms: C3_3  and  C4_4 
REMARK    2  A    between atoms: C5_5  and  C6_6 
REMARK    3  A    between atoms: C6_6  and  C7_7 
REMARK    4  A    between atoms: C11_11  and  N1_12 
REMARK    5  A    between atoms: N1_12  and  C12_13 
REMARK    6  A    between atoms: C17_21  and  C18_22 
ROOT
HETATM    1  C1  UNL     1      32.141   7.732  49.264  1.00  0.00     0.096 C 
HETATM    2  C2  UNL     1      30.925   7.505  48.831  1.00  0.00    -0.155 C 
HETATM    3  C3  UNL     1      29.793   7.151  48.252  1.00  0.00     0.050 C 
ENDROOT
BRANCH   3   4
HETATM    4  C4  UNL     1      29.467   5.724  48.316  1.00  0.00     0.004 C 
HETATM    5  C5  UNL     1      28.155   5.456  48.374  1.00  0.00    -0.022 C 
BRANCH   5   6
HETATM    6  C6  UNL     1      26.940   6.340  48.387  1.00  0.00     0.066 C 
BRANCH   6   7
HETATM    7  C7  UNL     1      25.992   5.714  49.374  1.00  0.00    -0.053 A 
HETATM    8  C8  UNL     1      24.982   6.460  49.947  1.00  0.00     0.007 A 
HETATM    9  C9  UNL     1      24.144   5.819  50.833  1.00  0.00     0.003 A 
HETATM   10  C10 UNL     1      24.262   4.493  51.169  1.00  0.00     0.029 A 
HETATM   11  C11 UNL     1      25.283   3.766  50.580  1.00  0.00     0.034 A 
HETATM   12  C20 UNL     1      26.131   4.384  49.693  1.00  0.00     0.037 A 
BRANCH  11  13
HETATM   13  N1  UNL     1      25.523   2.389  50.812  1.00  0.00    -0.339 N 
HETATM   14  H11 UNL     1      25.982   1.767  50.145  1.00  0.00     0.167 HD
BRANCH  13  15
HETATM   15  C12 UNL     1      25.244   1.528  51.903  1.00  0.00     0.160 A 
HETATM   16  N2  UNL     1      23.975   1.039  52.054  1.00  0.00    -0.222 NA
HETATM   17  C13 UNL     1      23.678   0.216  53.097  1.00  0.00     0.238 A 
HETATM   18  N3  UNL     1      24.582  -0.163  54.024  1.00  0.00    -0.216 NA
HETATM   19  C14 UNL     1      25.834   0.313  53.884  1.00  0.00     0.196 A 
HETATM   20  C15 UNL     1      26.207   1.162  52.837  1.00  0.00     0.128 A 
HETATM   21  O1  UNL     1      26.714  -0.115  54.870  1.00  0.00    -0.332 OA
HETATM   22  N4  UNL     1      27.487   1.768  52.540  1.00  0.00    -0.383 N 
HETATM   23  C16 UNL     1      28.447   1.976  53.610  1.00  0.00     0.129 C 
HETATM   24  H13 UNL     1      27.539   1.991  51.498  1.00  0.00     0.159 HD
HETATM   25  C17 UNL     1      28.949   0.790  54.308  1.00  0.00     0.056 C 
HETATM   26  C19 UNL     1      28.087  -0.288  54.760  1.00  0.00     0.186 C 
BRANCH  25  27
HETATM   27  C18 UNL     1      30.118   0.238  53.470  1.00  0.00     0.230 C 
HETATM   28  F1  UNL     1      30.190  -1.110  53.693  1.00  0.00    -0.255 F 
ENDBRANCH  25  27
ENDBRANCH  13  15
ENDBRANCH  11  13
ENDBRANCH   6   7
ENDBRANCH   5   6
ENDBRANCH   3   4
TORSDOF 6
ENDMDL
MODEL 3
REMARK VINA RESULT:      -7.8      2.731      4.371
REMARK  6 active torsions:
REMARK  status: ('A' for Active; 'I' for Inactive)
REMARK    1  A    between atoms: C3_3  and  C4_4 
REMARK    2  A    between atoms: C5_5  and  C6_6 
REMARK    3  A    between atoms: C6_6  and  C7_7 
REMARK    4  A    between atoms: C11_11  and  N1_12 
REMARK    5  A    between atoms: N1_12  and  C12_13 
REMARK    6  A    between atoms: C17_21  and  C18_22 
ROOT
HETATM    1  C1  UNL     1      31.708   4.830  47.154  1.00  0.00     0.096 C 
HETATM    2  C2  UNL     1      30.767   5.415  47.855  1.00  0.00    -0.155 C 
HETATM    3  C3  UNL     1      29.717   6.022  48.376  1.00  0.00     0.050 C 
ENDROOT
BRANCH   3   4
HETATM    4  C4  UNL     1      28.445   5.306  48.253  1.00  0.00     0.004 C 
HETATM    5  C5  UNL     1      27.362   6.043  48.539  1.00  0.00    -0.022 C 
BRANCH   5   6
HETATM    6  C6  UNL     1      27.196   7.474  48.965  1.00  0.00     0.066 C 
BRANCH   6   7
HETATM    7  C7  UNL     1      25.798   7.575  49.513  1.00  0.00    -0.053 A 
HETATM    8  C8  UNL     1      24.904   8.489  48.993  1.00  0.00     0.007 A 
HETATM    9  C9  UNL     1      23.637   8.518  49.535  1.00  0.00     0.003 A 
HETATM   10  C10 UNL     1      23.227   7.695  50.555  1.00  0.00     0.029 A 
HETATM   11  C11 UNL     1      24.143   6.787  51.060  1.00  0.00     0.034 A 
HETATM   12  C20 UNL     1      25.411   6.739  50.534  1.00  0.00     0.037 A 
BRANCH  11  13
HETATM   13  N1  UNL     1      23.866   5.861  52.097  1.00  0.00    -0.339 N 
HETATM   14  H11 UNL     1      24.279   5.904  53.029  1.00  0.00     0.167 HD
BRANCH  13  15
HETATM   15  C12 UNL     1      23.031   4.718  52.176  1.00  0.00     0.160 A 
HETATM   16  N2  UNL     1      21.684   4.866  51.976  1.00  0.00    -0.222 NA
HETATM   17  C13 UNL     1      20.859   3.786  52.052  1.00  0.00     0.238 A 
HETATM   18  N3  UNL     1      21.294   2.536  52.320  1.00  0.00    -0.216 NA
HETATM   19  C14 UNL     1      22.616   2.382  52.518  1.00  0.00     0.196 A 
HETATM   20  C15 UNL     1      23.520   3.447  52.454  1.00  0.00     0.128 A 
HETATM   21  O1  UNL     1      22.997   1.073  52.788  1.00  0.00    -0.332 OA
HETATM   22  N4  UNL     1      24.955   3.465  52.647  1.00  0.00    -0.383 N 
HETATM   23  C16 UNL     1      25.582   2.429  53.448  1.00  0.00     0.129 C 
HETATM   24  H13 UNL     1      25.369   4.302  52.132  1.00  0.00     0.159 HD
HETATM   25  C17 UNL     1      25.465   1.047  52.979  1.00  0.00     0.056 C 
HETATM   26  C19 UNL     1      24.217   0.473  52.508  1.00  0.00     0.186 C 
BRANCH  25  27
HETATM   27  C18 UNL     1      26.589   0.825  51.950  1.00  0.00     0.230 C 
HETATM   28  F1  UNL     1      26.717  -0.524  51.757  1.00  0.00    -0.255 F 
ENDBRANCH  25  27
ENDBRANCH  13  15
ENDBRANCH  11  13
ENDBRANCH   6   7
ENDBRANCH   5   6
ENDBRANCH   3   4
TORSDOF 6
ENDMDL
MODEL 4
REMARK VINA RESULT:      -7.7      7.904     10.037
REMARK  6 active torsions:
REMARK  status: ('A' for Active; 'I' for Inactive)
REMARK    1  A    between atoms: C3_3  and  C4_4 
REMARK    2  A    between atoms: C5_5  and  C6_6 
REMARK    3  A    between atoms: C6_6  and  C7_7 
REMARK    4  A    between atoms: C11_11  and  N1_12 
REMARK    5  A    between atoms: N1_12  and  C12_13 
REMARK    6  A    between atoms: C17_21  and  C18_22 
ROOT
HETATM    1  C1  UNL     1      33.256   4.734  43.698  1.00  0.00     0.096 C 
HETATM    2  C2  UNL     1      34.318   4.450  44.413  1.00  0.00    -0.155 C 
HETATM    3  C3  UNL     1      35.272   4.231  45.297  1.00  0.00     0.050 C 
ENDROOT
BRANCH   3   4
HETATM    4  C4  UNL     1      34.965   3.236  46.329  1.00  0.00     0.004 C 
HETATM    5  C5  UNL     1      34.579   3.754  47.503  1.00  0.00    -0.022 C 
BRANCH   5   6
HETATM    6  C6  UNL     1      34.397   5.169  47.975  1.00  0.00     0.066 C 
BRANCH   6   7
HETATM    7  C7  UNL     1      32.909   5.393  48.024  1.00  0.00    -0.053 A 
HETATM    8  C8  UNL     1      32.048   4.537  47.369  1.00  0.00     0.007 A 
HETATM    9  C9  UNL     1      30.698   4.797  47.467  1.00  0.00     0.003 A 
HETATM   10  C10 UNL     1      30.175   5.851  48.175  1.00  0.00     0.029 A 
HETATM   11  C11 UNL     1      31.061   6.695  48.825  1.00  0.00     0.034 A 
HETATM   12  C20 UNL     1      32.411   6.455  48.741  1.00  0.00     0.037 A 
BRANCH  11  13
HETATM   13  N1  UNL     1      30.675   7.812  49.607  1.00  0.00    -0.339 N 
HETATM   14  H11 UNL     1      30.687   7.828  50.627  1.00  0.00     0.167 HD
BRANCH  13  15
HETATM   15  C12 UNL     1      30.208   9.109  49.277  1.00  0.00     0.160 A 
HETATM   16  N2  UNL     1      31.118  10.079  48.952  1.00  0.00    -0.222 NA
HETATM   17  C13 UNL     1      30.696  11.334  48.637  1.00  0.00     0.238 A 
HETATM   18  N3  UNL     1      29.397  11.700  48.623  1.00  0.00    -0.216 NA
HETATM   19  C14 UNL     1      28.495  10.752  48.942  1.00  0.00     0.196 A 
HETATM   20  C15 UNL     1      28.858   9.443  49.275  1.00  0.00     0.128 A 
HETATM   21  O1  UNL     1      27.178  11.193  48.908  1.00  0.00    -0.332 OA
HETATM   22  N4  UNL     1      28.034   8.314  49.648  1.00  0.00    -0.383 N 
HETATM   23  C16 UNL     1      26.722   8.544  50.225  1.00  0.00     0.129 C 
HETATM   24  H13 UNL     1      28.555   7.410  49.427  1.00  0.00     0.159 HD
HETATM   25  C17 UNL     1      25.734   9.244  49.401  1.00  0.00     0.056 C 
HETATM   26  C19 UNL     1      26.042  10.442  48.640  1.00  0.00     0.186 C 
BRANCH  25  27
HETATM   27  C18 UNL     1      25.068   8.185  48.502  1.00  0.00     0.230 C 
HETATM   28  F1  UNL     1      25.067   6.999  49.185  1.00  0.00    -0.255 F 
ENDBRANCH  25  27
ENDBRANCH  13  15
ENDBRANCH  11  13
ENDBRANCH   6   7
ENDBRANCH   5   6
ENDBRANCH   3   4
TORSDOF 6
ENDMDL
MODEL 5
REMARK VINA RESULT:      -7.7      4.693      8.944
REMARK  6 active torsions:
REMARK  status: ('A' for Active; 'I' for Inactive)
REMARK    1  A    between atoms: C3_3  and  C4_4 
REMARK    2  A    between atoms: C5_5  and  C6_6 
REMARK    3  A    between atoms: C6_6  and  C7_7 
REMARK    4  A    between atoms: C11_11  and  N1_12 
REMARK    5  A    between atoms: N1_12  and  C12_13 
REMARK    6  A    between atoms: C17_21  and  C18_22 
ROOT
HETATM    1  C1  UNL     1      29.669  -0.376  53.918  1.00  0.00     0.096 C 
HETATM    2  C2  UNL     1      28.409  -0.194  54.230  1.00  0.00    -0.155 C 
HETATM    3  C3  UNL     1      27.120   0.064  54.346  1.00  0.00     0.050 C 
ENDROOT
BRANCH   3   4
HETATM    4  C4  UNL     1      26.239  -0.688  53.449  1.00  0.00     0.004 C 
HETATM    5  C5  UNL     1      25.130  -0.031  53.079  1.00  0.00    -0.022 C 
BRANCH   5   6
HETATM    6  C6  UNL     1      24.608   1.338  53.408  1.00  0.00     0.066 C 
BRANCH   6   7
HETATM    7  C7  UNL     1      24.379   2.015  52.083  1.00  0.00    -0.053 A 
HETATM    8  C8  UNL     1      23.396   1.566  51.226  1.00  0.00     0.007 A 
HETATM    9  C9  UNL     1      23.234   2.241  50.035  1.00  0.00     0.003 A 
HETATM   10  C10 UNL     1      23.994   3.323  49.665  1.00  0.00     0.029 A 
HETATM   11  C11 UNL     1      24.974   3.755  50.543  1.00  0.00     0.034 A 
HETATM   12  C20 UNL     1      25.153   3.098  51.736  1.00  0.00     0.037 A 
BRANCH  11  13
HETATM   13  N1  UNL     1      25.825   4.865  50.312  1.00  0.00    -0.339 N 
HETATM   14  H11 UNL     1      26.651   5.079  50.871  1.00  0.00     0.167 HD
BRANCH  13  15
HETATM   15  C12 UNL     1      25.814   5.909  49.353  1.00  0.00     0.160 A 
HETATM   16  N2  UNL     1      24.634   6.550  49.085  1.00  0.00    -0.222 NA
HETATM   17  C13 UNL     1      24.595   7.551  48.164  1.00  0.00     0.238 A 
HETATM   18  N3  UNL     1      25.676   7.970  47.474  1.00  0.00    -0.216 NA
HETATM   19  C14 UNL     1      26.841   7.345  47.731  1.00  0.00     0.196 A 
HETATM   20  C15 UNL     1      26.953   6.309  48.664  1.00  0.00     0.128 A 
HETATM   21  O1  UNL     1      27.914   7.823  46.989  1.00  0.00    -0.332 OA
HETATM   22  N4  UNL     1      28.108   5.529  49.056  1.00  0.00    -0.383 N 
HETATM   23  C16 UNL     1      29.222   5.388  48.136  1.00  0.00     0.129 C 
HETATM   24  H13 UNL     1      27.955   5.144  50.039  1.00  0.00     0.159 HD
HETATM   25  C17 UNL     1      29.933   6.606  47.743  1.00  0.00     0.056 C 
HETATM   26  C19 UNL     1      29.254   7.828  47.348  1.00  0.00     0.186 C 
BRANCH  25  27
HETATM   27  C18 UNL     1      30.975   6.892  48.840  1.00  0.00     0.230 C 
HETATM   28  F1  UNL     1      31.806   7.877  48.379  1.00  0.00    -0.255 F 
ENDBRANCH  25  27
ENDBRANCH  13  15
ENDBRANCH  11  13
ENDBRANCH   6   7
ENDBRANCH   5   6
ENDBRANCH   3   4
TORSDOF 6
ENDMDL
MODEL 6
REMARK VINA RESULT:      -7.2      1.940      2.997
REMARK  6 active torsions:
REMARK  status: ('A' for Active; 'I' for Inactive)
REMARK    1  A    between atoms: C3_3  and  C4_4 
REMARK    2  A    between atoms: C5_5  and  C6_6 
REMARK    3  A    between atoms: C6_6  and  C7_7 
REMARK    4  A    between atoms: C11_11  and  N1_12 
REMARK    5  A    between atoms: N1_12  and  C12_13 
REMARK    6  A    between atoms: C17_21  and  C18_22 
ROOT
HETATM    1  C1  UNL     1      31.247  11.298  48.209  1.00  0.00     0.096 C 
HETATM    2  C2  UNL     1      30.915  10.031  48.157  1.00  0.00    -0.155 C 
HETATM    3  C3  UNL     1      30.382   8.824  48.127  1.00  0.00     0.050 C 
ENDROOT
BRANCH   3   4
HETATM    4  C4  UNL     1      29.475   8.560  47.007  1.00  0.00     0.004 C 
HETATM    5  C5  UNL     1      28.905   7.347  47.027  1.00  0.00    -0.022 C 
BRANCH   5   6
HETATM    6  C6  UNL     1      29.016   6.192  47.982  1.00  0.00     0.066 C 
BRANCH   6   7
HETATM    7  C7  UNL     1      27.620   5.948  48.488  1.00  0.00    -0.053 A 
HETATM    8  C8  UNL     1      26.704   6.978  48.548  1.00  0.00     0.007 A 
HETATM    9  C9  UNL     1      25.441   6.678  49.011  1.00  0.00     0.003 A 
HETATM   10  C10 UNL     1      25.055   5.423  49.411  1.00  0.00     0.029 A 
HETATM   11  C11 UNL     1      25.993   4.406  49.341  1.00  0.00     0.034 A 
HETATM   12  C20 UNL     1      27.258   4.681  48.882  1.00  0.00     0.037 A 
BRANCH  11  13
HETATM   13  N1  UNL     1      25.742   3.058  49.700  1.00  0.00    -0.339 N 
HETATM   14  H11 UNL     1      25.467   2.330  49.039  1.00  0.00     0.167 HD
BRANCH  13  15
HETATM   15  C12 UNL     1      25.783   2.362  50.935  1.00  0.00     0.160 A 
HETATM   16  N2  UNL     1      26.976   2.260  51.598  1.00  0.00    -0.222 NA
HETATM   17  C13 UNL     1      27.045   1.592  52.782  1.00  0.00     0.238 A 
HETATM   18  N3  UNL     1      25.980   1.004  53.367  1.00  0.00    -0.216 NA
HETATM   19  C14 UNL     1      24.802   1.099  52.721  1.00  0.00     0.196 A 
HETATM   20  C15 UNL     1      24.660   1.770  51.502  1.00  0.00     0.128 A 
HETATM   21  O1  UNL     1      23.748   0.473  53.375  1.00  0.00    -0.332 OA
HETATM   22  N4  UNL     1      23.488   1.961  50.675  1.00  0.00    -0.383 N 
HETATM   23  C16 UNL     1      22.386   1.020  50.767  1.00  0.00     0.129 C 
HETATM   24  H13 UNL     1      23.620   2.832  50.073  1.00  0.00     0.159 HD
HETATM   25  C17 UNL     1      21.699   0.907  52.055  1.00  0.00     0.056 C 
HETATM   26  C19 UNL     1      22.403   0.809  53.323  1.00  0.00     0.186 C 
BRANCH  25  27
HETATM   27  C18 UNL     1      20.646   2.029  52.103  1.00  0.00     0.230 C 
HETATM   28  F1  UNL     1      20.222   2.149  53.399  1.00  0.00    -0.255 F 
ENDBRANCH  25  27
ENDBRANCH  13  15
ENDBRANCH  11  13
ENDBRANCH   6   7
ENDBRANCH   5   6
ENDBRANCH   3   4
TORSDOF 6
ENDMDL
MODEL 7
REMARK VINA RESULT:      -7.2      6.452      9.260
REMARK  6 active torsions:
REMARK  status: ('A' for Active; 'I' for Inactive)
REMARK    1  A    between atoms: C3_3  and  C4_4 
REMARK    2  A    between atoms: C5_5  and  C6_6 
REMARK    3  A    between atoms: C6_6  and  C7_7 
REMARK    4  A    between atoms: C11_11  and  N1_12 
REMARK    5  A    between atoms: N1_12  and  C12_13 
REMARK    6  A    between atoms: C17_21  and  C18_22 
ROOT
HETATM    1  C1  UNL     1      23.409   7.248  46.897  1.00  0.00     0.096 C 
HETATM    2  C2  UNL     1      23.097   6.114  47.478  1.00  0.00    -0.155 C 
HETATM    3  C3  UNL     1      22.980   4.980  48.142  1.00  0.00     0.050 C 
ENDROOT
BRANCH   3   4
HETATM    4  C4  UNL     1      23.094   5.084  49.600  1.00  0.00     0.004 C 
HETATM    5  C5  UNL     1      24.283   4.708  50.092  1.00  0.00    -0.022 C 
BRANCH   5   6
HETATM    6  C6  UNL     1      25.534   4.196  49.438  1.00  0.00     0.066 C 
BRANCH   6   7
HETATM    7  C7  UNL     1      26.385   5.411  49.182  1.00  0.00    -0.053 A 
HETATM    8  C8  UNL     1      25.964   6.661  49.585  1.00  0.00     0.007 A 
HETATM    9  C9  UNL     1      26.800   7.726  49.328  1.00  0.00     0.003 A 
HETATM   10  C10 UNL     1      28.015   7.606  48.698  1.00  0.00     0.029 A 
HETATM   11  C11 UNL     1      28.415   6.340  48.304  1.00  0.00     0.034 A 
HETATM   12  C20 UNL     1      27.598   5.263  48.551  1.00  0.00     0.037 A 
BRANCH  11  13
HETATM   13  N1  UNL     1      29.645   6.052  47.662  1.00  0.00    -0.339 N 
HETATM   14  H11 UNL     1      29.723   5.614  46.743  1.00  0.00     0.167 HD
BRANCH  13  15
HETATM   15  C12 UNL     1      30.999   6.252  48.031  1.00  0.00     0.160 A 
HETATM   16  N2  UNL     1      31.343   7.399  48.693  1.00  0.00    -0.222 NA
HETATM   17  C13 UNL     1      32.637   7.618  49.054  1.00  0.00     0.238 A 
HETATM   18  N3  UNL     1      33.639   6.751  48.794  1.00  0.00    -0.216 NA
HETATM   19  C14 UNL     1      33.309   5.620  48.143  1.00  0.00     0.196 A 
HETATM   20  C15 UNL     1      32.000   5.331  47.743  1.00  0.00     0.128 A 
HETATM   21  O1  UNL     1      34.384   4.772  47.908  1.00  0.00    -0.332 OA
HETATM   22  N4  UNL     1      31.474   4.183  47.036  1.00  0.00    -0.383 N 
HETATM   23  C16 UNL     1      32.354   3.399  46.188  1.00  0.00     0.129 C 
HETATM   24  H13 UNL     1      30.437   4.077  47.260  1.00  0.00     0.159 HD
HETATM   25  C17 UNL     1      33.490   2.732  46.826  1.00  0.00     0.056 C 
HETATM   26  C19 UNL     1      34.359   3.389  47.788  1.00  0.00     0.186 C 
BRANCH  25  27
HETATM   27  C18 UNL     1      32.969   1.396  47.388  1.00  0.00     0.230 C 
HETATM   28  F1  UNL     1      33.040   1.462  48.753  1.00  0.00    -0.255 F 
ENDBRANCH  25  27
ENDBRANCH  13  15
ENDBRANCH  11  13
ENDBRANCH   6   7
ENDBRANCH   5   6
ENDBRANCH   3   4
TORSDOF 6
ENDMDL
MODEL 8
REMARK VINA RESULT:      -7.1      4.222      8.429
REMARK  6 active torsions:
REMARK  status: ('A' for Active; 'I' for Inactive)
REMARK    1  A    between atoms: C3_3  and  C4_4 
REMARK    2  A    between atoms: C5_5  and  C6_6 
REMARK    3  A    between atoms: C6_6  and  C7_7 
REMARK    4  A    between atoms: C11_11  and  N1_12 
REMARK    5  A    between atoms: N1_12  and  C12_13 
REMARK    6  A    between atoms: C17_21  and  C18_22 
ROOT
HETATM    1  C1  UNL     1      25.691   0.326  52.300  1.00  0.00     0.096 C 
HETATM    2  C2  UNL     1      24.812  -0.068  53.190  1.00  0.00    -0.155 C 
HETATM    3  C3  UNL     1      23.787  -0.362  53.967  1.00  0.00     0.050 C 
ENDROOT
BRANCH   3   4
HETATM    4  C4  UNL     1      22.731  -1.166  53.347  1.00  0.00     0.004 C 
HETATM    5  C5  UNL     1      21.722  -0.454  52.828  1.00  0.00    -0.022 C 
BRANCH   5   6
HETATM    6  C6  UNL     1      21.457   1.023  52.756  1.00  0.00     0.066 C 
BRANCH   6   7
HETATM    7  C7  UNL     1      21.699   1.410  51.321  1.00  0.00    -0.053 A 
HETATM    8  C8  UNL     1      21.169   0.659  50.292  1.00  0.00     0.007 A 
HETATM    9  C9  UNL     1      21.421   1.079  49.004  1.00  0.00     0.003 A 
HETATM   10  C10 UNL     1      22.164   2.192  48.699  1.00  0.00     0.029 A 
HETATM   11  C11 UNL     1      22.684   2.930  49.749  1.00  0.00     0.034 A 
HETATM   12  C20 UNL     1      22.445   2.531  51.042  1.00  0.00     0.037 A 
BRANCH  11  13
HETATM   13  N1  UNL     1      23.454   4.110  49.596  1.00  0.00    -0.339 N 
HETATM   14  H11 UNL     1      23.071   5.055  49.648  1.00  0.00     0.167 HD
BRANCH  13  15
HETATM   15  C12 UNL     1      24.831   4.342  49.352  1.00  0.00     0.160 A 
HETATM   16  N2  UNL     1      25.722   3.325  49.567  1.00  0.00    -0.222 NA
HETATM   17  C13 UNL     1      27.051   3.523  49.347  1.00  0.00     0.238 A 
HETATM   18  N3  UNL     1      27.567   4.693  48.916  1.00  0.00    -0.216 NA
HETATM   19  C14 UNL     1      26.697   5.699  48.702  1.00  0.00     0.196 A 
HETATM   20  C15 UNL     1      25.320   5.565  48.908  1.00  0.00     0.128 A 
HETATM   21  O1  UNL     1      27.292   6.874  48.260  1.00  0.00    -0.332 OA
HETATM   22  N4  UNL     1      24.255   6.530  48.740  1.00  0.00    -0.383 N 
HETATM   23  C16 UNL     1      24.555   7.949  48.819  1.00  0.00     0.129 C 
HETATM   24  H13 UNL     1      23.336   6.015  48.571  1.00  0.00     0.159 HD
HETATM   25  C17 UNL     1      25.477   8.501  47.825  1.00  0.00     0.056 C 
HETATM   26  C19 UNL     1      26.728   7.858  47.460  1.00  0.00     0.186 C 
BRANCH  25  27
HETATM   27  C18 UNL     1      24.645   8.825  46.570  1.00  0.00     0.230 C 
HETATM   28  F1  UNL     1      24.520   7.672  45.844  1.00  0.00    -0.255 F 
ENDBRANCH  25  27
ENDBRANCH  13  15
ENDBRANCH  11  13
ENDBRANCH   6   7
ENDBRANCH   5   6
ENDBRANCH   3   4
TORSDOF 6
ENDMDL
MODEL 9
REMARK VINA RESULT:      -7.1      2.794      4.978
REMARK  6 active torsions:
REMARK  status: ('A' for Active; 'I' for Inactive)
REMARK    1  A    between atoms: C3_3  and  C4_4 
REMARK    2  A    between atoms: C5_5  and  C6_6 
REMARK    3  A    between atoms: C6_6  and  C7_7 
REMARK    4  A    between atoms: C11_11  and  N1_12 
REMARK    5  A    between atoms: N1_12  and  C12_13 
REMARK    6  A    between atoms: C17_21  and  C18_22 
ROOT
HETATM    1  C1  UNL     1      21.958   3.249  46.935  1.00  0.00     0.096 C 
HETATM    2  C2  UNL     1      22.287   4.512  47.061  1.00  0.00    -0.155 C 
HETATM    3  C3  UNL     1      22.412   5.815  47.229  1.00  0.00     0.050 C 
ENDROOT
BRANCH   3   4
HETATM    4  C4  UNL     1      22.086   6.315  48.568  1.00  0.00     0.004 C 
HETATM    5  C5  UNL     1      23.125   6.839  49.233  1.00  0.00    -0.022 C 
BRANCH   5   6
HETATM    6  C6  UNL     1      24.573   7.015  48.873  1.00  0.00     0.066 C 
BRANCH   6   7
HETATM    7  C7  UNL     1      25.263   5.759  49.334  1.00  0.00    -0.053 A 
HETATM    8  C8  UNL     1      26.334   5.247  48.630  1.00  0.00     0.007 A 
HETATM    9  C9  UNL     1      26.924   4.101  49.117  1.00  0.00     0.003 A 
HETATM   10  C10 UNL     1      26.503   3.451  50.251  1.00  0.00     0.029 A 
HETATM   11  C11 UNL     1      25.427   3.985  50.940  1.00  0.00     0.034 A 
HETATM   12  C20 UNL     1      24.823   5.128  50.474  1.00  0.00     0.037 A 
BRANCH  11  13
HETATM   13  N1  UNL     1      24.890   3.441  52.133  1.00  0.00    -0.339 N 
HETATM   14  H11 UNL     1      24.518   4.001  52.901  1.00  0.00     0.167 HD
BRANCH  13  15
HETATM   15  C12 UNL     1      24.712   2.113  52.596  1.00  0.00     0.160 A 
HETATM   16  N2  UNL     1      23.501   1.502  52.408  1.00  0.00    -0.222 NA
HETATM   17  C13 UNL     1      23.302   0.230  52.849  1.00  0.00     0.238 A 
HETATM   18  N3  UNL     1      24.249  -0.495  53.480  1.00  0.00    -0.216 NA
HETATM   19  C14 UNL     1      25.443   0.098  53.670  1.00  0.00     0.196 A 
HETATM   20  C15 UNL     1      25.716   1.402  53.243  1.00  0.00     0.128 A 
HETATM   21  O1  UNL     1      26.372  -0.701  54.324  1.00  0.00    -0.332 OA
HETATM   22  N4  UNL     1      26.923   2.189  53.370  1.00  0.00    -0.383 N 
HETATM   23  C16 UNL     1      27.866   1.890  54.433  1.00  0.00     0.129 C 
HETATM   24  H13 UNL     1      26.942   2.931  52.603  1.00  0.00     0.159 HD
HETATM   25  C17 UNL     1      28.495   0.568  54.427  1.00  0.00     0.056 C 
HETATM   26  C19 UNL     1      27.754  -0.662  54.204  1.00  0.00     0.186 C 
BRANCH  25  27
HETATM   27  C18 UNL     1      29.707   0.652  53.480  1.00  0.00     0.230 C 
HETATM   28  F1  UNL     1      30.077  -0.627  53.162  1.00  0.00    -0.255 F 
ENDBRANCH  25  27
ENDBRANCH  13  15
ENDBRANCH  11  13
ENDBRANCH   6   7
ENDBRANCH   5   6
ENDBRANCH   3   4
TORSDOF 6
ENDMDL
