MODEL 1
REMARK VINA RESULT:      -8.5      0.000      0.000
REMARK  5 active torsions:
REMARK  status: ('A' for Active; 'I' for Inactive)
REMARK    1  A    between atoms: C1_2  and  O1_3 
REMARK    2  A    between atoms: O1_3  and  O2_4 
REMARK    3  A    between atoms: O2_4  and  C2_5 
REMARK    4  A    between atoms: C6_9  and  C7_10 
REMARK    5  A    between atoms: C10_14  and  C11_15 
ROOT
HETATM    1  C7  UNL     1      24.285   1.794  51.466  1.00  0.00     0.160 A 
HETATM    2  N1  UNL     1      23.047   1.620  50.948  1.00  0.00    -0.241 NA
HETATM    3  C8  UNL     1      22.665   2.355  49.873  1.00  0.00     0.121 A 
HETATM    4  C9  UNL     1      23.588   3.248  49.374  1.00  0.00     0.052 A 
HETATM    5  C10 UNL     1      24.854   3.443  49.884  1.00  0.00     0.070 A 
HETATM    6  N2  UNL     1      25.160   2.674  50.953  1.00  0.00    -0.228 NA
ENDROOT
BRANCH   1   7
HETATM    7  C6  UNL     1      24.674   0.994  52.621  1.00  0.00     0.014 A 
HETATM    8  C5  UNL     1      23.838   0.022  53.121  1.00  0.00     0.015 A 
HETATM    9  C4  UNL     1      24.248  -0.714  54.219  1.00  0.00     0.004 A 
HETATM   10  C3  UNL     1      25.478  -0.492  54.821  1.00  0.00     0.040 A 
HETATM   11  C2  UNL     1      26.307   0.501  54.291  1.00  0.00     0.107 A 
HETATM   12  C17 UNL     1      25.912   1.255  53.184  1.00  0.00     0.055 A 
BRANCH  11  13
HETATM   13  O2  UNL     1      27.531   0.716  54.896  1.00  0.00    -0.195 OA
BRANCH  13  14
HETATM   14  O1  UNL     1      28.461  -0.205  55.068  1.00  0.00    -0.204 OA
BRANCH  14  15
HETATM   15  C1  UNL     1      29.142  -0.556  53.911  1.00  0.00     0.432 C 
HETATM   16  F1  UNL     1      28.647  -1.703  53.318  1.00  0.00    -0.224 F 
ENDBRANCH  14  15
ENDBRANCH  13  14
ENDBRANCH  11  13
ENDBRANCH   1   7
BRANCH   5  17
HETATM   17  C11 UNL     1      25.807   4.397  49.330  1.00  0.00    -0.007 A 
HETATM   18  C12 UNL     1      27.137   4.137  49.078  1.00  0.00     0.015 A 
HETATM   19  C13 UNL     1      28.001   5.068  48.554  1.00  0.00     0.024 A 
HETATM   20  C14 UNL     1      27.531   6.336  48.257  1.00  0.00     0.034 A 
HETATM   21 CL1  UNL     1      28.678   7.476  47.591  1.00  0.00    -0.084 Cl
HETATM   22  C15 UNL     1      26.186   6.634  48.499  1.00  0.00     0.024 A 
HETATM   23  C16 UNL     1      25.366   5.656  49.028  1.00  0.00     0.015 A 
ENDBRANCH   5  17
TORSDOF 5
ENDMDL
MODEL 2
REMARK VINA RESULT:      -8.3      1.487      1.946
REMARK  5 active torsions:
REMARK  status: ('A' for Active; 'I' for Inactive)
REMARK    1  A    between atoms: C1_2  and  O1_3 
REMARK    2  A    between atoms: O1_3  and  O2_4 
REMARK    3  A    between atoms: O2_4  and  C2_5 
REMARK    4  A    between atoms: C6_9  and  C7_10 
REMARK    5  A    between atoms: C10_14  and  C11_15 
ROOT
HETATM    1  C7  UNL     1      22.687   0.904  51.674  1.00  0.00     0.160 A 
HETATM    2  N1  UNL     1      21.558   0.708  50.955  1.00  0.00    -0.241 NA
HETATM    3  C8  UNL     1      21.379   1.391  49.797  1.00  0.00     0.121 A 
HETATM    4  C9  UNL     1      22.385   2.257  49.427  1.00  0.00     0.052 A 
HETATM    5  C10 UNL     1      23.544   2.473  50.143  1.00  0.00     0.070 A 
HETATM    6  N2  UNL     1      23.648   1.756  51.284  1.00  0.00    -0.228 NA
ENDROOT
BRANCH   1   7
HETATM    7  C6  UNL     1      22.858   0.158  52.916  1.00  0.00     0.014 A 
HETATM    8  C5  UNL     1      21.769  -0.328  53.605  1.00  0.00     0.015 A 
HETATM    9  C4  UNL     1      21.978  -1.029  54.778  1.00  0.00     0.004 A 
HETATM   10  C3  UNL     1      23.256  -1.252  55.272  1.00  0.00     0.040 A 
HETATM   11  C2  UNL     1      24.342  -0.747  54.551  1.00  0.00     0.107 A 
HETATM   12  C17 UNL     1      24.154  -0.036  53.365  1.00  0.00     0.055 A 
BRANCH  11  13
HETATM   13  O2  UNL     1      25.612  -0.973  55.050  1.00  0.00    -0.195 OA
BRANCH  13  14
HETATM   14  O1  UNL     1      26.726  -0.891  54.346  1.00  0.00    -0.204 OA
BRANCH  14  15
HETATM   15  C1  UNL     1      27.507   0.218  54.636  1.00  0.00     0.432 C 
HETATM   16  F1  UNL     1      28.658  -0.096  55.334  1.00  0.00    -0.224 F 
ENDBRANCH  14  15
ENDBRANCH  13  14
ENDBRANCH  11  13
ENDBRANCH   1   7
BRANCH   5  17
HETATM   17  C11 UNL     1      24.590   3.398  49.721  1.00  0.00    -0.007 A 
HETATM   18  C12 UNL     1      25.942   3.129  49.740  1.00  0.00     0.015 A 
HETATM   19  C13 UNL     1      26.895   4.032  49.334  1.00  0.00     0.024 A 
HETATM   20  C14 UNL     1      26.497   5.277  48.879  1.00  0.00     0.034 A 
HETATM   21 CL1  UNL     1      27.756   6.381  48.374  1.00  0.00    -0.084 Cl
HETATM   22  C15 UNL     1      25.132   5.582  48.845  1.00  0.00     0.024 A 
HETATM   23  C16 UNL     1      24.221   4.634  49.267  1.00  0.00     0.015 A 
ENDBRANCH   5  17
TORSDOF 5
ENDMDL
MODEL 3
REMARK VINA RESULT:      -8.1      4.296      6.978
REMARK  5 active torsions:
REMARK  status: ('A' for Active; 'I' for Inactive)
REMARK    1  A    between atoms: C1_2  and  O1_3 
REMARK    2  A    between atoms: O1_3  and  O2_4 
REMARK    3  A    between atoms: O2_4  and  C2_5 
REMARK    4  A    between atoms: C6_9  and  C7_10 
REMARK    5  A    between atoms: C10_14  and  C11_15 
ROOT
HETATM    1  C7  UNL     1      24.871  -0.208  54.293  1.00  0.00     0.160 A 
HETATM    2  N1  UNL     1      24.852  -1.023  55.373  1.00  0.00    -0.241 NA
HETATM    3  C8  UNL     1      23.696  -1.642  55.721  1.00  0.00     0.121 A 
HETATM    4  C9  UNL     1      22.596  -1.390  54.929  1.00  0.00     0.052 A 
HETATM    5  C10 UNL     1      22.591  -0.563  53.826  1.00  0.00     0.070 A 
HETATM    6  N2  UNL     1      23.780   0.016  53.544  1.00  0.00    -0.228 NA
ENDROOT
BRANCH   1   7
HETATM    7  C6  UNL     1      26.125   0.446  53.939  1.00  0.00     0.014 A 
HETATM    8  C5  UNL     1      27.265   0.240  54.681  1.00  0.00     0.015 A 
HETATM    9  C4  UNL     1      28.432   0.882  54.309  1.00  0.00     0.004 A 
HETATM   10  C3  UNL     1      28.476   1.724  53.206  1.00  0.00     0.040 A 
HETATM   11  C2  UNL     1      27.303   1.914  52.470  1.00  0.00     0.107 A 
HETATM   12  C17 UNL     1      26.114   1.277  52.830  1.00  0.00     0.055 A 
BRANCH  11  13
HETATM   13  O2  UNL     1      27.355   2.755  51.374  1.00  0.00    -0.195 OA
BRANCH  13  14
HETATM   14  O1  UNL     1      26.420   2.846  50.446  1.00  0.00    -0.204 OA
BRANCH  14  15
HETATM   15  C1  UNL     1      26.482   4.002  49.681  1.00  0.00     0.432 C 
HETATM   16  F1  UNL     1      27.510   3.985  48.757  1.00  0.00    -0.224 F 
ENDBRANCH  14  15
ENDBRANCH  13  14
ENDBRANCH  11  13
ENDBRANCH   1   7
BRANCH   5  17
HETATM   17  C11 UNL     1      21.408  -0.318  53.009  1.00  0.00    -0.007 A 
HETATM   18  C12 UNL     1      21.416   0.227  51.743  1.00  0.00     0.015 A 
HETATM   19  C13 UNL     1      20.274   0.441  51.008  1.00  0.00     0.024 A 
HETATM   20  C14 UNL     1      19.047   0.098  51.549  1.00  0.00     0.034 A 
HETATM   21 CL1  UNL     1      17.632   0.393  50.565  1.00  0.00    -0.084 Cl
HETATM   22  C15 UNL     1      19.003  -0.459  52.832  1.00  0.00     0.024 A 
HETATM   23  C16 UNL     1      20.184  -0.649  53.522  1.00  0.00     0.015 A 
ENDBRANCH   5  17
TORSDOF 5
ENDMDL
MODEL 4
REMARK VINA RESULT:      -8.0      4.197      6.641
REMARK  5 active torsions:
REMARK  status: ('A' for Active; 'I' for Inactive)
REMARK    1  A    between atoms: C1_2  and  O1_3 
REMARK    2  A    between atoms: O1_3  and  O2_4 
REMARK    3  A    between atoms: O2_4  and  C2_5 
REMARK    4  A    between atoms: C6_9  and  C7_10 
REMARK    5  A    between atoms: C10_14  and  C11_15 
ROOT
HETATM    1  C7  UNL     1      23.695  -0.114  53.614  1.00  0.00     0.160 A 
HETATM    2  N1  UNL     1      23.714  -0.904  54.713  1.00  0.00    -0.241 NA
HETATM    3  C8  UNL     1      22.569  -1.509  55.117  1.00  0.00     0.121 A 
HETATM    4  C9  UNL     1      21.442  -1.271  54.361  1.00  0.00     0.052 A 
HETATM    5  C10 UNL     1      21.399  -0.470  53.239  1.00  0.00     0.070 A 
HETATM    6  N2  UNL     1      22.578   0.097  52.900  1.00  0.00    -0.228 NA
ENDROOT
BRANCH   1   7
HETATM    7  C6  UNL     1      24.938   0.526  53.198  1.00  0.00     0.014 A 
HETATM    8  C5  UNL     1      25.032   1.164  51.982  1.00  0.00     0.015 A 
HETATM    9  C4  UNL     1      26.231   1.758  51.629  1.00  0.00     0.004 A 
HETATM   10  C3  UNL     1      27.333   1.724  52.472  1.00  0.00     0.040 A 
HETATM   11  C2  UNL     1      27.207   1.069  53.701  1.00  0.00     0.107 A 
HETATM   12  C17 UNL     1      26.007   0.463  54.076  1.00  0.00     0.055 A 
BRANCH  11  13
HETATM   13  O2  UNL     1      28.310   1.040  54.535  1.00  0.00    -0.195 OA
BRANCH  13  14
HETATM   14  O1  UNL     1      28.960  -0.053  54.890  1.00  0.00    -0.204 OA
BRANCH  14  15
HETATM   15  C1  UNL     1      29.655  -0.667  53.858  1.00  0.00     0.432 C 
HETATM   16  F1  UNL     1      28.957  -1.712  53.282  1.00  0.00    -0.224 F 
ENDBRANCH  14  15
ENDBRANCH  13  14
ENDBRANCH  11  13
ENDBRANCH   1   7
BRANCH   5  17
HETATM   17  C11 UNL     1      20.187  -0.239  52.462  1.00  0.00    -0.007 A 
HETATM   18  C12 UNL     1      18.921  -0.647  52.824  1.00  0.00     0.015 A 
HETATM   19  C13 UNL     1      17.805  -0.408  52.059  1.00  0.00     0.024 A 
HETATM   20  C14 UNL     1      17.938   0.276  50.863  1.00  0.00     0.034 A 
HETATM   21 CL1  UNL     1      16.481   0.551  49.935  1.00  0.00    -0.084 Cl
HETATM   22  C15 UNL     1      19.208   0.706  50.465  1.00  0.00     0.024 A 
HETATM   23  C16 UNL     1      20.293   0.435  51.276  1.00  0.00     0.015 A 
ENDBRANCH   5  17
TORSDOF 5
ENDMDL
MODEL 5
REMARK VINA RESULT:      -7.6      5.129      7.904
REMARK  5 active torsions:
REMARK  status: ('A' for Active; 'I' for Inactive)
REMARK    1  A    between atoms: C1_2  and  O1_3 
REMARK    2  A    between atoms: O1_3  and  O2_4 
REMARK    3  A    between atoms: O2_4  and  C2_5 
REMARK    4  A    between atoms: C6_9  and  C7_10 
REMARK    5  A    between atoms: C10_14  and  C11_15 
ROOT
HETATM    1  C7  UNL     1      30.487   5.920  47.819  1.00  0.00     0.160 A 
HETATM    2  N1  UNL     1      30.428   7.194  47.368  1.00  0.00    -0.241 NA
HETATM    3  C8  UNL     1      29.238   7.845  47.365  1.00  0.00     0.121 A 
HETATM    4  C9  UNL     1      28.148   7.145  47.834  1.00  0.00     0.052 A 
HETATM    5  C10 UNL     1      28.183   5.847  48.297  1.00  0.00     0.070 A 
HETATM    6  N2  UNL     1      29.404   5.267  48.269  1.00  0.00    -0.228 NA
ENDROOT
BRANCH   1   7
HETATM    7  C6  UNL     1      31.777   5.240  47.813  1.00  0.00     0.014 A 
HETATM    8  C5  UNL     1      32.920   5.887  48.226  1.00  0.00     0.015 A 
HETATM    9  C4  UNL     1      34.122   5.203  48.203  1.00  0.00     0.004 A 
HETATM   10  C3  UNL     1      34.198   3.885  47.776  1.00  0.00     0.040 A 
HETATM   11  C2  UNL     1      33.021   3.253  47.363  1.00  0.00     0.107 A 
HETATM   12  C17 UNL     1      31.798   3.925  47.377  1.00  0.00     0.055 A 
BRANCH  11  13
HETATM   13  O2  UNL     1      33.105   1.939  46.938  1.00  0.00    -0.195 OA
BRANCH  13  14
HETATM   14  O1  UNL     1      32.113   1.253  46.402  1.00  0.00    -0.204 OA
BRANCH  14  15
HETATM   15  C1  UNL     1      31.964  -0.030  46.908  1.00  0.00     0.432 C 
HETATM   16  F1  UNL     1      32.590  -0.208  48.128  1.00  0.00    -0.224 F 
ENDBRANCH  14  15
ENDBRANCH  13  14
ENDBRANCH  11  13
ENDBRANCH   1   7
BRANCH   5  17
HETATM   17  C11 UNL     1      27.009   5.135  48.787  1.00  0.00    -0.007 A 
HETATM   18  C12 UNL     1      27.010   3.849  49.285  1.00  0.00     0.015 A 
HETATM   19  C13 UNL     1      25.877   3.215  49.736  1.00  0.00     0.024 A 
HETATM   20  C14 UNL     1      24.666   3.885  49.697  1.00  0.00     0.034 A 
HETATM   21 CL1  UNL     1      23.261   3.026  50.287  1.00  0.00    -0.084 Cl
HETATM   22  C15 UNL     1      24.629   5.191  49.199  1.00  0.00     0.024 A 
HETATM   23  C16 UNL     1      25.801   5.775  48.759  1.00  0.00     0.015 A 
ENDBRANCH   5  17
TORSDOF 5
ENDMDL
MODEL 6
REMARK VINA RESULT:      -7.5      4.554      7.478
REMARK  5 active torsions:
REMARK  status: ('A' for Active; 'I' for Inactive)
REMARK    1  A    between atoms: C1_2  and  O1_3 
REMARK    2  A    between atoms: O1_3  and  O2_4 
REMARK    3  A    between atoms: O2_4  and  C2_5 
REMARK    4  A    between atoms: C6_9  and  C7_10 
REMARK    5  A    between atoms: C10_14  and  C11_15 
ROOT
HETATM    1  C7  UNL     1      25.522   2.610  51.008  1.00  0.00     0.160 A 
HETATM    2  N1  UNL     1      26.662   2.036  51.460  1.00  0.00    -0.241 NA
HETATM    3  C8  UNL     1      26.585   0.945  52.262  1.00  0.00     0.121 A 
HETATM    4  C9  UNL     1      25.321   0.487  52.567  1.00  0.00     0.052 A 
HETATM    5  C10 UNL     1      24.147   1.055  52.119  1.00  0.00     0.070 A 
HETATM    6  N2  UNL     1      24.306   2.137  51.324  1.00  0.00    -0.228 NA
ENDROOT
BRANCH   1   7
HETATM    7  C6  UNL     1      25.629   3.781  50.146  1.00  0.00     0.014 A 
HETATM    8  C5  UNL     1      24.534   4.576  49.893  1.00  0.00     0.015 A 
HETATM    9  C4  UNL     1      24.681   5.677  49.070  1.00  0.00     0.004 A 
HETATM   10  C3  UNL     1      25.905   5.996  48.498  1.00  0.00     0.040 A 
HETATM   11  C2  UNL     1      27.000   5.172  48.774  1.00  0.00     0.107 A 
HETATM   12  C17 UNL     1      26.873   4.055  49.601  1.00  0.00     0.055 A 
BRANCH  11  13
HETATM   13  O2  UNL     1      28.216   5.497  48.201  1.00  0.00    -0.195 OA
BRANCH  13  14
HETATM   14  O1  UNL     1      29.396   5.232  48.730  1.00  0.00    -0.204 OA
BRANCH  14  15
HETATM   15  C1  UNL     1      30.470   5.467  47.883  1.00  0.00     0.432 C 
HETATM   16  F1  UNL     1      31.031   4.306  47.385  1.00  0.00    -0.224 F 
ENDBRANCH  14  15
ENDBRANCH  13  14
ENDBRANCH  11  13
ENDBRANCH   1   7
BRANCH   5  17
HETATM   17  C11 UNL     1      22.825   0.545  52.461  1.00  0.00    -0.007 A 
HETATM   18  C12 UNL     1      22.519  -0.166  53.602  1.00  0.00     0.015 A 
HETATM   19  C13 UNL     1      21.256  -0.629  53.884  1.00  0.00     0.024 A 
HETATM   20  C14 UNL     1      20.228  -0.379  52.991  1.00  0.00     0.034 A 
HETATM   21 CL1  UNL     1      18.644  -0.993  53.408  1.00  0.00    -0.084 Cl
HETATM   22  C15 UNL     1      20.504   0.340  51.824  1.00  0.00     0.024 A 
HETATM   23  C16 UNL     1      21.793   0.779  51.594  1.00  0.00     0.015 A 
ENDBRANCH   5  17
TORSDOF 5
ENDMDL
MODEL 7
REMARK VINA RESULT:      -7.5      4.864      7.818
REMARK  5 active torsions:
REMARK  status: ('A' for Active; 'I' for Inactive)
REMARK    1  A    between atoms: C1_2  and  O1_3 
REMARK    2  A    between atoms: O1_3  and  O2_4 
REMARK    3  A    between atoms: O2_4  and  C2_5 
REMARK    4  A    between atoms: C6_9  and  C7_10 
REMARK    5  A    between atoms: C10_14  and  C11_15 
ROOT
HETATM    1  C7  UNL     1      25.863   2.838  50.936  1.00  0.00     0.160 A 
HETATM    2  N1  UNL     1      26.996   2.220  51.346  1.00  0.00    -0.241 NA
HETATM    3  C8  UNL     1      26.904   1.091  52.092  1.00  0.00     0.121 A 
HETATM    4  C9  UNL     1      25.635   0.643  52.386  1.00  0.00     0.052 A 
HETATM    5  C10 UNL     1      24.468   1.256  51.980  1.00  0.00     0.070 A 
HETATM    6  N2  UNL     1      24.641   2.374  51.241  1.00  0.00    -0.228 NA
ENDROOT
BRANCH   1   7
HETATM    7  C6  UNL     1      25.986   4.051  50.135  1.00  0.00     0.014 A 
HETATM    8  C5  UNL     1      27.024   4.209  49.245  1.00  0.00     0.015 A 
HETATM    9  C4  UNL     1      27.100   5.376  48.507  1.00  0.00     0.004 A 
HETATM   10  C3  UNL     1      26.156   6.384  48.644  1.00  0.00     0.040 A 
HETATM   11  C2  UNL     1      25.112   6.195  49.555  1.00  0.00     0.107 A 
HETATM   12  C17 UNL     1      25.017   5.025  50.311  1.00  0.00     0.055 A 
BRANCH  11  13
HETATM   13  O2  UNL     1      24.175   7.204  49.685  1.00  0.00    -0.195 OA
BRANCH  13  14
HETATM   14  O1  UNL     1      23.490   7.461  50.783  1.00  0.00    -0.204 OA
BRANCH  14  15
HETATM   15  C1  UNL     1      22.113   7.391  50.629  1.00  0.00     0.432 C 
HETATM   16  F1  UNL     1      21.522   6.452  51.454  1.00  0.00    -0.224 F 
ENDBRANCH  14  15
ENDBRANCH  13  14
ENDBRANCH  11  13
ENDBRANCH   1   7
BRANCH   5  17
HETATM   17  C11 UNL     1      23.139   0.754  52.309  1.00  0.00    -0.007 A 
HETATM   18  C12 UNL     1      22.816   0.051  53.450  1.00  0.00     0.015 A 
HETATM   19  C13 UNL     1      21.547  -0.404  53.720  1.00  0.00     0.024 A 
HETATM   20  C14 UNL     1      20.531  -0.153  52.814  1.00  0.00     0.034 A 
HETATM   21 CL1  UNL     1      18.939  -0.756  53.215  1.00  0.00    -0.084 Cl
HETATM   22  C15 UNL     1      20.824   0.559  51.646  1.00  0.00     0.024 A 
HETATM   23  C16 UNL     1      22.118   0.990  51.430  1.00  0.00     0.015 A 
ENDBRANCH   5  17
TORSDOF 5
ENDMDL
MODEL 8
REMARK VINA RESULT:      -7.4      5.772      8.413
REMARK  5 active torsions:
REMARK  status: ('A' for Active; 'I' for Inactive)
REMARK    1  A    between atoms: C1_2  and  O1_3 
REMARK    2  A    between atoms: O1_3  and  O2_4 
REMARK    3  A    between atoms: O2_4  and  C2_5 
REMARK    4  A    between atoms: C6_9  and  C7_10 
REMARK    5  A    between atoms: C10_14  and  C11_15 
ROOT
HETATM    1  C7  UNL     1      30.538   5.565  47.760  1.00  0.00     0.160 A 
HETATM    2  N1  UNL     1      30.712   6.890  47.544  1.00  0.00    -0.241 NA
HETATM    3  C8  UNL     1      29.664   7.735  47.716  1.00  0.00     0.121 A 
HETATM    4  C9  UNL     1      28.470   7.170  48.107  1.00  0.00     0.052 A 
HETATM    5  C10 UNL     1      28.270   5.824  48.332  1.00  0.00     0.070 A 
HETATM    6  N2  UNL     1      29.360   5.048  48.141  1.00  0.00    -0.228 NA
ENDROOT
BRANCH   1   7
HETATM    7  C6  UNL     1      31.678   4.676  47.570  1.00  0.00     0.014 A 
HETATM    8  C5  UNL     1      31.552   3.507  46.854  1.00  0.00     0.015 A 
HETATM    9  C4  UNL     1      32.660   2.694  46.699  1.00  0.00     0.004 A 
HETATM   10  C3  UNL     1      33.889   3.031  47.247  1.00  0.00     0.040 A 
HETATM   11  C2  UNL     1      33.988   4.225  47.968  1.00  0.00     0.107 A 
HETATM   12  C17 UNL     1      32.882   5.060  48.137  1.00  0.00     0.055 A 
BRANCH  11  13
HETATM   13  O2  UNL     1      35.217   4.554  48.511  1.00  0.00    -0.195 OA
BRANCH  13  14
HETATM   14  O1  UNL     1      35.441   5.587  49.302  1.00  0.00    -0.204 OA
BRANCH  14  15
HETATM   15  C1  UNL     1      35.697   6.775  48.634  1.00  0.00     0.432 C 
HETATM   16  F1  UNL     1      34.763   7.759  48.901  1.00  0.00    -0.224 F 
ENDBRANCH  14  15
ENDBRANCH  13  14
ENDBRANCH  11  13
ENDBRANCH   1   7
BRANCH   5  17
HETATM   17  C11 UNL     1      26.991   5.259  48.747  1.00  0.00    -0.007 A 
HETATM   18  C12 UNL     1      25.778   5.910  48.684  1.00  0.00     0.015 A 
HETATM   19  C13 UNL     1      24.594   5.338  49.086  1.00  0.00     0.024 A 
HETATM   20  C14 UNL     1      24.601   4.046  49.581  1.00  0.00     0.034 A 
HETATM   21 CL1  UNL     1      23.064   3.373  50.075  1.00  0.00    -0.084 Cl
HETATM   22  C15 UNL     1      25.815   3.355  49.657  1.00  0.00     0.024 A 
HETATM   23  C16 UNL     1      26.972   3.983  49.239  1.00  0.00     0.015 A 
ENDBRANCH   5  17
TORSDOF 5
ENDMDL
MODEL 9
REMARK VINA RESULT:      -7.4      4.195      7.204
REMARK  5 active torsions:
REMARK  status: ('A' for Active; 'I' for Inactive)
REMARK    1  A    between atoms: C1_2  and  O1_3 
REMARK    2  A    between atoms: O1_3  and  O2_4 
REMARK    3  A    between atoms: O2_4  and  C2_5 
REMARK    4  A    between atoms: C6_9  and  C7_10 
REMARK    5  A    between atoms: C10_14  and  C11_15 
ROOT
HETATM    1  C7  UNL     1      25.587   5.139  49.098  1.00  0.00     0.160 A 
HETATM    2  N1  UNL     1      24.384   5.585  48.669  1.00  0.00    -0.241 NA
HETATM    3  C8  UNL     1      23.252   5.005  49.142  1.00  0.00     0.121 A 
HETATM    4  C9  UNL     1      23.413   3.979  50.047  1.00  0.00     0.052 A 
HETATM    5  C10 UNL     1      24.629   3.508  50.498  1.00  0.00     0.070 A 
HETATM    6  N2  UNL     1      25.708   4.136  49.981  1.00  0.00    -0.228 NA
ENDROOT
BRANCH   1   7
HETATM    7  C6  UNL     1      26.790   5.777  48.575  1.00  0.00     0.014 A 
HETATM    8  C5  UNL     1      26.759   7.073  48.112  1.00  0.00     0.015 A 
HETATM    9  C4  UNL     1      27.924   7.638  47.625  1.00  0.00     0.004 A 
HETATM   10  C3  UNL     1      29.117   6.929  47.596  1.00  0.00     0.040 A 
HETATM   11  C2  UNL     1      29.118   5.615  48.074  1.00  0.00     0.107 A 
HETATM   12  C17 UNL     1      27.954   5.025  48.569  1.00  0.00     0.055 A 
BRANCH  11  13
HETATM   13  O2  UNL     1      30.310   4.915  48.042  1.00  0.00    -0.195 OA
BRANCH  13  14
HETATM   14  O1  UNL     1      31.334   5.127  48.847  1.00  0.00    -0.204 OA
BRANCH  14  15
HETATM   15  C1  UNL     1      32.575   4.895  48.271  1.00  0.00     0.432 C 
HETATM   16  F1  UNL     1      32.863   3.551  48.128  1.00  0.00    -0.224 F 
ENDBRANCH  14  15
ENDBRANCH  13  14
ENDBRANCH  11  13
ENDBRANCH   1   7
BRANCH   5  17
HETATM   17  C11 UNL     1      24.763   2.418  51.457  1.00  0.00    -0.007 A 
HETATM   18  C12 UNL     1      23.752   1.938  52.261  1.00  0.00     0.015 A 
HETATM   19  C13 UNL     1      23.923   0.908  53.154  1.00  0.00     0.024 A 
HETATM   20  C14 UNL     1      25.166   0.309  53.265  1.00  0.00     0.034 A 
HETATM   21 CL1  UNL     1      25.321  -0.998  54.417  1.00  0.00    -0.084 Cl
HETATM   22  C15 UNL     1      26.216   0.770  52.463  1.00  0.00     0.024 A 
HETATM   23  C16 UNL     1      25.982   1.810  51.585  1.00  0.00     0.015 A 
ENDBRANCH   5  17
TORSDOF 5
ENDMDL
