MODEL 1
REMARK VINA RESULT:      -8.4      0.000      0.000
REMARK  3 active torsions:
REMARK  status: ('A' for Active; 'I' for Inactive)
REMARK    1  A    between atoms: C2_2  and  C3_3 
REMARK    2  A    between atoms: C14_15  and  S1_16 
REMARK    3  A    between atoms: S1_16  and  C15_18 
ROOT
HETATM    1  C3  UNL     1      25.483   4.203  49.271  1.00  0.00     0.029 C 
HETATM    2  C4  UNL     1      24.766   3.979  50.347  1.00  0.00     0.035 A 
HETATM    3  C5  UNL     1      23.311   4.186  50.542  1.00  0.00     0.061 A 
HETATM    4  C6  UNL     1      22.762   3.898  51.737  1.00  0.00     0.061 A 
HETATM    5  C7  UNL     1      21.407   4.265  51.360  1.00  0.00     0.033 C 
HETATM    6  C8  UNL     1      20.897   3.013  51.621  1.00  0.00     0.022 C 
HETATM    7  C9  UNL     1      21.135   1.598  52.076  1.00  0.00     0.128 C 
HETATM    8  N1  UNL     1      21.206   0.350  52.455  1.00  0.00    -0.210 NA
HETATM    9  C10 UNL     1      22.470  -0.102  52.789  1.00  0.00     0.034 C 
HETATM   10  C11 UNL     1      23.538  -0.466  53.060  1.00  0.00    -0.080 C 
HETATM   11  C12 UNL     1      24.847  -0.895  53.369  1.00  0.00     0.060 C 
HETATM   12  C13 UNL     1      25.336   0.329  53.678  1.00  0.00     0.094 C 
HETATM   13  C14 UNL     1      26.664   0.761  54.097  1.00  0.00     0.014 C 
HETATM   14  C16 UNL     1      26.321   2.072  54.216  1.00  0.00    -0.002 C 
HETATM   15  C17 UNL     1      24.976   2.653  53.980  1.00  0.00     0.106 C 
HETATM   16  C18 UNL     1      24.811   3.208  52.658  1.00  0.00     0.108 A 
HETATM   17  N2  UNL     1      23.561   3.420  52.748  1.00  0.00    -0.235 NA
HETATM   18  N3  UNL     1      25.515   3.470  51.463  1.00  0.00    -0.344 N 
HETATM   19  H16 UNL     1      26.513   3.232  51.618  1.00  0.00     0.167 HD
ENDROOT
BRANCH  13  20
HETATM   20  S1  UNL     1      28.392   0.456  54.503  1.00  0.00     0.074 S 
HETATM   21  O1  UNL     1      29.165   1.724  54.562  1.00  0.00    -0.251 OA
BRANCH  20  22
HETATM   22  C15 UNL     1      29.016  -0.778  53.391  1.00  0.00     0.335 C 
HETATM   23  F1  UNL     1      30.358  -0.991  53.564  1.00  0.00    -0.242 F 
ENDBRANCH  20  22
ENDBRANCH  13  20
BRANCH   1  24
HETATM   24  C2  UNL     1      26.901   3.972  49.168  1.00  0.00    -0.008 C 
HETATM   25  C1  UNL     1      27.620   4.932  48.636  1.00  0.00     0.011 C 
ENDBRANCH   1  24
TORSDOF 3
ENDMDL
MODEL 2
REMARK VINA RESULT:      -8.2      1.514      1.832
REMARK  3 active torsions:
REMARK  status: ('A' for Active; 'I' for Inactive)
REMARK    1  A    between atoms: C2_2  and  C3_3 
REMARK    2  A    between atoms: C14_15  and  S1_16 
REMARK    3  A    between atoms: S1_16  and  C15_18 
ROOT
HETATM    1  C3  UNL     1      25.714   5.017  48.972  1.00  0.00     0.029 C 
HETATM    2  C4  UNL     1      24.845   4.955  49.954  1.00  0.00     0.035 A 
HETATM    3  C5  UNL     1      23.501   5.576  50.033  1.00  0.00     0.061 A 
HETATM    4  C6  UNL     1      22.759   5.396  51.142  1.00  0.00     0.061 A 
HETATM    5  C7  UNL     1      21.622   6.172  50.676  1.00  0.00     0.033 C 
HETATM    6  C8  UNL     1      20.743   5.117  50.776  1.00  0.00     0.022 C 
HETATM    7  C9  UNL     1      20.507   3.671  51.122  1.00  0.00     0.128 C 
HETATM    8  N1  UNL     1      20.168   2.439  51.393  1.00  0.00    -0.210 NA
HETATM    9  C10 UNL     1      21.198   1.612  51.800  1.00  0.00     0.034 C 
HETATM   10  C11 UNL     1      22.076   0.930  52.134  1.00  0.00    -0.080 C 
HETATM   11  C12 UNL     1      23.160   0.112  52.522  1.00  0.00     0.060 C 
HETATM   12  C13 UNL     1      23.945   1.114  52.983  1.00  0.00     0.094 C 
HETATM   13  C14 UNL     1      25.285   1.104  53.558  1.00  0.00     0.014 C 
HETATM   14  C16 UNL     1      25.326   2.449  53.762  1.00  0.00    -0.002 C 
HETATM   15  C17 UNL     1      24.245   3.417  53.457  1.00  0.00     0.106 C 
HETATM   16  C18 UNL     1      24.401   4.072  52.181  1.00  0.00     0.108 A 
HETATM   17  N2  UNL     1      23.265   4.643  52.174  1.00  0.00    -0.235 NA
HETATM   18  N3  UNL     1      25.281   4.182  51.083  1.00  0.00    -0.344 N 
HETATM   19  H16 UNL     1      26.143   3.647  51.307  1.00  0.00     0.167 HD
ENDROOT
BRANCH  13  20
HETATM   20  S1  UNL     1      26.791   0.273  54.092  1.00  0.00     0.074 S 
HETATM   21  O1  UNL     1      27.812   1.250  54.554  1.00  0.00    -0.251 OA
BRANCH  20  22
HETATM   22  C15 UNL     1      27.306  -0.829  52.801  1.00  0.00     0.335 C 
HETATM   23  F1  UNL     1      26.793  -0.467  51.582  1.00  0.00    -0.242 F 
ENDBRANCH  20  22
ENDBRANCH  13  20
BRANCH   1  24
HETATM   24  C2  UNL     1      27.006   4.380  48.979  1.00  0.00    -0.008 C 
HETATM   25  C1  UNL     1      28.025   5.104  48.582  1.00  0.00     0.011 C 
ENDBRANCH   1  24
TORSDOF 3
ENDMDL
MODEL 3
REMARK VINA RESULT:      -8.2      3.578      5.998
REMARK  3 active torsions:
REMARK  status: ('A' for Active; 'I' for Inactive)
REMARK    1  A    between atoms: C2_2  and  C3_3 
REMARK    2  A    between atoms: C14_15  and  S1_16 
REMARK    3  A    between atoms: S1_16  and  C15_18 
ROOT
HETATM    1  C3  UNL     1      27.277   2.108  53.751  1.00  0.00     0.029 C 
HETATM    2  C4  UNL     1      26.354   2.292  52.836  1.00  0.00     0.035 A 
HETATM    3  C5  UNL     1      24.911   1.963  52.906  1.00  0.00     0.061 A 
HETATM    4  C6  UNL     1      24.125   2.228  51.845  1.00  0.00     0.061 A 
HETATM    5  C7  UNL     1      22.899   1.737  52.453  1.00  0.00     0.033 C 
HETATM    6  C8  UNL     1      22.250   2.946  52.339  1.00  0.00     0.022 C 
HETATM    7  C9  UNL     1      22.283   4.385  51.900  1.00  0.00     0.128 C 
HETATM    8  N1  UNL     1      22.180   5.642  51.562  1.00  0.00    -0.210 NA
HETATM    9  C10 UNL     1      23.317   6.209  51.015  1.00  0.00     0.034 C 
HETATM   10  C11 UNL     1      24.282   6.670  50.565  1.00  0.00    -0.080 C 
HETATM   11  C12 UNL     1      25.470   7.218  50.035  1.00  0.00     0.060 C 
HETATM   12  C13 UNL     1      25.990   6.048  49.595  1.00  0.00     0.094 C 
HETATM   13  C14 UNL     1      27.247   5.742  48.921  1.00  0.00     0.014 C 
HETATM   14  C16 UNL     1      26.995   4.409  48.820  1.00  0.00    -0.002 C 
HETATM   15  C17 UNL     1      25.770   3.709  49.279  1.00  0.00     0.106 C 
HETATM   16  C18 UNL     1      25.902   3.113  50.587  1.00  0.00     0.108 A 
HETATM   17  N2  UNL     1      24.679   2.795  50.723  1.00  0.00    -0.235 NA
HETATM   18  N3  UNL     1      26.837   2.887  51.620  1.00  0.00    -0.344 N 
HETATM   19  H16 UNL     1      27.766   3.215  51.292  1.00  0.00     0.167 HD
ENDROOT
BRANCH  13  20
HETATM   20  S1  UNL     1      28.836   6.204  48.214  1.00  0.00     0.074 S 
HETATM   21  O1  UNL     1      29.945   5.418  48.817  1.00  0.00    -0.251 OA
BRANCH  20  22
HETATM   22  C15 UNL     1      28.998   7.968  48.313  1.00  0.00     0.335 C 
HETATM   23  F1  UNL     1      28.536   8.459  49.506  1.00  0.00    -0.242 F 
ENDBRANCH  20  22
ENDBRANCH  13  20
BRANCH   1  24
HETATM   24  C2  UNL     1      28.666   2.459  53.598  1.00  0.00    -0.008 C 
HETATM   25  C1  UNL     1      29.517   1.868  54.403  1.00  0.00     0.011 C 
ENDBRANCH   1  24
TORSDOF 3
ENDMDL
MODEL 4
REMARK VINA RESULT:      -7.9      3.440      5.539
REMARK  3 active torsions:
REMARK  status: ('A' for Active; 'I' for Inactive)
REMARK    1  A    between atoms: C2_2  and  C3_3 
REMARK    2  A    between atoms: C14_15  and  S1_16 
REMARK    3  A    between atoms: S1_16  and  C15_18 
ROOT
HETATM    1  C3  UNL     1      26.457   1.256  53.974  1.00  0.00     0.029 C 
HETATM    2  C4  UNL     1      25.430   1.254  53.156  1.00  0.00     0.035 A 
HETATM    3  C5  UNL     1      24.164   0.491  53.271  1.00  0.00     0.061 A 
HETATM    4  C6  UNL     1      23.228   0.626  52.313  1.00  0.00     0.061 A 
HETATM    5  C7  UNL     1      22.274  -0.288  52.921  1.00  0.00     0.033 C 
HETATM    6  C8  UNL     1      21.287   0.666  53.025  1.00  0.00     0.022 C 
HETATM    7  C9  UNL     1      20.846   2.087  52.800  1.00  0.00     0.128 C 
HETATM    8  N1  UNL     1      20.339   3.282  52.656  1.00  0.00    -0.210 NA
HETATM    9  C10 UNL     1      21.192   4.233  52.126  1.00  0.00     0.034 C 
HETATM   10  C11 UNL     1      21.925   5.019  51.686  1.00  0.00    -0.080 C 
HETATM   11  C12 UNL     1      22.834   5.965  51.165  1.00  0.00     0.060 C 
HETATM   12  C13 UNL     1      23.628   5.073  50.527  1.00  0.00     0.094 C 
HETATM   13  C14 UNL     1      24.840   5.251  49.737  1.00  0.00     0.014 C 
HETATM   14  C16 UNL     1      24.985   3.927  49.458  1.00  0.00    -0.002 C 
HETATM   15  C17 UNL     1      24.079   2.835  49.889  1.00  0.00     0.106 C 
HETATM   16  C18 UNL     1      24.519   2.158  51.085  1.00  0.00     0.108 A 
HETATM   17  N2  UNL     1      23.467   1.465  51.252  1.00  0.00    -0.235 NA
HETATM   18  N3  UNL     1      25.582   2.110  52.012  1.00  0.00    -0.344 N 
HETATM   19  H16 UNL     1      26.332   2.744  51.675  1.00  0.00     0.167 HD
ENDROOT
BRANCH  13  20
HETATM   20  S1  UNL     1      26.137   6.262  49.003  1.00  0.00     0.074 S 
HETATM   21  O1  UNL     1      25.607   7.103  47.898  1.00  0.00    -0.251 OA
BRANCH  20  22
HETATM   22  C15 UNL     1      27.498   5.204  48.584  1.00  0.00     0.335 C 
HETATM   23  F1  UNL     1      28.438   5.855  47.827  1.00  0.00    -0.242 F 
ENDBRANCH  20  22
ENDBRANCH  13  20
BRANCH   1  24
HETATM   24  C2  UNL     1      27.655   2.033  53.784  1.00  0.00    -0.008 C 
HETATM   25  C1  UNL     1      28.797   1.409  53.950  1.00  0.00     0.011 C 
ENDBRANCH   1  24
TORSDOF 3
ENDMDL
MODEL 5
REMARK VINA RESULT:      -7.9      4.323      7.223
REMARK  3 active torsions:
REMARK  status: ('A' for Active; 'I' for Inactive)
REMARK    1  A    between atoms: C2_2  and  C3_3 
REMARK    2  A    between atoms: C14_15  and  S1_16 
REMARK    3  A    between atoms: S1_16  and  C15_18 
ROOT
HETATM    1  C3  UNL     1      23.264  -0.850  53.557  1.00  0.00     0.029 C 
HETATM    2  C4  UNL     1      23.754   0.354  53.369  1.00  0.00     0.035 A 
HETATM    3  C5  UNL     1      25.168   0.793  53.440  1.00  0.00     0.061 A 
HETATM    4  C6  UNL     1      25.465   2.087  53.218  1.00  0.00     0.061 A 
HETATM    5  C7  UNL     1      26.899   1.934  53.400  1.00  0.00     0.033 C 
HETATM    6  C8  UNL     1      27.200   2.384  52.133  1.00  0.00     0.022 C 
HETATM    7  C9  UNL     1      26.716   2.902  50.806  1.00  0.00     0.128 C 
HETATM    8  N1  UNL     1      26.429   3.362  49.617  1.00  0.00    -0.210 NA
HETATM    9  C10 UNL     1      25.081   3.497  49.338  1.00  0.00     0.034 C 
HETATM   10  C11 UNL     1      23.946   3.598  49.119  1.00  0.00    -0.080 C 
HETATM   11  C12 UNL     1      22.561   3.698  48.865  1.00  0.00     0.060 C 
HETATM   12  C13 UNL     1      22.179   3.812  50.159  1.00  0.00     0.094 C 
HETATM   13  C14 UNL     1      20.862   3.945  50.770  1.00  0.00     0.014 C 
HETATM   14  C16 UNL     1      21.338   4.017  52.042  1.00  0.00    -0.002 C 
HETATM   15  C17 UNL     1      22.764   3.983  52.450  1.00  0.00     0.106 C 
HETATM   16  C18 UNL     1      23.219   2.673  52.847  1.00  0.00     0.108 A 
HETATM   17  N2  UNL     1      24.452   2.971  52.933  1.00  0.00    -0.235 NA
HETATM   18  N3  UNL     1      22.769   1.352  53.059  1.00  0.00    -0.344 N 
HETATM   19  H16 UNL     1      21.737   1.342  52.945  1.00  0.00     0.167 HD
ENDROOT
BRANCH  13  20
HETATM   20  S1  UNL     1      19.066   4.053  50.692  1.00  0.00     0.074 S 
HETATM   21  O1  UNL     1      18.443   3.620  51.970  1.00  0.00    -0.251 OA
BRANCH  20  22
HETATM   22  C15 UNL     1      18.519   3.198  49.237  1.00  0.00     0.335 C 
HETATM   23  F1  UNL     1      19.319   2.125  48.942  1.00  0.00    -0.242 F 
ENDBRANCH  20  22
ENDBRANCH  13  20
BRANCH   1  24
HETATM   24  C2  UNL     1      21.868  -1.190  53.468  1.00  0.00    -0.008 C 
HETATM   25  C1  UNL     1      21.289  -1.606  54.570  1.00  0.00     0.011 C 
ENDBRANCH   1  24
TORSDOF 3
ENDMDL
MODEL 6
REMARK VINA RESULT:      -7.8      4.061      5.850
REMARK  3 active torsions:
REMARK  status: ('A' for Active; 'I' for Inactive)
REMARK    1  A    between atoms: C2_2  and  C3_3 
REMARK    2  A    between atoms: C14_15  and  S1_16 
REMARK    3  A    between atoms: S1_16  and  C15_18 
ROOT
HETATM    1  C3  UNL     1      27.085  -0.015  52.212  1.00  0.00     0.029 C 
HETATM    2  C4  UNL     1      26.229   0.960  52.008  1.00  0.00     0.035 A 
HETATM    3  C5  UNL     1      26.407   2.184  51.192  1.00  0.00     0.061 A 
HETATM    4  C6  UNL     1      25.400   3.074  51.116  1.00  0.00     0.061 A 
HETATM    5  C7  UNL     1      26.096   3.997  50.234  1.00  0.00     0.033 C 
HETATM    6  C8  UNL     1      25.147   3.908  49.240  1.00  0.00     0.022 C 
HETATM    7  C9  UNL     1      23.850   3.320  48.752  1.00  0.00     0.128 C 
HETATM    8  N1  UNL     1      22.741   2.887  48.214  1.00  0.00    -0.210 NA
HETATM    9  C10 UNL     1      22.033   1.966  48.964  1.00  0.00     0.034 C 
HETATM   10  C11 UNL     1      21.455   1.189  49.604  1.00  0.00    -0.080 C 
HETATM   11  C12 UNL     1      20.775   0.233  50.389  1.00  0.00     0.060 C 
HETATM   12  C13 UNL     1      21.285   0.628  51.580  1.00  0.00     0.094 C 
HETATM   13  C14 UNL     1      21.085   0.121  52.932  1.00  0.00     0.014 C 
HETATM   14  C16 UNL     1      21.900   1.041  53.516  1.00  0.00    -0.002 C 
HETATM   15  C17 UNL     1      22.629   2.132  52.825  1.00  0.00     0.106 C 
HETATM   16  C18 UNL     1      23.998   1.802  52.509  1.00  0.00     0.108 A 
HETATM   17  N2  UNL     1      24.232   2.828  51.796  1.00  0.00    -0.235 NA
HETATM   18  N3  UNL     1      24.969   0.791  52.678  1.00  0.00    -0.344 N 
HETATM   19  H16 UNL     1      24.568   0.060  53.297  1.00  0.00     0.167 HD
ENDROOT
BRANCH  13  20
HETATM   20  S1  UNL     1      20.360  -1.019  54.122  1.00  0.00     0.074 S 
HETATM   21  O1  UNL     1      21.348  -2.039  54.563  1.00  0.00    -0.251 OA
BRANCH  20  22
HETATM   22  C15 UNL     1      18.850  -1.652  53.439  1.00  0.00     0.335 C 
HETATM   23  F1  UNL     1      18.394  -0.880  52.402  1.00  0.00    -0.242 F 
ENDBRANCH  20  22
ENDBRANCH  13  20
BRANCH   1  24
HETATM   24  C2  UNL     1      26.827  -1.176  53.026  1.00  0.00    -0.008 C 
HETATM   25  C1  UNL     1      26.955  -2.345  52.445  1.00  0.00     0.011 C 
ENDBRANCH   1  24
TORSDOF 3
ENDMDL
MODEL 7
REMARK VINA RESULT:      -7.5      4.001      6.506
REMARK  3 active torsions:
REMARK  status: ('A' for Active; 'I' for Inactive)
REMARK    1  A    between atoms: C2_2  and  C3_3 
REMARK    2  A    between atoms: C14_15  and  S1_16 
REMARK    3  A    between atoms: S1_16  and  C15_18 
ROOT
HETATM    1  C3  UNL     1      20.573   0.248  50.878  1.00  0.00     0.029 C 
HETATM    2  C4  UNL     1      21.542   0.697  51.641  1.00  0.00     0.035 A 
HETATM    3  C5  UNL     1      22.327  -0.041  52.660  1.00  0.00     0.061 A 
HETATM    4  C6  UNL     1      23.284   0.610  53.348  1.00  0.00     0.061 A 
HETATM    5  C7  UNL     1      23.692  -0.539  54.140  1.00  0.00     0.033 C 
HETATM    6  C8  UNL     1      24.992  -0.506  53.685  1.00  0.00     0.022 C 
HETATM    7  C9  UNL     1      26.032   0.147  52.814  1.00  0.00     0.128 C 
HETATM    8  N1  UNL     1      27.024   0.621  52.110  1.00  0.00    -0.210 NA
HETATM    9  C10 UNL     1      26.717   1.691  51.289  1.00  0.00     0.034 C 
HETATM   10  C11 UNL     1      26.439   2.583  50.601  1.00  0.00    -0.080 C 
HETATM   11  C12 UNL     1      26.079   3.657  49.759  1.00  0.00     0.060 C 
HETATM   12  C13 UNL     1      25.013   4.067  50.486  1.00  0.00     0.094 C 
HETATM   13  C14 UNL     1      24.059   5.149  50.277  1.00  0.00     0.014 C 
HETATM   14  C16 UNL     1      23.359   4.900  51.417  1.00  0.00    -0.002 C 
HETATM   15  C17 UNL     1      23.657   3.847  52.418  1.00  0.00     0.106 C 
HETATM   16  C18 UNL     1      22.887   2.641  52.233  1.00  0.00     0.108 A 
HETATM   17  N2  UNL     1      23.510   1.941  53.092  1.00  0.00    -0.235 NA
HETATM   18  N3  UNL     1      21.857   2.085  51.444  1.00  0.00    -0.344 N 
HETATM   19  H16 UNL     1      21.490   2.831  50.822  1.00  0.00     0.167 HD
ENDROOT
BRANCH  13  20
HETATM   20  S1  UNL     1      23.394   6.537  49.342  1.00  0.00     0.074 S 
HETATM   21  O1  UNL     1      24.301   6.922  48.228  1.00  0.00    -0.251 OA
BRANCH  20  22
HETATM   22  C15 UNL     1      22.982   7.832  50.483  1.00  0.00     0.335 C 
HETATM   23  F1  UNL     1      24.033   8.143  51.306  1.00  0.00    -0.242 F 
ENDBRANCH  20  22
ENDBRANCH  13  20
BRANCH   1  24
HETATM   24  C2  UNL     1      19.859   1.039  49.908  1.00  0.00    -0.008 C 
HETATM   25  C1  UNL     1      18.560   1.131  50.061  1.00  0.00     0.011 C 
ENDBRANCH   1  24
TORSDOF 3
ENDMDL
MODEL 8
REMARK VINA RESULT:      -7.3      4.517      7.362
REMARK  3 active torsions:
REMARK  status: ('A' for Active; 'I' for Inactive)
REMARK    1  A    between atoms: C2_2  and  C3_3 
REMARK    2  A    between atoms: C14_15  and  S1_16 
REMARK    3  A    between atoms: S1_16  and  C15_18 
ROOT
HETATM    1  C3  UNL     1      21.476   0.104  51.967  1.00  0.00     0.029 C 
HETATM    2  C4  UNL     1      22.364   1.025  52.265  1.00  0.00     0.035 A 
HETATM    3  C5  UNL     1      23.714   0.845  52.850  1.00  0.00     0.061 A 
HETATM    4  C6  UNL     1      24.475   1.930  53.087  1.00  0.00     0.061 A 
HETATM    5  C7  UNL     1      25.610   1.191  53.616  1.00  0.00     0.033 C 
HETATM    6  C8  UNL     1      26.481   1.667  52.661  1.00  0.00     0.022 C 
HETATM    7  C9  UNL     1      26.713   2.526  51.448  1.00  0.00     0.128 C 
HETATM    8  N1  UNL     1      27.046   3.234  50.402  1.00  0.00    -0.210 NA
HETATM    9  C10 UNL     1      26.017   3.937  49.803  1.00  0.00     0.034 C 
HETATM   10  C11 UNL     1      25.139   4.515  49.310  1.00  0.00    -0.080 C 
HETATM   11  C12 UNL     1      24.057   5.197  48.713  1.00  0.00     0.060 C 
HETATM   12  C13 UNL     1      23.289   5.260  49.826  1.00  0.00     0.094 C 
HETATM   13  C14 UNL     1      21.960   5.817  50.053  1.00  0.00     0.014 C 
HETATM   14  C16 UNL     1      21.934   5.502  51.376  1.00  0.00    -0.002 C 
HETATM   15  C17 UNL     1      23.018   4.840  52.144  1.00  0.00     0.106 C 
HETATM   16  C18 UNL     1      22.843   3.414  52.275  1.00  0.00     0.108 A 
HETATM   17  N2  UNL     1      23.983   3.177  52.784  1.00  0.00    -0.235 NA
HETATM   18  N3  UNL     1      21.943   2.368  51.978  1.00  0.00    -0.344 N 
HETATM   19  H16 UNL     1      21.081   2.788  51.579  1.00  0.00     0.167 HD
ENDROOT
BRANCH  13  20
HETATM   20  S1  UNL     1      20.458   6.644  49.505  1.00  0.00     0.074 S 
HETATM   21  O1  UNL     1      20.284   7.954  50.186  1.00  0.00    -0.251 OA
BRANCH  20  22
HETATM   22  C15 UNL     1      19.106   5.507  49.663  1.00  0.00     0.335 C 
HETATM   23  F1  UNL     1      19.353   4.324  49.015  1.00  0.00    -0.242 F 
ENDBRANCH  20  22
ENDBRANCH  13  20
BRANCH   1  24
HETATM   24  C2  UNL     1      20.180   0.368  51.398  1.00  0.00    -0.008 C 
HETATM   25  C1  UNL     1      19.138   0.004  52.107  1.00  0.00     0.011 C 
ENDBRANCH   1  24
TORSDOF 3
ENDMDL
MODEL 9
REMARK VINA RESULT:      -7.3      3.297      5.717
REMARK  3 active torsions:
REMARK  status: ('A' for Active; 'I' for Inactive)
REMARK    1  A    between atoms: C2_2  and  C3_3 
REMARK    2  A    between atoms: C14_15  and  S1_16 
REMARK    3  A    between atoms: S1_16  and  C15_18 
ROOT
HETATM    1  C3  UNL     1      23.827   0.012  53.505  1.00  0.00     0.029 C 
HETATM    2  C4  UNL     1      23.010   0.390  52.549  1.00  0.00     0.035 A 
HETATM    3  C5  UNL     1      21.592   0.007  52.346  1.00  0.00     0.061 A 
HETATM    4  C6  UNL     1      20.924   0.505  51.289  1.00  0.00     0.061 A 
HETATM    5  C7  UNL     1      19.668  -0.163  51.591  1.00  0.00     0.033 C 
HETATM    6  C8  UNL     1      18.961   1.014  51.691  1.00  0.00     0.022 C 
HETATM    7  C9  UNL     1      18.953   2.517  51.626  1.00  0.00     0.128 C 
HETATM    8  N1  UNL     1      18.811   3.815  51.595  1.00  0.00    -0.210 NA
HETATM    9  C10 UNL     1      19.966   4.538  51.359  1.00  0.00     0.034 C 
HETATM   10  C11 UNL     1      20.946   5.128  51.166  1.00  0.00    -0.080 C 
HETATM   11  C12 UNL     1      22.152   5.830  50.947  1.00  0.00     0.060 C 
HETATM   12  C13 UNL     1      22.795   4.825  50.307  1.00  0.00     0.094 C 
HETATM   13  C14 UNL     1      24.140   4.739  49.751  1.00  0.00     0.014 C 
HETATM   14  C16 UNL     1      23.988   3.466  49.294  1.00  0.00    -0.002 C 
HETATM   15  C17 UNL     1      22.765   2.634  49.402  1.00  0.00     0.106 C 
HETATM   16  C18 UNL     1      22.778   1.734  50.530  1.00  0.00     0.108 A 
HETATM   17  N2  UNL     1      21.570   1.353  50.422  1.00  0.00    -0.235 NA
HETATM   18  N3  UNL     1      23.595   1.287  51.591  1.00  0.00    -0.344 N 
HETATM   19  H16 UNL     1      24.533   1.716  51.478  1.00  0.00     0.167 HD
ENDROOT
BRANCH  13  20
HETATM   20  S1  UNL     1      25.770   5.416  49.394  1.00  0.00     0.074 S 
HETATM   21  O1  UNL     1      25.722   6.365  48.252  1.00  0.00    -0.251 OA
BRANCH  20  22
HETATM   22  C15 UNL     1      26.910   4.066  49.230  1.00  0.00     0.335 C 
HETATM   23  F1  UNL     1      27.979   4.393  48.436  1.00  0.00    -0.242 F 
ENDBRANCH  20  22
ENDBRANCH  13  20
BRANCH   1  24
HETATM   24  C2  UNL     1      25.198   0.435  53.627  1.00  0.00    -0.008 C 
HETATM   25  C1  UNL     1      26.071  -0.481  53.973  1.00  0.00     0.011 C 
ENDBRANCH   1  24
TORSDOF 3
ENDMDL
