MODEL 1
REMARK VINA RESULT:      -7.8      0.000      0.000
REMARK  3 active torsions:
REMARK  status: ('A' for Active; 'I' for Inactive)
REMARK       I    between atoms: N1_2  and  C2_3 
REMARK    1  A    between atoms: C2_3  and  C3_5 
REMARK    2  A    between atoms: C5_8  and  C6_9 
REMARK    3  A    between atoms: C7_10  and  C8_11 
ROOT
HETATM    1  C3  UNL     1      20.587   0.116  52.847  1.00  0.00     0.199 A 
HETATM    2  N2  UNL     1      20.491  -0.779  53.850  1.00  0.00    -0.235 NA
HETATM    3  C4  UNL     1      21.767  -1.044  54.245  1.00  0.00     0.158 A 
HETATM    4  C5  UNL     1      22.643  -0.305  53.477  1.00  0.00     0.108 A 
HETATM    5  N3  UNL     1      21.892   0.421  52.601  1.00  0.00    -0.323 N 
HETATM    6  C15 UNL     1      22.434   1.337  51.609  1.00  0.00     0.159 C 
ENDROOT
BRANCH   4   7
HETATM    7  C6  UNL     1      24.079  -0.259  53.533  1.00  0.00    -0.042 C 
HETATM    8  C7  UNL     1      25.291  -0.209  53.599  1.00  0.00    -0.059 C 
BRANCH   8   9
HETATM    9  C8  UNL     1      26.723  -0.124  53.678  1.00  0.00     0.027 A 
HETATM   10  C9  UNL     1      27.260   0.902  54.298  1.00  0.00     0.071 A 
HETATM   11  C10 UNL     1      28.718   0.928  54.343  1.00  0.00     0.154 A 
HETATM   12  O2  UNL     1      29.360   1.854  54.905  1.00  0.00    -0.293 OA
HETATM   13  C11 UNL     1      29.655  -0.070  53.770  1.00  0.00     0.110 A 
HETATM   14  C12 UNL     1      28.829  -1.131  53.124  1.00  0.00    -0.011 A 
HETATM   15  C13 UNL     1      27.504  -1.171  53.073  1.00  0.00    -0.046 A 
HETATM   16  C14 UNL     1      26.866  -2.309  52.385  1.00  0.00     0.049 C 
ENDBRANCH   8   9
ENDBRANCH   4   7
BRANCH   1  17
HETATM   17  C2  UNL     1      19.523   0.736  52.067  1.00  0.00     0.287 C 
HETATM   18  N1  UNL     1      18.766  -0.095  51.212  1.00  0.00    -0.359 N 
HETATM   19  C1  UNL     1      17.668   0.242  50.335  1.00  0.00     0.149 C 
HETATM   20  H4  UNL     1      18.963  -1.137  51.135  1.00  0.00     0.162 HD
HETATM   21  O1  UNL     1      19.159   1.923  52.033  1.00  0.00    -0.264 OA
ENDBRANCH   1  17
TORSDOF 3
ENDMDL
MODEL 2
REMARK VINA RESULT:      -7.8      2.508      7.966
REMARK  3 active torsions:
REMARK  status: ('A' for Active; 'I' for Inactive)
REMARK       I    between atoms: N1_2  and  C2_3 
REMARK    1  A    between atoms: C2_3  and  C3_5 
REMARK    2  A    between atoms: C5_8  and  C6_9 
REMARK    3  A    between atoms: C7_10  and  C8_11 
ROOT
HETATM    1  C3  UNL     1      26.156  -0.307  54.668  1.00  0.00     0.199 A 
HETATM    2  N2  UNL     1      25.577  -0.995  55.672  1.00  0.00    -0.235 NA
HETATM    3  C4  UNL     1      24.254  -1.084  55.357  1.00  0.00     0.158 A 
HETATM    4  C5  UNL     1      24.030  -0.447  54.154  1.00  0.00     0.108 A 
HETATM    5  N3  UNL     1      25.231   0.039  53.729  1.00  0.00    -0.323 N 
HETATM    6  C15 UNL     1      25.431   0.781  52.493  1.00  0.00     0.159 C 
ENDROOT
BRANCH   4   7
HETATM    7  C6  UNL     1      22.797  -0.286  53.431  1.00  0.00    -0.042 C 
HETATM    8  C7  UNL     1      21.747  -0.142  52.838  1.00  0.00    -0.059 C 
BRANCH   8   9
HETATM    9  C8  UNL     1      20.494   0.016  52.155  1.00  0.00     0.027 A 
HETATM   10  C9  UNL     1      19.396  -0.389  52.751  1.00  0.00     0.071 A 
HETATM   11  C10 UNL     1      18.157  -0.200  52.004  1.00  0.00     0.154 A 
HETATM   12  O2  UNL     1      17.034  -0.545  52.459  1.00  0.00    -0.293 OA
HETATM   13  C11 UNL     1      18.001   0.396  50.655  1.00  0.00     0.110 A 
HETATM   14  C12 UNL     1      19.363   0.778  50.181  1.00  0.00    -0.011 A 
HETATM   15  C13 UNL     1      20.500   0.614  50.845  1.00  0.00    -0.046 A 
HETATM   16  C14 UNL     1      21.753   1.057  50.206  1.00  0.00     0.049 C 
ENDBRANCH   8   9
ENDBRANCH   4   7
BRANCH   1  17
HETATM   17  C2  UNL     1      27.554   0.071  54.503  1.00  0.00     0.287 C 
HETATM   18  N1  UNL     1      28.439  -0.900  53.983  1.00  0.00    -0.359 N 
HETATM   19  C1  UNL     1      29.856  -0.806  53.717  1.00  0.00     0.149 C 
HETATM   20  H4  UNL     1      28.101  -1.873  53.720  1.00  0.00     0.162 HD
HETATM   21  O1  UNL     1      28.115   1.150  54.755  1.00  0.00    -0.264 OA
ENDBRANCH   1  17
TORSDOF 3
ENDMDL
MODEL 3
REMARK VINA RESULT:      -7.8      1.898      2.952
REMARK  3 active torsions:
REMARK  status: ('A' for Active; 'I' for Inactive)
REMARK       I    between atoms: N1_2  and  C2_3 
REMARK    1  A    between atoms: C2_3  and  C3_5 
REMARK    2  A    between atoms: C5_8  and  C6_9 
REMARK    3  A    between atoms: C7_10  and  C8_11 
ROOT
HETATM    1  C3  UNL     1      21.658   2.271  51.485  1.00  0.00     0.199 A 
HETATM    2  N2  UNL     1      22.257   2.949  50.484  1.00  0.00    -0.235 NA
HETATM    3  C4  UNL     1      23.577   2.615  50.538  1.00  0.00     0.158 A 
HETATM    4  C5  UNL     1      23.780   1.730  51.575  1.00  0.00     0.108 A 
HETATM    5  N3  UNL     1      22.568   1.519  52.165  1.00  0.00    -0.323 N 
HETATM    6  C15 UNL     1      22.345   0.645  53.306  1.00  0.00     0.159 C 
ENDROOT
BRANCH   4   7
HETATM    7  C6  UNL     1      25.002   1.109  52.010  1.00  0.00    -0.042 C 
HETATM    8  C7  UNL     1      26.036   0.599  52.392  1.00  0.00    -0.059 C 
BRANCH   8   9
HETATM    9  C8  UNL     1      27.270   0.018  52.843  1.00  0.00     0.027 A 
HETATM   10  C9  UNL     1      27.392  -1.289  52.833  1.00  0.00     0.071 A 
HETATM   11  C10 UNL     1      28.670  -1.815  53.302  1.00  0.00     0.154 A 
HETATM   12  O2  UNL     1      28.918  -3.049  53.344  1.00  0.00    -0.293 OA
HETATM   13  C11 UNL     1      29.839  -1.041  53.786  1.00  0.00     0.110 A 
HETATM   14  C12 UNL     1      29.474   0.404  53.708  1.00  0.00    -0.011 A 
HETATM   15  C13 UNL     1      28.319   0.900  53.285  1.00  0.00    -0.046 A 
HETATM   16  C14 UNL     1      28.146   2.364  53.283  1.00  0.00     0.049 C 
ENDBRANCH   8   9
ENDBRANCH   4   7
BRANCH   1  17
HETATM   17  C2  UNL     1      20.254   2.265  51.874  1.00  0.00     0.287 C 
HETATM   18  N1  UNL     1      19.440   1.221  51.381  1.00  0.00    -0.359 N 
HETATM   19  C1  UNL     1      18.034   0.967  51.599  1.00  0.00     0.149 C 
HETATM   20  H4  UNL     1      19.834   0.464  50.747  1.00  0.00     0.162 HD
HETATM   21  O1  UNL     1      19.633   3.060  52.599  1.00  0.00    -0.264 OA
ENDBRANCH   1  17
TORSDOF 3
ENDMDL
MODEL 4
REMARK VINA RESULT:      -7.7      2.618      7.893
REMARK  3 active torsions:
REMARK  status: ('A' for Active; 'I' for Inactive)
REMARK       I    between atoms: N1_2  and  C2_3 
REMARK    1  A    between atoms: C2_3  and  C3_5 
REMARK    2  A    between atoms: C5_8  and  C6_9 
REMARK    3  A    between atoms: C7_10  and  C8_11 
ROOT
HETATM    1  C3  UNL     1      26.358  -0.259  54.548  1.00  0.00     0.199 A 
HETATM    2  N2  UNL     1      25.657  -0.947  55.472  1.00  0.00    -0.235 NA
HETATM    3  C4  UNL     1      24.365  -0.954  55.039  1.00  0.00     0.158 A 
HETATM    4  C5  UNL     1      24.283  -0.267  53.845  1.00  0.00     0.108 A 
HETATM    5  N3  UNL     1      25.540   0.166  53.545  1.00  0.00    -0.323 N 
HETATM    6  C15 UNL     1      25.888   0.934  52.360  1.00  0.00     0.159 C 
ENDROOT
BRANCH   4   7
HETATM    7  C6  UNL     1      23.129  -0.017  53.022  1.00  0.00    -0.042 C 
HETATM    8  C7  UNL     1      22.154   0.213  52.337  1.00  0.00    -0.059 C 
BRANCH   8   9
HETATM    9  C8  UNL     1      20.987   0.491  51.547  1.00  0.00     0.027 A 
HETATM   10  C9  UNL     1      21.134   1.126  50.407  1.00  0.00     0.071 A 
HETATM   11  C10 UNL     1      19.910   1.376  49.653  1.00  0.00     0.154 A 
HETATM   12  O2  UNL     1      19.909   1.974  48.545  1.00  0.00    -0.293 OA
HETATM   13  C11 UNL     1      18.526   0.995  50.030  1.00  0.00     0.110 A 
HETATM   14  C12 UNL     1      18.604   0.294  51.345  1.00  0.00    -0.011 A 
HETATM   15  C13 UNL     1      19.706   0.058  52.044  1.00  0.00    -0.046 A 
HETATM   16  C14 UNL     1      19.579  -0.653  53.330  1.00  0.00     0.049 C 
ENDBRANCH   8   9
ENDBRANCH   4   7
BRANCH   1  17
HETATM   17  C2  UNL     1      27.783   0.047  54.521  1.00  0.00     0.287 C 
HETATM   18  N1  UNL     1      28.643  -0.887  53.903  1.00  0.00    -0.359 N 
HETATM   19  C1  UNL     1      30.078  -0.847  53.732  1.00  0.00     0.149 C 
HETATM   20  H4  UNL     1      28.269  -1.785  53.471  1.00  0.00     0.162 HD
HETATM   21  O1  UNL     1      28.386   1.035  54.970  1.00  0.00    -0.264 OA
ENDBRANCH   1  17
TORSDOF 3
ENDMDL
MODEL 5
REMARK VINA RESULT:      -7.6      2.705      8.095
REMARK  3 active torsions:
REMARK  status: ('A' for Active; 'I' for Inactive)
REMARK       I    between atoms: N1_2  and  C2_3 
REMARK    1  A    between atoms: C2_3  and  C3_5 
REMARK    2  A    between atoms: C5_8  and  C6_9 
REMARK    3  A    between atoms: C7_10  and  C8_11 
ROOT
HETATM    1  C3  UNL     1      27.194   1.347  52.911  1.00  0.00     0.199 A 
HETATM    2  N2  UNL     1      27.099   2.255  51.918  1.00  0.00    -0.235 NA
HETATM    3  C4  UNL     1      25.793   2.257  51.531  1.00  0.00     0.158 A 
HETATM    4  C5  UNL     1      25.091   1.347  52.294  1.00  0.00     0.108 A 
HETATM    5  N3  UNL     1      25.980   0.779  53.158  1.00  0.00    -0.323 N 
HETATM    6  C15 UNL     1      25.642  -0.238  54.141  1.00  0.00     0.159 C 
ENDROOT
BRANCH   4   7
HETATM    7  C6  UNL     1      23.694   1.009  52.242  1.00  0.00    -0.042 C 
HETATM    8  C7  UNL     1      22.516   0.715  52.218  1.00  0.00    -0.059 C 
BRANCH   8   9
HETATM    9  C8  UNL     1      21.129   0.343  52.194  1.00  0.00     0.027 A 
HETATM   10  C9  UNL     1      20.421   0.618  51.123  1.00  0.00     0.071 A 
HETATM   11  C10 UNL     1      19.019   0.213  51.162  1.00  0.00     0.154 A 
HETATM   12  O2  UNL     1      18.230   0.418  50.203  1.00  0.00    -0.293 OA
HETATM   13  C11 UNL     1      18.310  -0.471  52.271  1.00  0.00     0.110 A 
HETATM   14  C12 UNL     1      19.302  -0.679  53.367  1.00  0.00    -0.011 A 
HETATM   15  C13 UNL     1      20.578  -0.319  53.349  1.00  0.00    -0.046 A 
HETATM   16  C14 UNL     1      21.404  -0.612  54.535  1.00  0.00     0.049 C 
ENDBRANCH   8   9
ENDBRANCH   4   7
BRANCH   1  17
HETATM   17  C2  UNL     1      28.366   0.949  53.679  1.00  0.00     0.287 C 
HETATM   18  N1  UNL     1      28.999  -0.265  53.331  1.00  0.00    -0.359 N 
HETATM   19  C1  UNL     1      30.161  -0.898  53.911  1.00  0.00     0.149 C 
HETATM   20  H4  UNL     1      28.634  -0.872  52.537  1.00  0.00     0.162 HD
HETATM   21  O1  UNL     1      28.922   1.528  54.627  1.00  0.00    -0.264 OA
ENDBRANCH   1  17
TORSDOF 3
ENDMDL
MODEL 6
REMARK VINA RESULT:      -7.4      4.722      7.361
REMARK  3 active torsions:
REMARK  status: ('A' for Active; 'I' for Inactive)
REMARK       I    between atoms: N1_2  and  C2_3 
REMARK    1  A    between atoms: C2_3  and  C3_5 
REMARK    2  A    between atoms: C5_8  and  C6_9 
REMARK    3  A    between atoms: C7_10  and  C8_11 
ROOT
HETATM    1  C3  UNL     1      26.021   4.898  49.698  1.00  0.00     0.199 A 
HETATM    2  N2  UNL     1      26.965   3.958  49.493  1.00  0.00    -0.235 NA
HETATM    3  C4  UNL     1      26.518   2.831  50.115  1.00  0.00     0.158 A 
HETATM    4  C5  UNL     1      25.295   3.089  50.698  1.00  0.00     0.108 A 
HETATM    5  N3  UNL     1      24.991   4.391  50.431  1.00  0.00    -0.323 N 
HETATM    6  C15 UNL     1      23.778   5.063  50.871  1.00  0.00     0.159 C 
ENDROOT
BRANCH   4   7
HETATM    7  C6  UNL     1      24.449   2.206  51.456  1.00  0.00    -0.042 C 
HETATM    8  C7  UNL     1      23.724   1.456  52.078  1.00  0.00    -0.059 C 
BRANCH   8   9
HETATM    9  C8  UNL     1      22.846   0.582  52.804  1.00  0.00     0.027 A 
HETATM   10  C9  UNL     1      21.556   0.647  52.569  1.00  0.00     0.071 A 
HETATM   11  C10 UNL     1      20.719  -0.267  53.340  1.00  0.00     0.154 A 
HETATM   12  O2  UNL     1      19.467  -0.308  53.212  1.00  0.00    -0.293 OA
HETATM   13  C11 UNL     1      21.163  -1.256  54.353  1.00  0.00     0.110 A 
HETATM   14  C12 UNL     1      22.648  -1.152  54.450  1.00  0.00    -0.011 A 
HETATM   15  C13 UNL     1      23.424  -0.328  53.759  1.00  0.00    -0.046 A 
HETATM   16  C14 UNL     1      24.879  -0.374  53.997  1.00  0.00     0.049 C 
ENDBRANCH   8   9
ENDBRANCH   4   7
BRANCH   1  17
HETATM   17  C2  UNL     1      25.997   6.284  49.249  1.00  0.00     0.287 C 
HETATM   18  N1  UNL     1      26.508   7.268  50.125  1.00  0.00    -0.359 N 
HETATM   19  C1  UNL     1      26.609   8.698  49.946  1.00  0.00     0.149 C 
HETATM   20  H4  UNL     1      26.897   7.010  51.081  1.00  0.00     0.162 HD
HETATM   21  O1  UNL     1      25.585   6.760  48.178  1.00  0.00    -0.264 OA
ENDBRANCH   1  17
TORSDOF 3
ENDMDL
MODEL 7
REMARK VINA RESULT:      -7.4      4.848      7.252
REMARK  3 active torsions:
REMARK  status: ('A' for Active; 'I' for Inactive)
REMARK       I    between atoms: N1_2  and  C2_3 
REMARK    1  A    between atoms: C2_3  and  C3_5 
REMARK    2  A    between atoms: C5_8  and  C6_9 
REMARK    3  A    between atoms: C7_10  and  C8_11 
ROOT
HETATM    1  C3  UNL     1      25.893   4.911  49.708  1.00  0.00     0.199 A 
HETATM    2  N2  UNL     1      26.843   3.998  49.422  1.00  0.00    -0.235 NA
HETATM    3  C4  UNL     1      26.443   2.837  50.013  1.00  0.00     0.158 A 
HETATM    4  C5  UNL     1      25.242   3.047  50.659  1.00  0.00     0.108 A 
HETATM    5  N3  UNL     1      24.904   4.353  50.462  1.00  0.00    -0.323 N 
HETATM    6  C15 UNL     1      23.701   4.983  50.982  1.00  0.00     0.159 C 
ENDROOT
BRANCH   4   7
HETATM    7  C6  UNL     1      24.446   2.117  51.414  1.00  0.00    -0.042 C 
HETATM    8  C7  UNL     1      23.757   1.346  52.052  1.00  0.00    -0.059 C 
BRANCH   8   9
HETATM    9  C8  UNL     1      22.940   0.453  52.824  1.00  0.00     0.027 A 
HETATM   10  C9  UNL     1      23.463  -0.121  53.884  1.00  0.00     0.071 A 
HETATM   11  C10 UNL     1      22.580  -1.017  54.625  1.00  0.00     0.154 A 
HETATM   12  O2  UNL     1      22.955  -1.631  55.658  1.00  0.00    -0.293 OA
HETATM   13  C11 UNL     1      21.168  -1.349  54.316  1.00  0.00     0.110 A 
HETATM   14  C12 UNL     1      20.795  -0.589  53.086  1.00  0.00    -0.011 A 
HETATM   15  C13 UNL     1      21.583   0.228  52.400  1.00  0.00    -0.046 A 
HETATM   16  C14 UNL     1      21.030   0.891  51.204  1.00  0.00     0.049 C 
ENDBRANCH   8   9
ENDBRANCH   4   7
BRANCH   1  17
HETATM   17  C2  UNL     1      25.825   6.314  49.320  1.00  0.00     0.287 C 
HETATM   18  N1  UNL     1      26.410   7.264  50.187  1.00  0.00    -0.359 N 
HETATM   19  C1  UNL     1      26.491   8.701  50.060  1.00  0.00     0.149 C 
HETATM   20  H4  UNL     1      26.883   6.969  51.093  1.00  0.00     0.162 HD
HETATM   21  O1  UNL     1      25.317   6.830  48.311  1.00  0.00    -0.264 OA
ENDBRANCH   1  17
TORSDOF 3
ENDMDL
MODEL 8
REMARK VINA RESULT:      -7.2      2.728      8.159
REMARK  3 active torsions:
REMARK  status: ('A' for Active; 'I' for Inactive)
REMARK       I    between atoms: N1_2  and  C2_3 
REMARK    1  A    between atoms: C2_3  and  C3_5 
REMARK    2  A    between atoms: C5_8  and  C6_9 
REMARK    3  A    between atoms: C7_10  and  C8_11 
ROOT
HETATM    1  C3  UNL     1      27.147   1.250  52.882  1.00  0.00     0.199 A 
HETATM    2  N2  UNL     1      27.165   2.212  51.938  1.00  0.00    -0.235 NA
HETATM    3  C4  UNL     1      25.895   2.288  51.451  1.00  0.00     0.158 A 
HETATM    4  C5  UNL     1      25.102   1.369  52.106  1.00  0.00     0.108 A 
HETATM    5  N3  UNL     1      25.898   0.721  53.003  1.00  0.00    -0.323 N 
HETATM    6  C15 UNL     1      25.446  -0.332  53.899  1.00  0.00     0.159 C 
ENDROOT
BRANCH   4   7
HETATM    7  C6  UNL     1      23.702   1.092  51.928  1.00  0.00    -0.042 C 
HETATM    8  C7  UNL     1      22.520   0.867  51.758  1.00  0.00    -0.059 C 
BRANCH   8   9
HETATM    9  C8  UNL     1      21.120   0.625  51.553  1.00  0.00     0.027 A 
HETATM   10  C9  UNL     1      20.427   0.072  52.522  1.00  0.00     0.071 A 
HETATM   11  C10 UNL     1      19.009  -0.145  52.249  1.00  0.00     0.154 A 
HETATM   12  O2  UNL     1      18.232  -0.667  53.092  1.00  0.00    -0.293 OA
HETATM   13  C11 UNL     1      18.270   0.187  51.007  1.00  0.00     0.110 A 
HETATM   14  C12 UNL     1      19.249   0.797  50.061  1.00  0.00    -0.011 A 
HETATM   15  C13 UNL     1      20.539   1.003  50.290  1.00  0.00    -0.046 A 
HETATM   16  C14 UNL     1      21.348   1.621  49.224  1.00  0.00     0.049 C 
ENDBRANCH   8   9
ENDBRANCH   4   7
BRANCH   1  17
HETATM   17  C2  UNL     1      28.240   0.765  53.715  1.00  0.00     0.287 C 
HETATM   18  N1  UNL     1      28.970  -0.354  53.255  1.00  0.00    -0.359 N 
HETATM   19  C1  UNL     1      30.087  -1.040  53.864  1.00  0.00     0.149 C 
HETATM   20  H4  UNL     1      28.733  -0.830  52.334  1.00  0.00     0.162 HD
HETATM   21  O1  UNL     1      28.651   1.193  54.807  1.00  0.00    -0.264 OA
ENDBRANCH   1  17
TORSDOF 3
ENDMDL
MODEL 9
REMARK VINA RESULT:      -6.8      2.365      8.124
REMARK  3 active torsions:
REMARK  status: ('A' for Active; 'I' for Inactive)
REMARK       I    between atoms: N1_2  and  C2_3 
REMARK    1  A    between atoms: C2_3  and  C3_5 
REMARK    2  A    between atoms: C5_8  and  C6_9 
REMARK    3  A    between atoms: C7_10  and  C8_11 
ROOT
HETATM    1  C3  UNL     1      25.223  -0.566  54.521  1.00  0.00     0.199 A 
HETATM    2  N2  UNL     1      24.744  -1.267  55.568  1.00  0.00    -0.235 NA
HETATM    3  C4  UNL     1      23.394  -1.331  55.396  1.00  0.00     0.158 A 
HETATM    4  C5  UNL     1      23.052  -0.666  54.237  1.00  0.00     0.108 A 
HETATM    5  N3  UNL     1      24.208  -0.188  53.693  1.00  0.00    -0.323 N 
HETATM    6  C15 UNL     1      24.287   0.576  52.458  1.00  0.00     0.159 C 
ENDROOT
BRANCH   4   7
HETATM    7  C6  UNL     1      21.752  -0.474  53.653  1.00  0.00    -0.042 C 
HETATM    8  C7  UNL     1      20.650  -0.295  53.175  1.00  0.00    -0.059 C 
BRANCH   8   9
HETATM    9  C8  UNL     1      19.336  -0.088  52.632  1.00  0.00     0.027 A 
HETATM   10  C9  UNL     1      19.129   0.959  51.867  1.00  0.00     0.071 A 
HETATM   11  C10 UNL     1      17.774   1.112  51.347  1.00  0.00     0.154 A 
HETATM   12  O2  UNL     1      17.441   2.071  50.602  1.00  0.00    -0.293 OA
HETATM   13  C11 UNL     1      16.612   0.221  51.586  1.00  0.00     0.110 A 
HETATM   14  C12 UNL     1      17.080  -0.885  52.471  1.00  0.00    -0.011 A 
HETATM   15  C13 UNL     1      18.306  -1.041  52.953  1.00  0.00    -0.046 A 
HETATM   16  C14 UNL     1      18.575  -2.205  53.817  1.00  0.00     0.049 C 
ENDBRANCH   8   9
ENDBRANCH   4   7
BRANCH   1  17
HETATM   17  C2  UNL     1      26.601  -0.205  54.214  1.00  0.00     0.287 C 
HETATM   18  N1  UNL     1      26.964   1.156  54.326  1.00  0.00    -0.359 N 
HETATM   19  C1  UNL     1      28.239   1.792  54.087  1.00  0.00     0.149 C 
HETATM   20  H4  UNL     1      26.259   1.895  54.623  1.00  0.00     0.162 HD
HETATM   21  O1  UNL     1      27.545  -0.928  53.855  1.00  0.00    -0.264 OA
ENDBRANCH   1  17
TORSDOF 3
ENDMDL
