MODEL 1
REMARK VINA RESULT:      -8.7      0.000      0.000
REMARK  3 active torsions:
REMARK  status: ('A' for Active; 'I' for Inactive)
REMARK    1  A    between atoms: O1_2  and  C2_3 
REMARK    2  A    between atoms: C2_3  and  C3_5 
REMARK    3  A    between atoms: C19_23  and  O4_24 
ROOT
HETATM    1  C3  UNL     1      23.702   6.156  49.834  1.00  0.00     0.087 A 
HETATM    2  C4  UNL     1      23.921   4.826  50.006  1.00  0.00     0.035 A 
HETATM    3  C5  UNL     1      25.205   4.464  49.600  1.00  0.00     0.029 A 
HETATM    4  C6  UNL     1      26.274   5.205  49.060  1.00  0.00    -0.022 A 
HETATM    5  C7  UNL     1      27.451   4.602  48.738  1.00  0.00     0.012 A 
HETATM    6  C8  UNL     1      28.374   5.479  48.226  1.00  0.00     0.001 A 
HETATM    7  C9  UNL     1      28.174   6.822  48.042  1.00  0.00     0.001 A 
HETATM    8  C10 UNL     1      26.934   7.330  48.408  1.00  0.00     0.015 A 
HETATM    9  C11 UNL     1      25.916   6.557  48.934  1.00  0.00     0.009 A 
HETATM   10  C12 UNL     1      24.665   6.970  49.318  1.00  0.00     0.097 A 
HETATM   11  O3  UNL     1      24.584   8.354  49.073  1.00  0.00    -0.347 OA
HETATM   12  C13 UNL     1      23.832   8.784  47.920  1.00  0.00     0.205 C 
HETATM   13  C14 UNL     1      24.353   8.139  46.680  1.00  0.00     0.296 C 
HETATM   14  N1  UNL     1      23.493   8.564  45.554  1.00  0.00     0.085 N 
HETATM   15  C15 UNL     1      23.331   7.309  44.719  1.00  0.00     0.270 C 
HETATM   16  C16 UNL     1      22.471   6.481  45.597  1.00  0.00     0.034 C 
HETATM   17  C17 UNL     1      22.186   5.045  45.242  1.00  0.00     0.032 C 
HETATM   18  C18 UNL     1      21.380   4.593  46.436  1.00  0.00     0.014 C 
HETATM   19  C19 UNL     1      21.529   3.770  47.398  1.00  0.00     0.113 C 
HETATM   20  C20 UNL     1      22.208   2.775  48.168  1.00  0.00     0.215 C 
HETATM   21  O5  UNL     1      23.183   2.047  48.268  1.00  0.00    -0.284 OA
HETATM   22  C21 UNL     1      21.830   2.146  49.474  1.00  0.00     0.031 A 
HETATM   23  C22 UNL     1      21.002   1.012  49.532  1.00  0.00     0.016 A 
HETATM   24  C23 UNL     1      20.604   0.509  50.753  1.00  0.00     0.001 A 
HETATM   25  C24 UNL     1      21.001   1.089  51.928  1.00  0.00     0.001 A 
HETATM   26  C25 UNL     1      21.814   2.196  51.938  1.00  0.00     0.016 A 
HETATM   27  C26 UNL     1      22.210   2.699  50.737  1.00  0.00     0.029 A 
HETATM   28  C27 UNL     1      23.089   3.778  50.421  1.00  0.00     0.194 C 
HETATM   29  O6  UNL     1      23.573   4.087  51.585  1.00  0.00    -0.287 OA
HETATM   30  H13 UNL     1      22.527   8.779  45.874  1.00  0.00     0.315 HD
ENDROOT
BRANCH   1  31
HETATM   31  C2  UNL     1      22.423   6.668  50.258  1.00  0.00     0.296 C 
HETATM   32  O2  UNL     1      21.883   7.386  51.107  1.00  0.00    -0.259 OA
BRANCH  31  33
HETATM   33  O1  UNL     1      21.220   6.387  49.637  1.00  0.00    -0.322 OA
HETATM   34  C1  UNL     1      20.533   7.377  48.863  1.00  0.00     0.213 C 
ENDBRANCH  31  33
ENDBRANCH   1  31
BRANCH  19  35
HETATM   35  O4  UNL     1      20.437   3.761  48.248  1.00  0.00    -0.357 OA
HETATM   36  H21 UNL     1      19.643   4.384  48.136  1.00  0.00     0.217 HD
ENDBRANCH  19  35
TORSDOF 3
ENDMDL
MODEL 2
REMARK VINA RESULT:      -8.4      2.845      4.155
REMARK  3 active torsions:
REMARK  status: ('A' for Active; 'I' for Inactive)
REMARK    1  A    between atoms: O1_2  and  C2_3 
REMARK    2  A    between atoms: C2_3  and  C3_5 
REMARK    3  A    between atoms: C19_23  and  O4_24 
ROOT
HETATM    1  C3  UNL     1      20.240   4.533  50.845  1.00  0.00     0.087 A 
HETATM    2  C4  UNL     1      21.153   3.973  51.680  1.00  0.00     0.035 A 
HETATM    3  C5  UNL     1      22.295   4.766  51.791  1.00  0.00     0.029 A 
HETATM    4  C6  UNL     1      22.657   5.997  51.209  1.00  0.00    -0.022 A 
HETATM    5  C7  UNL     1      23.858   6.574  51.484  1.00  0.00     0.012 A 
HETATM    6  C8  UNL     1      24.035   7.767  50.828  1.00  0.00     0.001 A 
HETATM    7  C9  UNL     1      23.129   8.348  49.981  1.00  0.00     0.001 A 
HETATM    8  C10 UNL     1      21.934   7.670  49.775  1.00  0.00     0.015 A 
HETATM    9  C11 UNL     1      21.628   6.461  50.372  1.00  0.00     0.009 A 
HETATM   10  C12 UNL     1      20.482   5.721  50.225  1.00  0.00     0.097 A 
HETATM   11  O3  UNL     1      19.645   6.416  49.331  1.00  0.00    -0.347 OA
HETATM   12  C13 UNL     1      19.550   5.917  47.982  1.00  0.00     0.205 C 
HETATM   13  C14 UNL     1      20.900   5.832  47.355  1.00  0.00     0.296 C 
HETATM   14  N1  UNL     1      20.737   5.245  46.007  1.00  0.00     0.085 N 
HETATM   15  C15 UNL     1      21.917   4.303  45.868  1.00  0.00     0.270 C 
HETATM   16  C16 UNL     1      21.552   3.232  46.825  1.00  0.00     0.034 C 
HETATM   17  C17 UNL     1      22.537   2.142  47.154  1.00  0.00     0.032 C 
HETATM   18  C18 UNL     1      21.787   1.364  48.209  1.00  0.00     0.014 C 
HETATM   19  C19 UNL     1      21.917   1.127  49.454  1.00  0.00     0.113 C 
HETATM   20  C20 UNL     1      22.547   1.201  50.735  1.00  0.00     0.215 C 
HETATM   21  O5  UNL     1      23.505   1.592  51.385  1.00  0.00    -0.284 OA
HETATM   22  C21 UNL     1      22.086   0.684  52.065  1.00  0.00     0.031 A 
HETATM   23  C22 UNL     1      22.366  -0.629  52.479  1.00  0.00     0.016 A 
HETATM   24  C23 UNL     1      21.855  -1.100  53.671  1.00  0.00     0.001 A 
HETATM   25  C24 UNL     1      21.075  -0.313  54.474  1.00  0.00     0.001 A 
HETATM   26  C25 UNL     1      20.770   0.980  54.127  1.00  0.00     0.016 A 
HETATM   27  C26 UNL     1      21.270   1.453  52.952  1.00  0.00     0.029 A 
HETATM   28  C27 UNL     1      21.188   2.746  52.356  1.00  0.00     0.194 C 
HETATM   29  O6  UNL     1      20.642   3.449  53.300  1.00  0.00    -0.287 OA
HETATM   30  H13 UNL     1      19.909   4.618  45.963  1.00  0.00     0.315 HD
ENDROOT
BRANCH   1  31
HETATM   31  C2  UNL     1      18.991   3.831  50.678  1.00  0.00     0.296 C 
HETATM   32  O2  UNL     1      17.818   3.804  51.066  1.00  0.00    -0.259 OA
BRANCH  31  33
HETATM   33  O1  UNL     1      18.799   2.764  49.821  1.00  0.00    -0.322 OA
HETATM   34  C1  UNL     1      17.698   1.864  49.987  1.00  0.00     0.213 C 
ENDBRANCH  31  33
ENDBRANCH   1  31
BRANCH  19  35
HETATM   35  O4  UNL     1      20.897   0.330  49.941  1.00  0.00    -0.357 OA
HETATM   36  H21 UNL     1      20.898  -0.060  50.878  1.00  0.00     0.217 HD
ENDBRANCH  19  35
TORSDOF 3
ENDMDL
MODEL 3
REMARK VINA RESULT:      -8.1      2.311      6.539
REMARK  3 active torsions:
REMARK  status: ('A' for Active; 'I' for Inactive)
REMARK    1  A    between atoms: O1_2  and  C2_3 
REMARK    2  A    between atoms: C2_3  and  C3_5 
REMARK    3  A    between atoms: C19_23  and  O4_24 
ROOT
HETATM    1  C3  UNL     1      22.908   2.423  49.174  1.00  0.00     0.087 A 
HETATM    2  C4  UNL     1      23.899   3.008  49.896  1.00  0.00     0.035 A 
HETATM    3  C5  UNL     1      23.903   2.557  51.215  1.00  0.00     0.029 A 
HETATM    4  C6  UNL     1      23.090   1.638  51.907  1.00  0.00    -0.022 A 
HETATM    5  C7  UNL     1      23.304   1.366  53.223  1.00  0.00     0.012 A 
HETATM    6  C8  UNL     1      22.416   0.450  53.727  1.00  0.00     0.001 A 
HETATM    7  C9  UNL     1      21.408  -0.151  53.018  1.00  0.00     0.001 A 
HETATM    8  C10 UNL     1      21.283   0.201  51.681  1.00  0.00     0.015 A 
HETATM    9  C11 UNL     1      22.110   1.112  51.048  1.00  0.00     0.009 A 
HETATM   10  C12 UNL     1      22.059   1.520  49.740  1.00  0.00     0.097 A 
HETATM   11  O3  UNL     1      20.986   0.844  49.129  1.00  0.00    -0.347 OA
HETATM   12  C13 UNL     1      19.775   1.590  48.894  1.00  0.00     0.205 C 
HETATM   13  C14 UNL     1      19.265   2.183  50.163  1.00  0.00     0.296 C 
HETATM   14  N1  UNL     1      18.071   2.992  49.836  1.00  0.00     0.085 N 
HETATM   15  C15 UNL     1      18.214   4.229  50.703  1.00  0.00     0.270 C 
HETATM   16  C16 UNL     1      19.357   4.911  50.053  1.00  0.00     0.034 C 
HETATM   17  C17 UNL     1      19.976   6.127  50.693  1.00  0.00     0.032 C 
HETATM   18  C18 UNL     1      21.128   6.407  49.758  1.00  0.00     0.014 C 
HETATM   19  C19 UNL     1      22.401   6.382  49.820  1.00  0.00     0.113 C 
HETATM   20  C20 UNL     1      23.670   6.195  50.449  1.00  0.00     0.215 C 
HETATM   21  O5  UNL     1      24.276   5.947  51.480  1.00  0.00    -0.284 OA
HETATM   22  C21 UNL     1      25.050   6.250  49.865  1.00  0.00     0.031 A 
HETATM   23  C22 UNL     1      25.758   7.459  49.765  1.00  0.00     0.016 A 
HETATM   24  C23 UNL     1      26.991   7.488  49.146  1.00  0.00     0.001 A 
HETATM   25  C24 UNL     1      27.553   6.356  48.622  1.00  0.00     0.001 A 
HETATM   26  C25 UNL     1      26.913   5.143  48.693  1.00  0.00     0.016 A 
HETATM   27  C26 UNL     1      25.696   5.106  49.302  1.00  0.00     0.029 A 
HETATM   28  C27 UNL     1      24.828   4.010  49.586  1.00  0.00     0.194 C 
HETATM   29  O6  UNL     1      25.560   2.989  49.262  1.00  0.00    -0.287 OA
HETATM   30  H13 UNL     1      18.114   3.361  48.865  1.00  0.00     0.315 HD
ENDROOT
BRANCH   1  31
HETATM   31  C2  UNL     1      22.823   2.773  47.778  1.00  0.00     0.296 C 
HETATM   32  O2  UNL     1      22.978   2.319  46.639  1.00  0.00    -0.259 OA
BRANCH  31  33
HETATM   33  O1  UNL     1      22.450   4.016  47.302  1.00  0.00    -0.322 OA
HETATM   34  C1  UNL     1      21.178   4.223  46.677  1.00  0.00     0.213 C 
ENDBRANCH  31  33
ENDBRANCH   1  31
BRANCH  19  35
HETATM   35  O4  UNL     1      22.987   6.735  48.618  1.00  0.00    -0.357 OA
HETATM   36  H21 UNL     1      22.849   6.211  47.759  1.00  0.00     0.217 HD
ENDBRANCH  19  35
TORSDOF 3
ENDMDL
MODEL 4
REMARK VINA RESULT:      -7.8      2.960      4.704
REMARK  3 active torsions:
REMARK  status: ('A' for Active; 'I' for Inactive)
REMARK    1  A    between atoms: O1_2  and  C2_3 
REMARK    2  A    between atoms: C2_3  and  C3_5 
REMARK    3  A    between atoms: C19_23  and  O4_24 
ROOT
HETATM    1  C3  UNL     1      20.661   5.198  50.684  1.00  0.00     0.087 A 
HETATM    2  C4  UNL     1      21.986   5.335  50.951  1.00  0.00     0.035 A 
HETATM    3  C5  UNL     1      22.477   6.552  50.480  1.00  0.00     0.029 A 
HETATM    4  C6  UNL     1      21.867   7.623  49.798  1.00  0.00    -0.022 A 
HETATM    5  C7  UNL     1      22.583   8.723  49.439  1.00  0.00     0.012 A 
HETATM    6  C8  UNL     1      21.823   9.660  48.784  1.00  0.00     0.001 A 
HETATM    7  C9  UNL     1      20.487   9.541  48.502  1.00  0.00     0.001 A 
HETATM    8  C10 UNL     1      19.857   8.375  48.918  1.00  0.00     0.015 A 
HETATM    9  C11 UNL     1      20.505   7.351  49.585  1.00  0.00     0.009 A 
HETATM   10  C12 UNL     1      19.967   6.169  50.027  1.00  0.00     0.097 A 
HETATM   11  O3  UNL     1      18.605   6.167  49.671  1.00  0.00    -0.347 OA
HETATM   12  C13 UNL     1      18.211   5.354  48.547  1.00  0.00     0.205 C 
HETATM   13  C14 UNL     1      18.991   5.722  47.331  1.00  0.00     0.296 C 
HETATM   14  N1  UNL     1      18.592   4.804  46.243  1.00  0.00     0.085 N 
HETATM   15  C15 UNL     1      19.893   4.484  45.532  1.00  0.00     0.270 C 
HETATM   16  C16 UNL     1      20.579   3.644  46.542  1.00  0.00     0.034 C 
HETATM   17  C17 UNL     1      22.013   3.230  46.334  1.00  0.00     0.032 C 
HETATM   18  C18 UNL     1      22.305   2.496  47.621  1.00  0.00     0.014 C 
HETATM   19  C19 UNL     1      23.057   2.666  48.636  1.00  0.00     0.113 C 
HETATM   20  C20 UNL     1      24.037   3.334  49.433  1.00  0.00     0.215 C 
HETATM   21  O5  UNL     1      24.829   4.261  49.519  1.00  0.00    -0.284 OA
HETATM   22  C21 UNL     1      24.529   3.023  50.814  1.00  0.00     0.031 A 
HETATM   23  C22 UNL     1      25.587   2.124  51.032  1.00  0.00     0.016 A 
HETATM   24  C23 UNL     1      25.960   1.795  52.319  1.00  0.00     0.001 A 
HETATM   25  C24 UNL     1      25.321   2.328  53.405  1.00  0.00     0.001 A 
HETATM   26  C25 UNL     1      24.282   3.215  53.258  1.00  0.00     0.016 A 
HETATM   27  C26 UNL     1      23.909   3.545  51.991  1.00  0.00     0.029 A 
HETATM   28  C27 UNL     1      22.930   4.468  51.517  1.00  0.00     0.194 C 
HETATM   29  O6  UNL     1      22.568   5.069  52.610  1.00  0.00    -0.287 OA
HETATM   30  H13 UNL     1      18.278   3.885  46.616  1.00  0.00     0.315 HD
ENDROOT
BRANCH   1  31
HETATM   31  C2  UNL     1      20.019   3.998  51.160  1.00  0.00     0.296 C 
HETATM   32  O2  UNL     1      19.209   3.580  51.995  1.00  0.00    -0.259 OA
BRANCH  31  33
HETATM   33  O1  UNL     1      20.235   2.734  50.642  1.00  0.00    -0.322 OA
HETATM   34  C1  UNL     1      19.249   2.083  49.832  1.00  0.00     0.213 C 
ENDBRANCH  31  33
ENDBRANCH   1  31
BRANCH  19  35
HETATM   35  O4  UNL     1      22.915   1.651  49.564  1.00  0.00    -0.357 OA
HETATM   36  H21 UNL     1      22.277   1.707  50.353  1.00  0.00     0.217 HD
ENDBRANCH  19  35
TORSDOF 3
ENDMDL
MODEL 5
REMARK VINA RESULT:      -7.6      7.217     12.150
REMARK  3 active torsions:
REMARK  status: ('A' for Active; 'I' for Inactive)
REMARK    1  A    between atoms: O1_2  and  C2_3 
REMARK    2  A    between atoms: C2_3  and  C3_5 
REMARK    3  A    between atoms: C19_23  and  O4_24 
ROOT
HETATM    1  C3  UNL     1      32.654   8.599  47.054  1.00  0.00     0.087 A 
HETATM    2  C4  UNL     1      32.256   9.185  45.895  1.00  0.00     0.035 A 
HETATM    3  C5  UNL     1      30.887   9.023  45.686  1.00  0.00     0.029 A 
HETATM    4  C6  UNL     1      29.881   8.381  46.435  1.00  0.00    -0.022 A 
HETATM    5  C7  UNL     1      28.590   8.363  46.003  1.00  0.00     0.012 A 
HETATM    6  C8  UNL     1      27.754   7.693  46.860  1.00  0.00     0.001 A 
HETATM    7  C9  UNL     1      28.134   7.093  48.032  1.00  0.00     0.001 A 
HETATM    8  C10 UNL     1      29.477   7.176  48.375  1.00  0.00     0.015 A 
HETATM    9  C11 UNL     1      30.426   7.819  47.602  1.00  0.00     0.009 A 
HETATM   10  C12 UNL     1      31.768   7.947  47.859  1.00  0.00     0.097 A 
HETATM   11  O3  UNL     1      32.028   7.287  49.074  1.00  0.00    -0.347 OA
HETATM   12  C13 UNL     1      32.667   5.996  49.008  1.00  0.00     0.205 C 
HETATM   13  C14 UNL     1      31.882   5.062  48.151  1.00  0.00     0.296 C 
HETATM   14  N1  UNL     1      32.630   3.789  48.067  1.00  0.00     0.085 N 
HETATM   15  C15 UNL     1      32.474   3.363  46.620  1.00  0.00     0.270 C 
HETATM   16  C16 UNL     1      33.308   4.371  45.926  1.00  0.00     0.034 C 
HETATM   17  C17 UNL     1      33.312   4.445  44.421  1.00  0.00     0.032 C 
HETATM   18  C18 UNL     1      34.198   5.644  44.179  1.00  0.00     0.014 C 
HETATM   19  C19 UNL     1      34.059   6.819  43.707  1.00  0.00     0.113 C 
HETATM   20  C20 UNL     1      33.348   7.911  43.120  1.00  0.00     0.215 C 
HETATM   21  O5  UNL     1      32.295   8.314  42.651  1.00  0.00    -0.284 OA
HETATM   22  C21 UNL     1      33.804   9.308  42.825  1.00  0.00     0.031 A 
HETATM   23  C22 UNL     1      34.444   9.634  41.618  1.00  0.00     0.016 A 
HETATM   24  C23 UNL     1      34.926  10.910  41.413  1.00  0.00     0.001 A 
HETATM   25  C24 UNL     1      34.796  11.883  42.367  1.00  0.00     0.001 A 
HETATM   26  C25 UNL     1      34.177  11.629  43.566  1.00  0.00     0.016 A 
HETATM   27  C26 UNL     1      33.698  10.372  43.775  1.00  0.00     0.029 A 
HETATM   28  C27 UNL     1      32.964   9.823  44.868  1.00  0.00     0.194 C 
HETATM   29  O6  UNL     1      32.703  10.876  45.580  1.00  0.00    -0.287 OA
HETATM   30  H13 UNL     1      33.653   3.941  48.175  1.00  0.00     0.315 HD
ENDROOT
BRANCH   1  31
HETATM   31  C2  UNL     1      34.044   8.732  47.410  1.00  0.00     0.296 C 
HETATM   32  O2  UNL     1      34.889   9.551  47.790  1.00  0.00    -0.259 OA
BRANCH  31  33
HETATM   33  O1  UNL     1      34.960   7.697  47.398  1.00  0.00    -0.322 OA
HETATM   34  C1  UNL     1      35.845   7.471  48.501  1.00  0.00     0.213 C 
ENDBRANCH  31  33
ENDBRANCH   1  31
BRANCH  19  35
HETATM   35  O4  UNL     1      35.245   7.531  43.729  1.00  0.00    -0.357 OA
HETATM   36  H21 UNL     1      36.108   7.158  44.111  1.00  0.00     0.217 HD
ENDBRANCH  19  35
TORSDOF 3
ENDMDL
MODEL 6
REMARK VINA RESULT:      -7.5      1.701      2.263
REMARK  3 active torsions:
REMARK  status: ('A' for Active; 'I' for Inactive)
REMARK    1  A    between atoms: O1_2  and  C2_3 
REMARK    2  A    between atoms: C2_3  and  C3_5 
REMARK    3  A    between atoms: C19_23  and  O4_24 
ROOT
HETATM    1  C3  UNL     1      23.119   7.232  49.229  1.00  0.00     0.087 A 
HETATM    2  C4  UNL     1      24.026   6.324  49.674  1.00  0.00     0.035 A 
HETATM    3  C5  UNL     1      25.259   6.482  49.041  1.00  0.00     0.029 A 
HETATM    4  C6  UNL     1      25.712   7.382  48.056  1.00  0.00    -0.022 A 
HETATM    5  C7  UNL     1      26.990   7.327  47.592  1.00  0.00     0.012 A 
HETATM    6  C8  UNL     1      27.250   8.279  46.638  1.00  0.00     0.001 A 
HETATM    7  C9  UNL     1      26.350   9.203  46.174  1.00  0.00     0.001 A 
HETATM    8  C10 UNL     1      25.073   9.167  46.720  1.00  0.00     0.015 A 
HETATM    9  C11 UNL     1      24.679   8.261  47.687  1.00  0.00     0.009 A 
HETATM   10  C12 UNL     1      23.445   8.150  48.277  1.00  0.00     0.097 A 
HETATM   11  O3  UNL     1      22.619   9.140  47.712  1.00  0.00    -0.347 OA
HETATM   12  C13 UNL     1      21.643   8.717  46.738  1.00  0.00     0.205 C 
HETATM   13  C14 UNL     1      22.300   7.989  45.615  1.00  0.00     0.296 C 
HETATM   14  N1  UNL     1      21.238   7.522  44.697  1.00  0.00     0.085 N 
HETATM   15  C15 UNL     1      21.685   6.130  44.293  1.00  0.00     0.270 C 
HETATM   16  C16 UNL     1      21.489   5.381  45.557  1.00  0.00     0.034 C 
HETATM   17  C17 UNL     1      21.976   3.960  45.679  1.00  0.00     0.032 C 
HETATM   18  C18 UNL     1      21.656   3.654  47.122  1.00  0.00     0.014 C 
HETATM   19  C19 UNL     1      22.314   3.410  48.186  1.00  0.00     0.113 C 
HETATM   20  C20 UNL     1      23.490   3.203  48.971  1.00  0.00     0.215 C 
HETATM   21  O5  UNL     1      24.708   3.107  48.986  1.00  0.00    -0.284 OA
HETATM   22  C21 UNL     1      23.636   2.994  50.448  1.00  0.00     0.031 A 
HETATM   23  C22 UNL     1      23.547   1.715  51.022  1.00  0.00     0.016 A 
HETATM   24  C23 UNL     1      23.602   1.568  52.393  1.00  0.00     0.001 A 
HETATM   25  C24 UNL     1      23.745   2.647  53.221  1.00  0.00     0.001 A 
HETATM   26  C25 UNL     1      23.842   3.923  52.722  1.00  0.00     0.016 A 
HETATM   27  C26 UNL     1      23.789   4.077  51.370  1.00  0.00     0.029 A 
HETATM   28  C27 UNL     1      23.924   5.241  50.558  1.00  0.00     0.194 C 
HETATM   29  O6  UNL     1      24.284   6.139  51.423  1.00  0.00    -0.287 OA
HETATM   30  H13 UNL     1      20.343   7.361  45.201  1.00  0.00     0.315 HD
ENDROOT
BRANCH   1  31
HETATM   31  C2  UNL     1      21.813   7.203  49.839  1.00  0.00     0.296 C 
HETATM   32  O2  UNL     1      21.081   7.813  50.626  1.00  0.00    -0.259 OA
BRANCH  31  33
HETATM   33  O1  UNL     1      20.859   6.231  49.604  1.00  0.00    -0.322 OA
HETATM   34  C1  UNL     1      19.539   6.572  49.168  1.00  0.00     0.213 C 
ENDBRANCH  31  33
ENDBRANCH   1  31
BRANCH  19  35
HETATM   35  O4  UNL     1      21.485   3.202  49.274  1.00  0.00    -0.357 OA
HETATM   36  H21 UNL     1      21.834   3.035  50.213  1.00  0.00     0.217 HD
ENDBRANCH  19  35
TORSDOF 3
ENDMDL
MODEL 7
REMARK VINA RESULT:      -7.5      4.481      9.286
REMARK  3 active torsions:
REMARK  status: ('A' for Active; 'I' for Inactive)
REMARK    1  A    between atoms: O1_2  and  C2_3 
REMARK    2  A    between atoms: C2_3  and  C3_5 
REMARK    3  A    between atoms: C19_23  and  O4_24 
ROOT
HETATM    1  C3  UNL     1      27.518   9.716  47.472  1.00  0.00     0.087 A 
HETATM    2  C4  UNL     1      28.208   9.864  46.311  1.00  0.00     0.035 A 
HETATM    3  C5  UNL     1      27.486   9.372  45.224  1.00  0.00     0.029 A 
HETATM    4  C6  UNL     1      26.217   8.769  45.120  1.00  0.00    -0.022 A 
HETATM    5  C7  UNL     1      25.730   8.366  43.915  1.00  0.00     0.012 A 
HETATM    6  C8  UNL     1      24.482   7.802  44.009  1.00  0.00     0.001 A 
HETATM    7  C9  UNL     1      23.770   7.642  45.169  1.00  0.00     0.001 A 
HETATM    8  C10 UNL     1      24.365   8.091  46.341  1.00  0.00     0.015 A 
HETATM    9  C11 UNL     1      25.617   8.677  46.387  1.00  0.00     0.009 A 
HETATM   10  C12 UNL     1      26.281   9.145  47.493  1.00  0.00     0.097 A 
HETATM   11  O3  UNL     1      25.455   8.915  48.609  1.00  0.00    -0.347 OA
HETATM   12  C13 UNL     1      25.798   7.817  49.478  1.00  0.00     0.205 C 
HETATM   13  C14 UNL     1      25.877   6.542  48.710  1.00  0.00     0.296 C 
HETATM   14  N1  UNL     1      26.305   5.477  49.644  1.00  0.00     0.085 N 
HETATM   15  C15 UNL     1      27.280   4.645  48.835  1.00  0.00     0.270 C 
HETATM   16  C16 UNL     1      28.431   5.571  48.720  1.00  0.00     0.034 C 
HETATM   17  C17 UNL     1      29.596   5.225  47.829  1.00  0.00     0.032 C 
HETATM   18  C18 UNL     1      30.448   6.465  47.950  1.00  0.00     0.014 C 
HETATM   19  C19 UNL     1      30.826   7.409  47.182  1.00  0.00     0.113 C 
HETATM   20  C20 UNL     1      30.922   8.126  45.949  1.00  0.00     0.215 C 
HETATM   21  O5  UNL     1      30.650   8.157  44.758  1.00  0.00    -0.284 OA
HETATM   22  C21 UNL     1      31.559   9.449  45.652  1.00  0.00     0.031 A 
HETATM   23  C22 UNL     1      32.921   9.553  45.324  1.00  0.00     0.016 A 
HETATM   24  C23 UNL     1      33.495  10.793  45.140  1.00  0.00     0.001 A 
HETATM   25  C24 UNL     1      32.765  11.943  45.267  1.00  0.00     0.001 A 
HETATM   26  C25 UNL     1      31.429  11.909  45.583  1.00  0.00     0.016 A 
HETATM   27  C26 UNL     1      30.854  10.688  45.766  1.00  0.00     0.029 A 
HETATM   28  C27 UNL     1      29.501  10.324  46.033  1.00  0.00     0.194 C 
HETATM   29  O6  UNL     1      28.881  11.456  45.898  1.00  0.00    -0.287 OA
HETATM   30  H13 UNL     1      26.884   5.860  50.418  1.00  0.00     0.315 HD
ENDROOT
BRANCH   1  31
HETATM   31  C2  UNL     1      28.138  10.226  48.669  1.00  0.00     0.296 C 
HETATM   32  O2  UNL     1      28.986   9.960  49.529  1.00  0.00    -0.259 OA
BRANCH  31  33
HETATM   33  O1  UNL     1      27.830  11.439  49.256  1.00  0.00    -0.322 OA
HETATM   34  C1  UNL     1      28.595  12.617  48.978  1.00  0.00     0.213 C 
ENDBRANCH  31  33
ENDBRANCH   1  31
BRANCH  19  35
HETATM   35  O4  UNL     1      31.623   8.328  47.841  1.00  0.00    -0.357 OA
HETATM   36  H21 UNL     1      31.388   9.314  47.914  1.00  0.00     0.217 HD
ENDBRANCH  19  35
TORSDOF 3
ENDMDL
MODEL 8
REMARK VINA RESULT:      -7.1     26.065     28.776
REMARK  3 active torsions:
REMARK  status: ('A' for Active; 'I' for Inactive)
REMARK    1  A    between atoms: O1_2  and  C2_3 
REMARK    2  A    between atoms: C2_3  and  C3_5 
REMARK    3  A    between atoms: C19_23  and  O4_24 
ROOT
HETATM    1  C3  UNL     1      41.563  -1.196  68.206  1.00  0.00     0.087 A 
HETATM    2  C4  UNL     1      42.645  -0.571  68.740  1.00  0.00     0.035 A 
HETATM    3  C5  UNL     1      43.381  -1.433  69.552  1.00  0.00     0.029 A 
HETATM    4  C6  UNL     1      43.207  -2.785  69.906  1.00  0.00    -0.022 A 
HETATM    5  C7  UNL     1      44.086  -3.410  70.736  1.00  0.00     0.012 A 
HETATM    6  C8  UNL     1      43.756  -4.722  70.968  1.00  0.00     0.001 A 
HETATM    7  C9  UNL     1      42.669  -5.371  70.441  1.00  0.00     0.001 A 
HETATM    8  C10 UNL     1      41.840  -4.635  69.605  1.00  0.00     0.015 A 
HETATM    9  C11 UNL     1      42.057  -3.306  69.289  1.00  0.00     0.009 A 
HETATM   10  C12 UNL     1      41.293  -2.503  68.480  1.00  0.00     0.097 A 
HETATM   11  O3  UNL     1      40.214  -3.278  68.015  1.00  0.00    -0.347 OA
HETATM   12  C13 UNL     1      38.924  -3.055  68.619  1.00  0.00     0.205 C 
HETATM   13  C14 UNL     1      38.996  -3.230  70.097  1.00  0.00     0.296 C 
HETATM   14  N1  UNL     1      37.664  -2.914  70.656  1.00  0.00     0.085 N 
HETATM   15  C15 UNL     1      37.968  -2.139  71.923  1.00  0.00     0.270 C 
HETATM   16  C16 UNL     1      38.490  -0.867  71.371  1.00  0.00     0.034 C 
HETATM   17  C17 UNL     1      39.092   0.166  72.287  1.00  0.00     0.032 C 
HETATM   18  C18 UNL     1      39.559   1.210  71.301  1.00  0.00     0.014 C 
HETATM   19  C19 UNL     1      40.676   1.679  70.907  1.00  0.00     0.113 C 
HETATM   20  C20 UNL     1      42.100   1.804  70.880  1.00  0.00     0.215 C 
HETATM   21  O5  UNL     1      43.168   1.460  71.364  1.00  0.00    -0.284 OA
HETATM   22  C21 UNL     1      42.977   2.621  69.980  1.00  0.00     0.031 A 
HETATM   23  C22 UNL     1      43.294   3.957  70.278  1.00  0.00     0.016 A 
HETATM   24  C23 UNL     1      44.034   4.706  69.386  1.00  0.00     0.001 A 
HETATM   25  C24 UNL     1      44.476   4.176  68.204  1.00  0.00     0.001 A 
HETATM   26  C25 UNL     1      44.203   2.876  67.858  1.00  0.00     0.016 A 
HETATM   27  C26 UNL     1      43.474   2.130  68.732  1.00  0.00     0.029 A 
HETATM   28  C27 UNL     1      43.088   0.757  68.692  1.00  0.00     0.194 C 
HETATM   29  O6  UNL     1      43.751   0.316  67.667  1.00  0.00    -0.287 OA
HETATM   30  H13 UNL     1      37.154  -2.231  70.060  1.00  0.00     0.315 HD
ENDROOT
BRANCH   1  31
HETATM   31  C2  UNL     1      40.740  -0.424  67.309  1.00  0.00     0.296 C 
HETATM   32  O2  UNL     1      40.453  -0.279  66.115  1.00  0.00    -0.259 OA
BRANCH  31  33
HETATM   33  O1  UNL     1      39.872   0.576  67.705  1.00  0.00    -0.322 OA
HETATM   34  C1  UNL     1      38.484   0.310  67.936  1.00  0.00     0.213 C 
ENDBRANCH  31  33
ENDBRANCH   1  31
BRANCH  19  35
HETATM   35  O4  UNL     1      40.518   2.654  69.938  1.00  0.00    -0.357 OA
HETATM   36  H21 UNL     1      40.595   3.647  70.134  1.00  0.00     0.217 HD
ENDBRANCH  19  35
TORSDOF 3
ENDMDL
MODEL 9
REMARK VINA RESULT:      -7.1      5.300      7.741
REMARK  3 active torsions:
REMARK  status: ('A' for Active; 'I' for Inactive)
REMARK    1  A    between atoms: O1_2  and  C2_3 
REMARK    2  A    between atoms: C2_3  and  C3_5 
REMARK    3  A    between atoms: C19_23  and  O4_24 
ROOT
HETATM    1  C3  UNL     1      28.280   9.158  48.367  1.00  0.00     0.087 A 
HETATM    2  C4  UNL     1      27.739   8.224  47.542  1.00  0.00     0.035 A 
HETATM    3  C5  UNL     1      28.610   7.152  47.347  1.00  0.00     0.029 A 
HETATM    4  C6  UNL     1      29.904   6.879  47.833  1.00  0.00    -0.022 A 
HETATM    5  C7  UNL     1      30.556   5.736  47.483  1.00  0.00     0.012 A 
HETATM    6  C8  UNL     1      31.802   5.642  48.051  1.00  0.00     0.001 A 
HETATM    7  C9  UNL     1      32.367   6.572  48.883  1.00  0.00     0.001 A 
HETATM    8  C10 UNL     1      31.609   7.700  49.173  1.00  0.00     0.015 A 
HETATM    9  C11 UNL     1      30.341   7.921  48.668  1.00  0.00     0.009 A 
HETATM   10  C12 UNL     1      29.526   9.000  48.896  1.00  0.00     0.097 A 
HETATM   11  O3  UNL     1      30.219   9.879  49.750  1.00  0.00    -0.347 OA
HETATM   12  C13 UNL     1      30.795  11.063  49.163  1.00  0.00     0.205 C 
HETATM   13  C14 UNL     1      31.717  10.704  48.048  1.00  0.00     0.296 C 
HETATM   14  N1  UNL     1      32.210  11.962  47.446  1.00  0.00     0.085 N 
HETATM   15  C15 UNL     1      32.208  11.686  45.955  1.00  0.00     0.270 C 
HETATM   16  C16 UNL     1      30.754  11.640  45.668  1.00  0.00     0.034 C 
HETATM   17  C17 UNL     1      30.264  11.212  44.310  1.00  0.00     0.032 C 
HETATM   18  C18 UNL     1      28.767  11.225  44.511  1.00  0.00     0.014 C 
HETATM   19  C19 UNL     1      27.827  10.364  44.535  1.00  0.00     0.113 C 
HETATM   20  C20 UNL     1      27.255   9.058  44.446  1.00  0.00     0.215 C 
HETATM   21  O5  UNL     1      27.439   7.872  44.215  1.00  0.00    -0.284 OA
HETATM   22  C21 UNL     1      25.848   8.605  44.694  1.00  0.00     0.031 A 
HETATM   23  C22 UNL     1      24.877   8.632  43.679  1.00  0.00     0.016 A 
HETATM   24  C23 UNL     1      23.572   8.289  43.962  1.00  0.00     0.001 A 
HETATM   25  C24 UNL     1      23.190   7.914  45.222  1.00  0.00     0.001 A 
HETATM   26  C25 UNL     1      24.092   7.863  46.256  1.00  0.00     0.016 A 
HETATM   27  C26 UNL     1      25.383   8.201  45.985  1.00  0.00     0.029 A 
HETATM   28  C27 UNL     1      26.545   8.186  46.811  1.00  0.00     0.194 C 
HETATM   29  O6  UNL     1      26.110   7.602  47.886  1.00  0.00    -0.287 OA
HETATM   30  H13 UNL     1      31.522  12.734  47.560  1.00  0.00     0.315 HD
ENDROOT
BRANCH   1  31
HETATM   31  C2  UNL     1      27.460  10.300  48.687  1.00  0.00     0.296 C 
HETATM   32  O2  UNL     1      26.727  10.771  49.563  1.00  0.00    -0.259 OA
BRANCH  31  33
HETATM   33  O1  UNL     1      27.279  11.392  47.859  1.00  0.00    -0.322 OA
HETATM   34  C1  UNL     1      27.675  12.707  48.264  1.00  0.00     0.213 C 
ENDBRANCH  31  33
ENDBRANCH   1  31
BRANCH  19  35
HETATM   35  O4  UNL     1      26.596  10.947  44.779  1.00  0.00    -0.357 OA
HETATM   36  H21 UNL     1      25.810  10.867  44.142  1.00  0.00     0.217 HD
ENDBRANCH  19  35
TORSDOF 3
ENDMDL
