MODEL 1
REMARK VINA RESULT:      -8.6      0.000      0.000
REMARK  6 active torsions:
REMARK  status: ('A' for Active; 'I' for Inactive)
REMARK    1  A    between atoms: N1_4  and  C3_5 
REMARK    2  A    between atoms: C8_12  and  C9_13 
REMARK    3  A    between atoms: C9_13  and  C10_14 
REMARK    4  A    between atoms: C11_15  and  C12_16 
REMARK    5  A    between atoms: C12_16  and  C13_17 
REMARK    6  A    between atoms: C13_17  and  N4_18 
ROOT
HETATM    1  C3  UNL     1      23.504   0.113  53.294  1.00  0.00     0.144 A 
HETATM    2  N2  UNL     1      23.125  -0.638  54.354  1.00  0.00    -0.223 NA
HETATM    3  C4  UNL     1      21.840  -1.081  54.466  1.00  0.00     0.236 A 
HETATM    4  N3  UNL     1      20.896  -0.788  53.524  1.00  0.00    -0.241 NA
HETATM    5  C5  UNL     1      21.244  -0.043  52.459  1.00  0.00     0.072 A 
HETATM    6  C6  UNL     1      20.395   0.334  51.436  1.00  0.00     0.033 A 
HETATM    7  C7  UNL     1      20.824   1.105  50.376  1.00  0.00     0.010 A 
HETATM    8  C8  UNL     1      22.151   1.541  50.298  1.00  0.00    -0.046 A 
HETATM    9  C18 UNL     1      23.005   1.176  51.306  1.00  0.00     0.025 A 
HETATM   10  C19 UNL     1      22.543   0.403  52.349  1.00  0.00     0.039 A 
ENDROOT
BRANCH   8  11
HETATM   11  C9  UNL     1      22.596   2.373  49.148  1.00  0.00     0.132 C 
BRANCH  11  12
HETATM   12  C10 UNL     1      23.930   2.952  49.389  1.00  0.00    -0.102 C 
HETATM   13  C11 UNL     1      25.039   3.435  49.567  1.00  0.00    -0.105 C 
BRANCH  13  14
HETATM   14  C12 UNL     1      26.366   4.024  49.757  1.00  0.00     0.124 C 
BRANCH  14  15
HETATM   15  C13 UNL     1      26.489   5.350  49.054  1.00  0.00     0.284 C 
BRANCH  15  16
HETATM   16  N4  UNL     1      25.327   6.194  49.231  1.00  0.00     0.093 N 
HETATM   17  C14 UNL     1      25.237   7.050  48.060  1.00  0.00     0.298 C 
HETATM   18  C15 UNL     1      24.755   8.444  48.429  1.00  0.00     0.198 C 
HETATM   19  O1  UNL     1      25.656   9.105  49.259  1.00  0.00    -0.388 OA
HETATM   20  C16 UNL     1      26.412   8.180  50.014  1.00  0.00     0.198 C 
HETATM   21  C17 UNL     1      25.460   7.068  50.378  1.00  0.00     0.298 C 
ENDBRANCH  15  16
ENDBRANCH  14  15
ENDBRANCH  13  14
ENDBRANCH  11  12
ENDBRANCH   8  11
BRANCH   1  22
HETATM   22  N1  UNL     1      24.870   0.448  53.352  1.00  0.00    -0.335 N 
HETATM   23  C2  UNL     1      25.651  -0.745  53.139  1.00  0.00     0.137 A 
HETATM   24  C1  UNL     1      26.992  -0.809  53.150  1.00  0.00     0.153 A 
HETATM   25  F1  UNL     1      27.760  -1.912  52.955  1.00  0.00    -0.203 F 
HETATM   26  C22 UNL     1      27.760   0.420  53.389  1.00  0.00     0.071 A 
HETATM   27  C21 UNL     1      27.010   1.494  53.570  1.00  0.00     0.020 A 
HETATM   28 CL1  UNL     1      29.506   0.528  53.440  1.00  0.00    -0.081 Cl
HETATM   29  C20 UNL     1      25.549   1.690  53.577  1.00  0.00     0.159 A 
ENDBRANCH   1  22
TORSDOF 6
ENDMDL
MODEL 2
REMARK VINA RESULT:      -8.5      2.867      4.269
REMARK  6 active torsions:
REMARK  status: ('A' for Active; 'I' for Inactive)
REMARK    1  A    between atoms: N1_4  and  C3_5 
REMARK    2  A    between atoms: C8_12  and  C9_13 
REMARK    3  A    between atoms: C9_13  and  C10_14 
REMARK    4  A    between atoms: C11_15  and  C12_16 
REMARK    5  A    between atoms: C12_16  and  C13_17 
REMARK    6  A    between atoms: C13_17  and  N4_18 
ROOT
HETATM    1  C3  UNL     1      25.376   1.835  52.269  1.00  0.00     0.144 A 
HETATM    2  N2  UNL     1      24.298   1.474  53.004  1.00  0.00    -0.223 NA
HETATM    3  C4  UNL     1      23.075   2.027  52.757  1.00  0.00     0.236 A 
HETATM    4  N3  UNL     1      22.892   2.953  51.771  1.00  0.00    -0.241 NA
HETATM    5  C5  UNL     1      23.946   3.330  51.025  1.00  0.00     0.072 A 
HETATM    6  C6  UNL     1      23.910   4.258  50.002  1.00  0.00     0.033 A 
HETATM    7  C7  UNL     1      25.036   4.599  49.282  1.00  0.00     0.010 A 
HETATM    8  C8  UNL     1      26.273   4.011  49.567  1.00  0.00    -0.046 A 
HETATM    9  C18 UNL     1      26.326   3.088  50.579  1.00  0.00     0.025 A 
HETATM   10  C19 UNL     1      25.181   2.771  51.277  1.00  0.00     0.039 A 
ENDROOT
BRANCH   8  11
HETATM   11  C9  UNL     1      27.478   4.390  48.781  1.00  0.00     0.132 C 
BRANCH  11  12
HETATM   12  C10 UNL     1      27.523   5.843  48.537  1.00  0.00    -0.102 C 
HETATM   13  C11 UNL     1      27.583   7.046  48.329  1.00  0.00    -0.105 C 
BRANCH  13  14
HETATM   14  C12 UNL     1      27.676   8.484  48.068  1.00  0.00     0.124 C 
BRANCH  14  15
HETATM   15  C13 UNL     1      28.340   9.211  49.207  1.00  0.00     0.284 C 
BRANCH  15  16
HETATM   16  N4  UNL     1      29.458  10.026  48.784  1.00  0.00     0.093 N 
HETATM   17  C14 UNL     1      29.777   9.641  47.419  1.00  0.00     0.298 C 
HETATM   18  C15 UNL     1      31.276   9.666  47.172  1.00  0.00     0.198 C 
HETATM   19  O1  UNL     1      31.949   8.730  47.952  1.00  0.00    -0.388 OA
HETATM   20  C16 UNL     1      31.233   8.458  49.139  1.00  0.00     0.198 C 
HETATM   21  C17 UNL     1      30.644   9.777  49.576  1.00  0.00     0.298 C 
ENDBRANCH  15  16
ENDBRANCH  14  15
ENDBRANCH  13  14
ENDBRANCH  11  12
ENDBRANCH   8  11
BRANCH   1  22
HETATM   22  N1  UNL     1      26.533   1.137  52.663  1.00  0.00    -0.335 N 
HETATM   23  C2  UNL     1      26.359  -0.262  52.361  1.00  0.00     0.137 A 
HETATM   24  C1  UNL     1      27.251  -1.232  52.621  1.00  0.00     0.153 A 
HETATM   25  F1  UNL     1      27.120  -2.557  52.353  1.00  0.00    -0.203 F 
HETATM   26  C22 UNL     1      28.524  -0.872  53.258  1.00  0.00     0.071 A 
HETATM   27  C21 UNL     1      28.652   0.419  53.510  1.00  0.00     0.020 A 
HETATM   28 CL1  UNL     1      29.800  -1.997  53.672  1.00  0.00    -0.081 Cl
HETATM   29  C20 UNL     1      27.757   1.566  53.273  1.00  0.00     0.159 A 
ENDBRANCH   1  22
TORSDOF 6
ENDMDL
MODEL 3
REMARK VINA RESULT:      -8.4      3.895      6.518
REMARK  6 active torsions:
REMARK  status: ('A' for Active; 'I' for Inactive)
REMARK    1  A    between atoms: N1_4  and  C3_5 
REMARK    2  A    between atoms: C8_12  and  C9_13 
REMARK    3  A    between atoms: C9_13  and  C10_14 
REMARK    4  A    between atoms: C11_15  and  C12_16 
REMARK    5  A    between atoms: C12_16  and  C13_17 
REMARK    6  A    between atoms: C13_17  and  N4_18 
ROOT
HETATM    1  C3  UNL     1      19.815   1.497  50.707  1.00  0.00     0.144 A 
HETATM    2  N2  UNL     1      18.914   1.935  49.796  1.00  0.00    -0.223 NA
HETATM    3  C4  UNL     1      17.647   1.432  49.778  1.00  0.00     0.236 A 
HETATM    4  N3  UNL     1      17.241   0.477  50.666  1.00  0.00    -0.241 NA
HETATM    5  C5  UNL     1      18.115   0.023  51.582  1.00  0.00     0.072 A 
HETATM    6  C6  UNL     1      17.846  -0.940  52.535  1.00  0.00     0.033 A 
HETATM    7  C7  UNL     1      18.797  -1.360  53.441  1.00  0.00     0.010 A 
HETATM    8  C8  UNL     1      20.087  -0.820  53.428  1.00  0.00    -0.046 A 
HETATM    9  C18 UNL     1      20.371   0.137  52.488  1.00  0.00     0.025 A 
HETATM   10  C19 UNL     1      19.395   0.534  51.599  1.00  0.00     0.039 A 
ENDROOT
BRANCH   8  11
HETATM   11  C9  UNL     1      21.101  -1.284  54.412  1.00  0.00     0.132 C 
BRANCH  11  12
HETATM   12  C10 UNL     1      22.460  -0.880  54.013  1.00  0.00    -0.102 C 
HETATM   13  C11 UNL     1      23.584  -0.523  53.689  1.00  0.00    -0.105 C 
BRANCH  13  14
HETATM   14  C12 UNL     1      24.926  -0.075  53.313  1.00  0.00     0.124 C 
BRANCH  14  15
HETATM   15  C13 UNL     1      25.956  -0.502  54.324  1.00  0.00     0.284 C 
BRANCH  15  16
HETATM   16  N4  UNL     1      26.810   0.583  54.757  1.00  0.00     0.093 N 
HETATM   17  C14 UNL     1      26.742   1.614  53.735  1.00  0.00     0.298 C 
HETATM   18  C15 UNL     1      28.089   2.292  53.542  1.00  0.00     0.198 C 
HETATM   19  O1  UNL     1      29.053   1.410  53.064  1.00  0.00    -0.388 OA
HETATM   20  C16 UNL     1      28.755   0.084  53.452  1.00  0.00     0.198 C 
HETATM   21  C17 UNL     1      28.197   0.179  54.851  1.00  0.00     0.298 C 
ENDBRANCH  15  16
ENDBRANCH  14  15
ENDBRANCH  13  14
ENDBRANCH  11  12
ENDBRANCH   8  11
BRANCH   1  22
HETATM   22  N1  UNL     1      21.053   2.156  50.576  1.00  0.00    -0.335 N 
HETATM   23  C2  UNL     1      20.972   3.433  51.238  1.00  0.00     0.137 A 
HETATM   24  C1  UNL     1      21.959   4.344  51.296  1.00  0.00     0.153 A 
HETATM   25  F1  UNL     1      21.919   5.556  51.907  1.00  0.00    -0.203 F 
HETATM   26  C22 UNL     1      23.242   4.041  50.650  1.00  0.00     0.071 A 
HETATM   27  C21 UNL     1      23.281   2.857  50.063  1.00  0.00     0.020 A 
HETATM   28 CL1  UNL     1      24.635   5.101  50.621  1.00  0.00    -0.081 Cl
HETATM   29  C20 UNL     1      22.279   1.784  49.934  1.00  0.00     0.159 A 
ENDBRANCH   1  22
TORSDOF 6
ENDMDL
MODEL 4
REMARK VINA RESULT:      -8.3      2.826      4.536
REMARK  6 active torsions:
REMARK  status: ('A' for Active; 'I' for Inactive)
REMARK    1  A    between atoms: N1_4  and  C3_5 
REMARK    2  A    between atoms: C8_12  and  C9_13 
REMARK    3  A    between atoms: C9_13  and  C10_14 
REMARK    4  A    between atoms: C11_15  and  C12_16 
REMARK    5  A    between atoms: C12_16  and  C13_17 
REMARK    6  A    between atoms: C13_17  and  N4_18 
ROOT
HETATM    1  C3  UNL     1      22.106   0.482  52.953  1.00  0.00     0.144 A 
HETATM    2  N2  UNL     1      20.958  -0.135  53.317  1.00  0.00    -0.223 NA
HETATM    3  C4  UNL     1      20.964  -1.097  54.285  1.00  0.00     0.236 A 
HETATM    4  N3  UNL     1      22.116  -1.469  54.917  1.00  0.00    -0.241 NA
HETATM    5  C5  UNL     1      23.272  -0.873  54.576  1.00  0.00     0.072 A 
HETATM    6  C6  UNL     1      24.508  -1.152  55.125  1.00  0.00     0.033 A 
HETATM    7  C7  UNL     1      25.654  -0.501  54.720  1.00  0.00     0.010 A 
HETATM    8  C8  UNL     1      25.606   0.479  53.722  1.00  0.00    -0.046 A 
HETATM    9  C18 UNL     1      24.387   0.768  53.167  1.00  0.00     0.025 A 
HETATM   10  C19 UNL     1      23.262   0.098  53.597  1.00  0.00     0.039 A 
ENDROOT
BRANCH   8  11
HETATM   11  C9  UNL     1      26.852   1.172  53.296  1.00  0.00     0.132 C 
BRANCH  11  12
HETATM   12  C10 UNL     1      26.674   1.845  51.998  1.00  0.00    -0.102 C 
HETATM   13  C11 UNL     1      26.526   2.423  50.931  1.00  0.00    -0.105 C 
BRANCH  13  14
HETATM   14  C12 UNL     1      26.355   3.137  49.664  1.00  0.00     0.124 C 
BRANCH  14  15
HETATM   15  C13 UNL     1      25.025   3.839  49.599  1.00  0.00     0.284 C 
BRANCH  15  16
HETATM   16  N4  UNL     1      25.086   5.104  48.899  1.00  0.00     0.093 N 
HETATM   17  C14 UNL     1      26.435   5.619  49.061  1.00  0.00     0.298 C 
HETATM   18  C15 UNL     1      26.435   7.131  49.219  1.00  0.00     0.198 C 
HETATM   19  O1  UNL     1      25.780   7.534  50.378  1.00  0.00    -0.388 OA
HETATM   20  C16 UNL     1      24.805   6.586  50.758  1.00  0.00     0.198 C 
HETATM   21  C17 UNL     1      24.192   6.087  49.473  1.00  0.00     0.298 C 
ENDBRANCH  15  16
ENDBRANCH  14  15
ENDBRANCH  13  14
ENDBRANCH  11  12
ENDBRANCH   8  11
BRANCH   1  22
HETATM   22  N1  UNL     1      21.884   1.455  51.960  1.00  0.00    -0.335 N 
HETATM   23  C2  UNL     1      21.847   0.807  50.673  1.00  0.00     0.137 A 
HETATM   24  C1  UNL     1      21.679   1.428  49.494  1.00  0.00     0.153 A 
HETATM   25  F1  UNL     1      21.640   0.852  48.265  1.00  0.00    -0.203 F 
HETATM   26  C22 UNL     1      21.506   2.886  49.477  1.00  0.00     0.071 A 
HETATM   27  C21 UNL     1      21.535   3.443  50.676  1.00  0.00     0.020 A 
HETATM   28 CL1  UNL     1      21.276   3.861  48.042  1.00  0.00    -0.081 Cl
HETATM   29  C20 UNL     1      21.708   2.876  52.026  1.00  0.00     0.159 A 
ENDBRANCH   1  22
TORSDOF 6
ENDMDL
MODEL 5
REMARK VINA RESULT:      -8.3      1.229      1.722
REMARK  6 active torsions:
REMARK  status: ('A' for Active; 'I' for Inactive)
REMARK    1  A    between atoms: N1_4  and  C3_5 
REMARK    2  A    between atoms: C8_12  and  C9_13 
REMARK    3  A    between atoms: C9_13  and  C10_14 
REMARK    4  A    between atoms: C11_15  and  C12_16 
REMARK    5  A    between atoms: C12_16  and  C13_17 
REMARK    6  A    between atoms: C13_17  and  N4_18 
ROOT
HETATM    1  C3  UNL     1      24.118  -0.126  53.714  1.00  0.00     0.144 A 
HETATM    2  N2  UNL     1      23.645  -0.905  54.715  1.00  0.00    -0.223 NA
HETATM    3  C4  UNL     1      22.306  -1.126  54.848  1.00  0.00     0.236 A 
HETATM    4  N3  UNL     1      21.400  -0.577  53.986  1.00  0.00    -0.241 NA
HETATM    5  C5  UNL     1      21.841   0.201  52.982  1.00  0.00     0.072 A 
HETATM    6  C6  UNL     1      21.042   0.823  52.042  1.00  0.00     0.033 A 
HETATM    7  C7  UNL     1      21.567   1.613  51.041  1.00  0.00     0.010 A 
HETATM    8  C8  UNL     1      22.948   1.816  50.939  1.00  0.00    -0.046 A 
HETATM    9  C18 UNL     1      23.755   1.206  51.864  1.00  0.00     0.025 A 
HETATM   10  C19 UNL     1      23.196   0.422  52.850  1.00  0.00     0.039 A 
ENDROOT
BRANCH   8  11
HETATM   11  C9  UNL     1      23.498   2.671  49.853  1.00  0.00     0.132 C 
BRANCH  11  12
HETATM   12  C10 UNL     1      23.713   4.054  50.316  1.00  0.00    -0.102 C 
HETATM   13  C11 UNL     1      23.881   5.195  50.719  1.00  0.00    -0.105 C 
BRANCH  13  14
HETATM   14  C12 UNL     1      24.077   6.556  51.225  1.00  0.00     0.124 C 
BRANCH  14  15
HETATM   15  C13 UNL     1      24.698   7.449  50.184  1.00  0.00     0.284 C 
BRANCH  15  16
HETATM   16  N4  UNL     1      26.135   7.305  50.098  1.00  0.00     0.093 N 
HETATM   17  C14 UNL     1      26.700   8.644  50.078  1.00  0.00     0.298 C 
HETATM   18  C15 UNL     1      27.906   8.723  49.157  1.00  0.00     0.198 C 
HETATM   19  O1  UNL     1      27.566   8.481  47.830  1.00  0.00    -0.388 OA
HETATM   20  C16 UNL     1      26.418   7.662  47.748  1.00  0.00     0.198 C 
HETATM   21  C17 UNL     1      26.545   6.661  48.869  1.00  0.00     0.298 C 
ENDBRANCH  15  16
ENDBRANCH  14  15
ENDBRANCH  13  14
ENDBRANCH  11  12
ENDBRANCH   8  11
BRANCH   1  22
HETATM   22  N1  UNL     1      25.524  -0.043  53.736  1.00  0.00    -0.335 N 
HETATM   23  C2  UNL     1      26.070  -1.247  53.164  1.00  0.00     0.137 A 
HETATM   24  C1  UNL     1      27.378  -1.528  53.043  1.00  0.00     0.153 A 
HETATM   25  F1  UNL     1      27.929  -2.650  52.512  1.00  0.00    -0.203 F 
HETATM   26  C22 UNL     1      28.361  -0.545  53.515  1.00  0.00     0.071 A 
HETATM   27  C21 UNL     1      27.823   0.550  54.024  1.00  0.00     0.020 A 
HETATM   28 CL1  UNL     1      30.100  -0.737  53.441  1.00  0.00    -0.081 Cl
HETATM   29  C20 UNL     1      26.422   0.970  54.206  1.00  0.00     0.159 A 
ENDBRANCH   1  22
TORSDOF 6
ENDMDL
MODEL 6
REMARK VINA RESULT:      -8.1      3.072      4.742
REMARK  6 active torsions:
REMARK  status: ('A' for Active; 'I' for Inactive)
REMARK    1  A    between atoms: N1_4  and  C3_5 
REMARK    2  A    between atoms: C8_12  and  C9_13 
REMARK    3  A    between atoms: C9_13  and  C10_14 
REMARK    4  A    between atoms: C11_15  and  C12_16 
REMARK    5  A    between atoms: C12_16  and  C13_17 
REMARK    6  A    between atoms: C13_17  and  N4_18 
ROOT
HETATM    1  C3  UNL     1      22.041   0.315  52.813  1.00  0.00     0.144 A 
HETATM    2  N2  UNL     1      20.910  -0.073  53.447  1.00  0.00    -0.223 NA
HETATM    3  C4  UNL     1      20.975  -0.807  54.595  1.00  0.00     0.236 A 
HETATM    4  N3  UNL     1      22.170  -1.174  55.144  1.00  0.00    -0.241 NA
HETATM    5  C5  UNL     1      23.311  -0.802  54.536  1.00  0.00     0.072 A 
HETATM    6  C6  UNL     1      24.586  -1.107  54.974  1.00  0.00     0.033 A 
HETATM    7  C7  UNL     1      25.712  -0.694  54.293  1.00  0.00     0.010 A 
HETATM    8  C8  UNL     1      25.603   0.057  53.117  1.00  0.00    -0.046 A 
HETATM    9  C18 UNL     1      24.345   0.366  52.669  1.00  0.00     0.025 A 
HETATM   10  C19 UNL     1      23.242  -0.061  53.376  1.00  0.00     0.039 A 
ENDROOT
BRANCH   8  11
HETATM   11  C9  UNL     1      26.828   0.493  52.395  1.00  0.00     0.132 C 
BRANCH  11  12
HETATM   12  C10 UNL     1      26.550   1.638  51.510  1.00  0.00    -0.102 C 
HETATM   13  C11 UNL     1      26.316   2.601  50.794  1.00  0.00    -0.105 C 
BRANCH  13  14
HETATM   14  C12 UNL     1      26.038   3.769  49.956  1.00  0.00     0.124 C 
BRANCH  14  15
HETATM   15  C13 UNL     1      24.571   4.106  49.944  1.00  0.00     0.284 C 
BRANCH  15  16
HETATM   16  N4  UNL     1      24.277   5.331  49.232  1.00  0.00     0.093 N 
HETATM   17  C14 UNL     1      25.540   6.016  49.017  1.00  0.00     0.298 C 
HETATM   18  C15 UNL     1      25.382   7.522  49.143  1.00  0.00     0.198 C 
HETATM   19  O1  UNL     1      25.008   7.902  50.429  1.00  0.00    -0.388 OA
HETATM   20  C16 UNL     1      24.302   6.861  51.073  1.00  0.00     0.198 C 
HETATM   21  C17 UNL     1      23.444   6.225  50.008  1.00  0.00     0.298 C 
ENDBRANCH  15  16
ENDBRANCH  14  15
ENDBRANCH  13  14
ENDBRANCH  11  12
ENDBRANCH   8  11
BRANCH   1  22
HETATM   22  N1  UNL     1      21.761   1.081  51.665  1.00  0.00    -0.335 N 
HETATM   23  C2  UNL     1      21.447   2.428  52.069  1.00  0.00     0.137 A 
HETATM   24  C1  UNL     1      21.105   3.429  51.242  1.00  0.00     0.153 A 
HETATM   25  F1  UNL     1      20.802   4.707  51.586  1.00  0.00    -0.203 F 
HETATM   26  C22 UNL     1      21.045   3.168  49.799  1.00  0.00     0.071 A 
HETATM   27  C21 UNL     1      21.349   1.925  49.465  1.00  0.00     0.020 A 
HETATM   28 CL1  UNL     1      20.619   4.344  48.574  1.00  0.00    -0.081 Cl
HETATM   29  C20 UNL     1      21.737   0.752  50.270  1.00  0.00     0.159 A 
ENDBRANCH   1  22
TORSDOF 6
ENDMDL
MODEL 7
REMARK VINA RESULT:      -8.1      3.231      5.185
REMARK  6 active torsions:
REMARK  status: ('A' for Active; 'I' for Inactive)
REMARK    1  A    between atoms: N1_4  and  C3_5 
REMARK    2  A    between atoms: C8_12  and  C9_13 
REMARK    3  A    between atoms: C9_13  and  C10_14 
REMARK    4  A    between atoms: C11_15  and  C12_16 
REMARK    5  A    between atoms: C12_16  and  C13_17 
REMARK    6  A    between atoms: C13_17  and  N4_18 
ROOT
HETATM    1  C3  UNL     1      25.668   1.664  53.038  1.00  0.00     0.144 A 
HETATM    2  N2  UNL     1      26.977   1.711  53.380  1.00  0.00    -0.223 NA
HETATM    3  C4  UNL     1      27.499   0.799  54.250  1.00  0.00     0.236 A 
HETATM    4  N3  UNL     1      26.732  -0.185  54.804  1.00  0.00    -0.241 NA
HETATM    5  C5  UNL     1      25.427  -0.255  54.482  1.00  0.00     0.072 A 
HETATM    6  C6  UNL     1      24.534  -1.190  54.969  1.00  0.00     0.033 A 
HETATM    7  C7  UNL     1      23.206  -1.197  54.597  1.00  0.00     0.010 A 
HETATM    8  C8  UNL     1      22.708  -0.244  53.702  1.00  0.00    -0.046 A 
HETATM    9  C18 UNL     1      23.582   0.691  53.211  1.00  0.00     0.025 A 
HETATM   10  C19 UNL     1      24.903   0.667  53.603  1.00  0.00     0.039 A 
ENDROOT
BRANCH   8  11
HETATM   11  C9  UNL     1      21.273  -0.265  53.312  1.00  0.00     0.132 C 
BRANCH  11  12
HETATM   12  C10 UNL     1      21.085   0.217  51.932  1.00  0.00    -0.102 C 
HETATM   13  C11 UNL     1      20.951   0.621  50.786  1.00  0.00    -0.105 C 
BRANCH  13  14
HETATM   14  C12 UNL     1      20.815   1.101  49.409  1.00  0.00     0.124 C 
BRANCH  14  15
HETATM   15  C13 UNL     1      21.575   2.382  49.192  1.00  0.00     0.284 C 
BRANCH  15  16
HETATM   16  N4  UNL     1      20.728   3.477  48.769  1.00  0.00     0.093 N 
HETATM   17  C14 UNL     1      21.600   4.596  48.452  1.00  0.00     0.298 C 
HETATM   18  C15 UNL     1      20.976   5.919  48.865  1.00  0.00     0.198 C 
HETATM   19  O1  UNL     1      20.804   6.007  50.243  1.00  0.00    -0.388 OA
HETATM   20  C16 UNL     1      20.660   4.722  50.813  1.00  0.00     0.198 C 
HETATM   21  C17 UNL     1      19.845   3.922  49.826  1.00  0.00     0.298 C 
ENDBRANCH  15  16
ENDBRANCH  14  15
ENDBRANCH  13  14
ENDBRANCH  11  12
ENDBRANCH   8  11
BRANCH   1  22
HETATM   22  N1  UNL     1      25.333   2.672  52.114  1.00  0.00    -0.335 N 
HETATM   23  C2  UNL     1      26.314   2.681  51.059  1.00  0.00     0.137 A 
HETATM   24  C1  UNL     1      26.328   3.528  50.016  1.00  0.00     0.153 A 
HETATM   25  F1  UNL     1      27.234   3.567  49.006  1.00  0.00    -0.203 F 
HETATM   26  C22 UNL     1      25.265   4.535  49.906  1.00  0.00     0.071 A 
HETATM   27  C21 UNL     1      24.379   4.490  50.886  1.00  0.00     0.020 A 
HETATM   28 CL1  UNL     1      25.122   5.717  48.623  1.00  0.00    -0.081 Cl
HETATM   29  C20 UNL     1      24.257   3.618  52.068  1.00  0.00     0.159 A 
ENDBRANCH   1  22
TORSDOF 6
ENDMDL
MODEL 8
REMARK VINA RESULT:      -8.0      2.602      3.781
REMARK  6 active torsions:
REMARK  status: ('A' for Active; 'I' for Inactive)
REMARK    1  A    between atoms: N1_4  and  C3_5 
REMARK    2  A    between atoms: C8_12  and  C9_13 
REMARK    3  A    between atoms: C9_13  and  C10_14 
REMARK    4  A    between atoms: C11_15  and  C12_16 
REMARK    5  A    between atoms: C12_16  and  C13_17 
REMARK    6  A    between atoms: C13_17  and  N4_18 
ROOT
HETATM    1  C3  UNL     1      25.019   0.869  52.524  1.00  0.00     0.144 A 
HETATM    2  N2  UNL     1      23.984   0.438  53.281  1.00  0.00    -0.223 NA
HETATM    3  C4  UNL     1      22.754   1.016  53.166  1.00  0.00     0.236 A 
HETATM    4  N3  UNL     1      22.522   2.041  52.294  1.00  0.00    -0.241 NA
HETATM    5  C5  UNL     1      23.533   2.490  51.530  1.00  0.00     0.072 A 
HETATM    6  C6  UNL     1      23.444   3.520  50.612  1.00  0.00     0.033 A 
HETATM    7  C7  UNL     1      24.529   3.930  49.865  1.00  0.00     0.010 A 
HETATM    8  C8  UNL     1      25.775   3.312  50.012  1.00  0.00    -0.046 A 
HETATM    9  C18 UNL     1      25.879   2.289  50.919  1.00  0.00     0.025 A 
HETATM   10  C19 UNL     1      24.775   1.904  51.647  1.00  0.00     0.039 A 
ENDROOT
BRANCH   8  11
HETATM   11  C9  UNL     1      26.934   3.767  49.199  1.00  0.00     0.132 C 
BRANCH  11  12
HETATM   12  C10 UNL     1      26.841   5.205  48.891  1.00  0.00    -0.102 C 
HETATM   13  C11 UNL     1      26.775   6.402  48.654  1.00  0.00    -0.105 C 
BRANCH  13  14
HETATM   14  C12 UNL     1      26.714   7.841  48.387  1.00  0.00     0.124 C 
BRANCH  14  15
HETATM   15  C13 UNL     1      27.889   8.302  47.566  1.00  0.00     0.284 C 
BRANCH  15  16
HETATM   16  N4  UNL     1      29.150   8.187  48.267  1.00  0.00     0.093 N 
HETATM   17  C14 UNL     1      29.157   9.204  49.305  1.00  0.00     0.298 C 
HETATM   18  C15 UNL     1      30.542   9.804  49.483  1.00  0.00     0.198 C 
HETATM   19  O1  UNL     1      30.966  10.483  48.345  1.00  0.00    -0.388 OA
HETATM   20  C16 UNL     1      30.351   9.955  47.188  1.00  0.00     0.198 C 
HETATM   21  C17 UNL     1      30.279   8.464  47.404  1.00  0.00     0.298 C 
ENDBRANCH  15  16
ENDBRANCH  14  15
ENDBRANCH  13  14
ENDBRANCH  11  12
ENDBRANCH   8  11
BRANCH   1  22
HETATM   22  N1  UNL     1      26.192   0.130  52.772  1.00  0.00    -0.335 N 
HETATM   23  C2  UNL     1      26.997   0.843  53.732  1.00  0.00     0.137 A 
HETATM   24  C1  UNL     1      28.197   0.449  54.187  1.00  0.00     0.153 A 
HETATM   25  F1  UNL     1      28.983   1.093  55.088  1.00  0.00    -0.203 F 
HETATM   26  C22 UNL     1      28.763  -0.814  53.695  1.00  0.00     0.071 A 
HETATM   27  C21 UNL     1      27.993  -1.444  52.825  1.00  0.00     0.020 A 
HETATM   28 CL1  UNL     1      30.308  -1.484  54.173  1.00  0.00    -0.081 Cl
HETATM   29  C20 UNL     1      26.672  -1.118  52.256  1.00  0.00     0.159 A 
ENDBRANCH   1  22
TORSDOF 6
ENDMDL
MODEL 9
REMARK VINA RESULT:      -8.0      3.387      6.766
REMARK  6 active torsions:
REMARK  status: ('A' for Active; 'I' for Inactive)
REMARK    1  A    between atoms: N1_4  and  C3_5 
REMARK    2  A    between atoms: C8_12  and  C9_13 
REMARK    3  A    between atoms: C9_13  and  C10_14 
REMARK    4  A    between atoms: C11_15  and  C12_16 
REMARK    5  A    between atoms: C12_16  and  C13_17 
REMARK    6  A    between atoms: C13_17  and  N4_18 
ROOT
HETATM    1  C3  UNL     1      25.252   1.818  52.004  1.00  0.00     0.144 A 
HETATM    2  N2  UNL     1      25.748   2.842  51.271  1.00  0.00    -0.223 NA
HETATM    3  C4  UNL     1      24.924   3.828  50.811  1.00  0.00     0.236 A 
HETATM    4  N3  UNL     1      23.583   3.819  51.069  1.00  0.00    -0.241 NA
HETATM    5  C5  UNL     1      23.063   2.813  51.794  1.00  0.00     0.072 A 
HETATM    6  C6  UNL     1      21.729   2.673  52.126  1.00  0.00     0.033 A 
HETATM    7  C7  UNL     1      21.267   1.609  52.871  1.00  0.00     0.010 A 
HETATM    8  C8  UNL     1      22.144   0.617  53.324  1.00  0.00    -0.046 A 
HETATM    9  C18 UNL     1      23.471   0.741  53.003  1.00  0.00     0.025 A 
HETATM   10  C19 UNL     1      23.898   1.819  52.258  1.00  0.00     0.039 A 
ENDROOT
BRANCH   8  11
HETATM   11  C9  UNL     1      21.629  -0.524  54.126  1.00  0.00     0.132 C 
BRANCH  11  12
HETATM   12  C10 UNL     1      20.243  -0.860  53.754  1.00  0.00    -0.102 C 
HETATM   13  C11 UNL     1      19.096  -1.159  53.455  1.00  0.00    -0.105 C 
BRANCH  13  14
HETATM   14  C12 UNL     1      17.723  -1.534  53.113  1.00  0.00     0.124 C 
BRANCH  14  15
HETATM   15  C13 UNL     1      17.008  -0.423  52.391  1.00  0.00     0.284 C 
BRANCH  15  16
HETATM   16  N4  UNL     1      17.765   0.105  51.276  1.00  0.00     0.093 N 
HETATM   17  C14 UNL     1      17.788   1.551  51.421  1.00  0.00     0.298 C 
HETATM   18  C15 UNL     1      17.698   2.245  50.072  1.00  0.00     0.198 C 
HETATM   19  O1  UNL     1      16.487   1.991  49.435  1.00  0.00    -0.388 OA
HETATM   20  C16 UNL     1      15.952   0.752  49.852  1.00  0.00     0.198 C 
HETATM   21  C17 UNL     1      17.131  -0.176  50.006  1.00  0.00     0.298 C 
ENDBRANCH  15  16
ENDBRANCH  14  15
ENDBRANCH  13  14
ENDBRANCH  11  12
ENDBRANCH   8  11
BRANCH   1  22
HETATM   22  N1  UNL     1      26.264   0.923  52.402  1.00  0.00    -0.335 N 
HETATM   23  C2  UNL     1      27.301   1.662  53.075  1.00  0.00     0.137 A 
HETATM   24  C1  UNL     1      28.435   1.138  53.569  1.00  0.00     0.153 A 
HETATM   25  F1  UNL     1      29.433   1.803  54.207  1.00  0.00    -0.203 F 
HETATM   26  C22 UNL     1      28.665  -0.306  53.439  1.00  0.00     0.071 A 
HETATM   27  C21 UNL     1      27.688  -0.952  52.826  1.00  0.00     0.020 A 
HETATM   28 CL1  UNL     1      30.078  -1.162  54.019  1.00  0.00    -0.081 Cl
HETATM   29  C20 UNL     1      26.411  -0.495  52.248  1.00  0.00     0.159 A 
ENDBRANCH   1  22
TORSDOF 6
ENDMDL
