MODEL 1
REMARK VINA RESULT:      -8.4      0.000      0.000
REMARK  1 active torsions:
REMARK  status: ('A' for Active; 'I' for Inactive)
REMARK    1  A    between atoms: C14_16  and  C15_17 
ROOT
HETATM    1  C1  UNL     1      23.230   5.275  50.755  1.00  0.00     0.119 A 
HETATM    2  C2  UNL     1      22.943   4.508  51.839  1.00  0.00    -0.013 A 
HETATM    3  C3  UNL     1      21.526   4.599  52.193  1.00  0.00     0.161 C 
HETATM    4  N1  UNL     1      20.755   3.389  52.115  1.00  0.00    -0.377 N 
HETATM    5  C4  UNL     1      19.382   3.449  51.570  1.00  0.00     0.149 C 
HETATM    6  C5  UNL     1      19.418   2.826  50.189  1.00  0.00     0.188 C 
HETATM    7  O1  UNL     1      20.753   2.422  50.031  1.00  0.00    -0.384 OA
HETATM    8  C6  UNL     1      20.971   1.491  51.043  1.00  0.00     0.224 C 
HETATM    9  C7  UNL     1      20.935   2.017  52.420  1.00  0.00     0.027 C 
HETATM   10  C8  UNL     1      21.061   1.014  53.285  1.00  0.00     0.000 C 
HETATM   11  C9  UNL     1      21.254  -0.400  52.917  1.00  0.00     0.029 C 
HETATM   12  C10 UNL     1      22.480  -1.055  53.481  1.00  0.00     0.009 C 
HETATM   13  C11 UNL     1      23.695  -0.263  53.256  1.00  0.00    -0.001 C 
HETATM   14  C12 UNL     1      24.777   0.405  53.361  1.00  0.00     0.023 C 
HETATM   15  C13 UNL     1      25.939   1.072  53.876  1.00  0.00     0.011 C 
HETATM   16  C14 UNL     1      26.549   1.622  52.809  1.00  0.00     0.043 C 
HETATM   17  O2  UNL     1      26.127   1.576  51.452  1.00  0.00    -0.352 OA
HETATM   18  C17 UNL     1      26.061   2.787  50.733  1.00  0.00     0.203 C 
HETATM   19  C18 UNL     1      25.042   2.920  49.703  1.00  0.00     0.012 C 
HETATM   20  C19 UNL     1      24.823   4.196  49.407  1.00  0.00    -0.024 C 
HETATM   21  C20 UNL     1      25.003   5.025  50.430  1.00  0.00     0.059 C 
HETATM   22  C21 UNL     1      24.357   4.351  51.569  1.00  0.00     0.119 A 
HETATM   23  O3  UNL     1      24.133   3.654  52.596  1.00  0.00    -0.296 OA
ENDROOT
BRANCH  16  24
HETATM   24  C15 UNL     1      27.804   2.381  53.022  1.00  0.00     0.060 C 
HETATM   25  C16 UNL     1      28.829   1.549  53.773  1.00  0.00     0.012 C 
ENDBRANCH  16  24
TORSDOF 1
ENDMDL
MODEL 2
REMARK VINA RESULT:      -8.4      1.922      5.451
REMARK  1 active torsions:
REMARK  status: ('A' for Active; 'I' for Inactive)
REMARK    1  A    between atoms: C14_16  and  C15_17 
ROOT
HETATM    1  C1  UNL     1      25.565   3.662  50.572  1.00  0.00     0.119 A 
HETATM    2  C2  UNL     1      25.353   2.345  50.827  1.00  0.00    -0.013 A 
HETATM    3  C3  UNL     1      26.616   1.632  51.018  1.00  0.00     0.161 C 
HETATM    4  N1  UNL     1      26.841   1.038  52.307  1.00  0.00    -0.377 N 
HETATM    5  C4  UNL     1      28.190   1.121  52.909  1.00  0.00     0.149 C 
HETATM    6  C5  UNL     1      28.117   2.132  54.035  1.00  0.00     0.188 C 
HETATM    7  O1  UNL     1      26.773   2.536  54.047  1.00  0.00    -0.384 OA
HETATM    8  C6  UNL     1      26.049   1.378  54.320  1.00  0.00     0.224 C 
HETATM    9  C7  UNL     1      26.084   0.336  53.278  1.00  0.00     0.027 C 
HETATM   10  C8  UNL     1      25.438  -0.746  53.704  1.00  0.00     0.000 C 
HETATM   11  C9  UNL     1      24.754  -0.862  55.005  1.00  0.00     0.029 C 
HETATM   12  C10 UNL     1      23.298  -1.219  54.941  1.00  0.00     0.009 C 
HETATM   13  C11 UNL     1      22.550  -0.368  54.007  1.00  0.00    -0.001 C 
HETATM   14  C12 UNL     1      21.824   0.105  53.072  1.00  0.00     0.023 C 
HETATM   15  C13 UNL     1      20.962   0.241  51.932  1.00  0.00     0.011 C 
HETATM   16  C14 UNL     1      20.793   1.565  51.756  1.00  0.00     0.043 C 
HETATM   17  O2  UNL     1      21.361   2.619  52.522  1.00  0.00    -0.352 OA
HETATM   18  C17 UNL     1      22.014   3.664  51.836  1.00  0.00     0.203 C 
HETATM   19  C18 UNL     1      23.145   4.311  52.485  1.00  0.00     0.012 C 
HETATM   20  C19 UNL     1      23.898   4.958  51.603  1.00  0.00    -0.024 C 
HETATM   21  C20 UNL     1      23.912   4.402  50.396  1.00  0.00     0.059 C 
HETATM   22  C21 UNL     1      24.053   2.960  50.655  1.00  0.00     0.119 A 
HETATM   23  O3  UNL     1      23.821   1.736  50.857  1.00  0.00    -0.296 OA
ENDROOT
BRANCH  16  24
HETATM   24  C15 UNL     1      19.930   2.029  50.644  1.00  0.00     0.060 C 
HETATM   25  C16 UNL     1      20.350   1.404  49.324  1.00  0.00     0.012 C 
ENDBRANCH  16  24
TORSDOF 1
ENDMDL
MODEL 3
REMARK VINA RESULT:      -7.6      2.130      5.105
REMARK  1 active torsions:
REMARK  status: ('A' for Active; 'I' for Inactive)
REMARK    1  A    between atoms: C14_16  and  C15_17 
ROOT
HETATM    1  C1  UNL     1      19.473   1.765  49.559  1.00  0.00     0.119 A 
HETATM    2  C2  UNL     1      20.798   1.541  49.364  1.00  0.00    -0.013 A 
HETATM    3  C3  UNL     1      21.254   2.121  48.101  1.00  0.00     0.161 C 
HETATM    4  N1  UNL     1      22.244   3.159  48.179  1.00  0.00    -0.377 N 
HETATM    5  C4  UNL     1      22.126   4.330  47.283  1.00  0.00     0.149 C 
HETATM    6  C5  UNL     1      21.673   5.501  48.130  1.00  0.00     0.188 C 
HETATM    7  O1  UNL     1      21.590   4.974  49.428  1.00  0.00    -0.384 OA
HETATM    8  C6  UNL     1      22.885   4.562  49.734  1.00  0.00     0.224 C 
HETATM    9  C7  UNL     1      23.407   3.435  48.939  1.00  0.00     0.027 C 
HETATM   10  C8  UNL     1      24.677   3.209  49.265  1.00  0.00     0.000 C 
HETATM   11  C9  UNL     1      25.429   3.946  50.296  1.00  0.00     0.029 C 
HETATM   12  C10 UNL     1      26.023   3.107  51.389  1.00  0.00     0.009 C 
HETATM   13  C11 UNL     1      25.049   2.183  51.982  1.00  0.00    -0.001 C 
HETATM   14  C12 UNL     1      24.408   1.172  52.421  1.00  0.00     0.023 C 
HETATM   15  C13 UNL     1      24.018  -0.162  52.778  1.00  0.00     0.011 C 
HETATM   16  C14 UNL     1      22.796  -0.052  53.332  1.00  0.00     0.043 C 
HETATM   17  O2  UNL     1      22.031   1.133  53.511  1.00  0.00    -0.352 OA
HETATM   18  C17 UNL     1      20.692   1.135  53.070  1.00  0.00     0.203 C 
HETATM   19  C18 UNL     1      20.132   2.386  52.579  1.00  0.00     0.012 C 
HETATM   20  C19 UNL     1      19.053   2.168  51.835  1.00  0.00    -0.024 C 
HETATM   21  C20 UNL     1      19.079   1.017  51.171  1.00  0.00     0.059 C 
HETATM   22  C21 UNL     1      20.445   0.934  50.631  1.00  0.00     0.119 A 
HETATM   23  O3  UNL     1      21.671   0.680  50.467  1.00  0.00    -0.296 OA
ENDROOT
BRANCH  16  24
HETATM   24  C15 UNL     1      22.123  -1.280  53.818  1.00  0.00     0.060 C 
HETATM   25  C16 UNL     1      22.508  -1.585  55.256  1.00  0.00     0.012 C 
ENDBRANCH  16  24
TORSDOF 1
ENDMDL
MODEL 4
REMARK VINA RESULT:      -7.5      2.216      4.901
REMARK  1 active torsions:
REMARK  status: ('A' for Active; 'I' for Inactive)
REMARK    1  A    between atoms: C14_16  and  C15_17 
ROOT
HETATM    1  C1  UNL     1      20.893   1.197  50.387  1.00  0.00     0.119 A 
HETATM    2  C2  UNL     1      21.646   1.764  49.408  1.00  0.00    -0.013 A 
HETATM    3  C3  UNL     1      20.824   2.144  48.260  1.00  0.00     0.161 C 
HETATM    4  N1  UNL     1      20.762   3.543  47.936  1.00  0.00    -0.377 N 
HETATM    5  C4  UNL     1      19.466   4.127  47.526  1.00  0.00     0.149 C 
HETATM    6  C5  UNL     1      18.967   4.969  48.681  1.00  0.00     0.188 C 
HETATM    7  O1  UNL     1      19.979   4.860  49.648  1.00  0.00    -0.384 OA
HETATM    8  C6  UNL     1      21.113   5.398  49.045  1.00  0.00     0.224 C 
HETATM    9  C7  UNL     1      21.652   4.644  47.898  1.00  0.00     0.027 C 
HETATM   10  C8  UNL     1      22.669   5.313  47.360  1.00  0.00     0.000 C 
HETATM   11  C9  UNL     1      23.200   6.592  47.866  1.00  0.00     0.029 C 
HETATM   12  C10 UNL     1      24.660   6.595  48.212  1.00  0.00     0.009 C 
HETATM   13  C11 UNL     1      25.036   5.469  49.076  1.00  0.00    -0.001 C 
HETATM   14  C12 UNL     1      25.562   4.435  49.605  1.00  0.00     0.023 C 
HETATM   15  C13 UNL     1      26.380   3.284  49.860  1.00  0.00     0.011 C 
HETATM   16  C14 UNL     1      25.956   2.785  51.036  1.00  0.00     0.043 C 
HETATM   17  O2  UNL     1      24.903   3.277  51.855  1.00  0.00    -0.352 OA
HETATM   18  C17 UNL     1      23.923   2.366  52.300  1.00  0.00     0.203 C 
HETATM   19  C18 UNL     1      22.564   2.854  52.484  1.00  0.00     0.012 C 
HETATM   20  C19 UNL     1      21.693   1.852  52.496  1.00  0.00    -0.024 C 
HETATM   21  C20 UNL     1      22.049   0.818  51.740  1.00  0.00     0.059 C 
HETATM   22  C21 UNL     1      22.543   1.426  50.494  1.00  0.00     0.119 A 
HETATM   23  O3  UNL     1      23.277   1.919  49.594  1.00  0.00    -0.296 OA
ENDROOT
BRANCH  16  24
HETATM   24  C15 UNL     1      26.626   1.580  51.580  1.00  0.00     0.060 C 
HETATM   25  C16 UNL     1      27.542   1.935  52.739  1.00  0.00     0.012 C 
ENDBRANCH  16  24
TORSDOF 1
ENDMDL
MODEL 5
REMARK VINA RESULT:      -7.5      2.346      4.965
REMARK  1 active torsions:
REMARK  status: ('A' for Active; 'I' for Inactive)
REMARK    1  A    between atoms: C14_16  and  C15_17 
ROOT
HETATM    1  C1  UNL     1      21.949   0.763  51.379  1.00  0.00     0.119 A 
HETATM    2  C2  UNL     1      21.689   1.547  50.300  1.00  0.00    -0.013 A 
HETATM    3  C3  UNL     1      20.325   1.343  49.813  1.00  0.00     0.161 C 
HETATM    4  N1  UNL     1      19.439   2.474  49.861  1.00  0.00    -0.377 N 
HETATM    5  C4  UNL     1      18.034   2.266  50.274  1.00  0.00     0.149 C 
HETATM    6  C5  UNL     1      17.888   2.829  51.672  1.00  0.00     0.188 C 
HETATM    7  O1  UNL     1      19.159   3.345  51.969  1.00  0.00    -0.384 OA
HETATM    8  C6  UNL     1      19.379   4.335  51.014  1.00  0.00     0.224 C 
HETATM    9  C7  UNL     1      19.515   3.868  49.622  1.00  0.00     0.027 C 
HETATM   10  C8  UNL     1      19.623   4.914  48.807  1.00  0.00     0.000 C 
HETATM   11  C9  UNL     1      19.648   6.323  49.241  1.00  0.00     0.029 C 
HETATM   12  C10 UNL     1      20.852   7.110  48.817  1.00  0.00     0.009 C 
HETATM   13  C11 UNL     1      22.112   6.423  49.126  1.00  0.00    -0.001 C 
HETATM   14  C12 UNL     1      23.256   5.861  49.100  1.00  0.00     0.023 C 
HETATM   15  C13 UNL     1      24.517   5.325  48.672  1.00  0.00     0.011 C 
HETATM   16  C14 UNL     1      25.079   4.787  49.771  1.00  0.00     0.043 C 
HETATM   17  O2  UNL     1      24.535   4.736  51.084  1.00  0.00    -0.352 OA
HETATM   18  C17 UNL     1      24.519   3.494  51.751  1.00  0.00     0.203 C 
HETATM   19  C18 UNL     1      23.429   3.225  52.677  1.00  0.00     0.012 C 
HETATM   20  C19 UNL     1      23.306   1.922  52.906  1.00  0.00    -0.024 C 
HETATM   21  C20 UNL     1      23.654   1.158  51.876  1.00  0.00     0.059 C 
HETATM   22  C21 UNL     1      23.053   1.819  50.707  1.00  0.00     0.119 A 
HETATM   23  O3  UNL     1      22.856   2.537  49.687  1.00  0.00    -0.296 OA
ENDROOT
BRANCH  16  24
HETATM   24  C15 UNL     1      26.414   4.155  49.650  1.00  0.00     0.060 C 
HETATM   25  C16 UNL     1      27.318   4.952  48.724  1.00  0.00     0.012 C 
ENDBRANCH  16  24
TORSDOF 1
ENDMDL
MODEL 6
REMARK VINA RESULT:      -7.4      8.362     10.606
REMARK  1 active torsions:
REMARK  status: ('A' for Active; 'I' for Inactive)
REMARK    1  A    between atoms: C14_16  and  C15_17 
ROOT
HETATM    1  C1  UNL     1      32.335  10.997  47.185  1.00  0.00     0.119 A 
HETATM    2  C2  UNL     1      31.660  10.221  48.072  1.00  0.00    -0.013 A 
HETATM    3  C3  UNL     1      30.558  10.959  48.690  1.00  0.00     0.161 C 
HETATM    4  N1  UNL     1      29.229  10.468  48.450  1.00  0.00    -0.377 N 
HETATM    5  C4  UNL     1      28.141  11.439  48.198  1.00  0.00     0.149 C 
HETATM    6  C5  UNL     1      27.807  11.367  46.723  1.00  0.00     0.188 C 
HETATM    7  O1  UNL     1      28.662  10.370  46.226  1.00  0.00    -0.384 OA
HETATM    8  C6  UNL     1      28.304   9.213  46.912  1.00  0.00     0.224 C 
HETATM    9  C7  UNL     1      28.582   9.211  48.360  1.00  0.00     0.027 C 
HETATM   10  C8  UNL     1      28.108   8.094  48.906  1.00  0.00     0.000 C 
HETATM   11  C9  UNL     1      27.446   7.007  48.163  1.00  0.00     0.029 C 
HETATM   12  C10 UNL     1      28.068   5.649  48.309  1.00  0.00     0.009 C 
HETATM   13  C11 UNL     1      29.518   5.667  48.074  1.00  0.00    -0.001 C 
HETATM   14  C12 UNL     1      30.786   5.559  48.145  1.00  0.00     0.023 C 
HETATM   15  C13 UNL     1      32.121   5.277  48.591  1.00  0.00     0.011 C 
HETATM   16  C14 UNL     1      32.935   5.702  47.606  1.00  0.00     0.043 C 
HETATM   17  O2  UNL     1      32.560   6.321  46.382  1.00  0.00    -0.352 OA
HETATM   18  C17 UNL     1      33.205   7.520  46.017  1.00  0.00     0.203 C 
HETATM   19  C18 UNL     1      32.448   8.504  45.258  1.00  0.00     0.012 C 
HETATM   20  C19 UNL     1      33.007   9.706  45.340  1.00  0.00    -0.024 C 
HETATM   21  C20 UNL     1      33.636   9.931  46.489  1.00  0.00     0.059 C 
HETATM   22  C21 UNL     1      32.722   9.408  47.518  1.00  0.00     0.119 A 
HETATM   23  O3  UNL     1      32.138   8.669  48.358  1.00  0.00    -0.296 OA
ENDROOT
BRANCH  16  24
HETATM   24  C15 UNL     1      34.398   5.535  47.771  1.00  0.00     0.060 C 
HETATM   25  C16 UNL     1      34.770   4.071  47.934  1.00  0.00     0.012 C 
ENDBRANCH  16  24
TORSDOF 1
ENDMDL
MODEL 7
REMARK VINA RESULT:      -7.2      2.348      4.425
REMARK  1 active torsions:
REMARK  status: ('A' for Active; 'I' for Inactive)
REMARK    1  A    between atoms: C14_16  and  C15_17 
ROOT
HETATM    1  C1  UNL     1      23.549   4.698  51.892  1.00  0.00     0.119 A 
HETATM    2  C2  UNL     1      22.201   4.531  51.919  1.00  0.00    -0.013 A 
HETATM    3  C3  UNL     1      21.514   5.670  51.310  1.00  0.00     0.161 C 
HETATM    4  N1  UNL     1      20.733   5.408  50.133  1.00  0.00    -0.377 N 
HETATM    5  C4  UNL     1      20.771   6.378  49.017  1.00  0.00     0.149 C 
HETATM    6  C5  UNL     1      21.589   5.754  47.906  1.00  0.00     0.188 C 
HETATM    7  O1  UNL     1      21.937   4.488  48.406  1.00  0.00    -0.384 OA
HETATM    8  C6  UNL     1      20.725   3.834  48.609  1.00  0.00     0.224 C 
HETATM    9  C7  UNL     1      19.861   4.394  49.666  1.00  0.00     0.027 C 
HETATM   10  C8  UNL     1      18.703   3.739  49.690  1.00  0.00     0.000 C 
HETATM   11  C9  UNL     1      18.359   2.600  48.820  1.00  0.00     0.029 C 
HETATM   12  C10 UNL     1      17.963   1.339  49.531  1.00  0.00     0.009 C 
HETATM   13  C11 UNL     1      18.922   0.958  50.576  1.00  0.00    -0.001 C 
HETATM   14  C12 UNL     1      19.510   0.633  51.660  1.00  0.00     0.023 C 
HETATM   15  C13 UNL     1      19.791   0.302  53.028  1.00  0.00     0.011 C 
HETATM   16  C14 UNL     1      21.119   0.089  53.089  1.00  0.00     0.043 C 
HETATM   17  O2  UNL     1      22.060   0.190  52.028  1.00  0.00    -0.352 OA
HETATM   18  C17 UNL     1      23.223   0.959  52.239  1.00  0.00     0.203 C 
HETATM   19  C18 UNL     1      23.801   1.657  51.100  1.00  0.00     0.012 C 
HETATM   20  C19 UNL     1      24.605   2.637  51.497  1.00  0.00    -0.024 C 
HETATM   21  C20 UNL     1      24.247   3.196  52.648  1.00  0.00     0.059 C 
HETATM   22  C21 UNL     1      22.788   3.361  52.539  1.00  0.00     0.119 A 
HETATM   23  O3  UNL     1      21.540   3.188  52.610  1.00  0.00    -0.296 OA
ENDROOT
BRANCH  16  24
HETATM   24  C15 UNL     1      21.719  -0.286  54.390  1.00  0.00     0.060 C 
HETATM   25  C16 UNL     1      21.739  -1.795  54.572  1.00  0.00     0.012 C 
ENDBRANCH  16  24
TORSDOF 1
ENDMDL
MODEL 8
REMARK VINA RESULT:      -7.1      9.582     12.565
REMARK  1 active torsions:
REMARK  status: ('A' for Active; 'I' for Inactive)
REMARK    1  A    between atoms: C14_16  and  C15_17 
ROOT
HETATM    1  C1  UNL     1      32.195   6.658  49.309  1.00  0.00     0.119 A 
HETATM    2  C2  UNL     1      33.033   6.726  48.242  1.00  0.00    -0.013 A 
HETATM    3  C3  UNL     1      34.107   5.739  48.348  1.00  0.00     0.161 C 
HETATM    4  N1  UNL     1      34.164   4.726  47.331  1.00  0.00    -0.377 N 
HETATM    5  C4  UNL     1      34.485   3.336  47.721  1.00  0.00     0.149 C 
HETATM    6  C5  UNL     1      33.203   2.535  47.627  1.00  0.00     0.188 C 
HETATM    7  O1  UNL     1      32.253   3.462  47.170  1.00  0.00    -0.384 OA
HETATM    8  C6  UNL     1      32.719   3.872  45.923  1.00  0.00     0.224 C 
HETATM    9  C7  UNL     1      33.976   4.644  45.929  1.00  0.00     0.027 C 
HETATM   10  C8  UNL     1      34.356   4.888  44.678  1.00  0.00     0.000 C 
HETATM   11  C9  UNL     1      33.609   4.484  43.474  1.00  0.00     0.029 C 
HETATM   12  C10 UNL     1      33.237   5.597  42.538  1.00  0.00     0.009 C 
HETATM   13  C11 UNL     1      32.592   6.721  43.229  1.00  0.00    -0.001 C 
HETATM   14  C12 UNL     1      32.255   7.856  43.701  1.00  0.00     0.023 C 
HETATM   15  C13 UNL     1      32.203   9.255  44.018  1.00  0.00     0.011 C 
HETATM   16  C14 UNL     1      31.150   9.406  44.844  1.00  0.00     0.043 C 
HETATM   17  O2  UNL     1      30.277   8.392  45.325  1.00  0.00    -0.352 OA
HETATM   18  C17 UNL     1      30.032   8.326  46.712  1.00  0.00     0.203 C 
HETATM   19  C18 UNL     1      29.788   7.019  47.305  1.00  0.00     0.012 C 
HETATM   20  C19 UNL     1      29.983   7.046  48.619  1.00  0.00    -0.024 C 
HETATM   21  C20 UNL     1      30.912   7.913  49.009  1.00  0.00     0.059 C 
HETATM   22  C21 UNL     1      32.011   7.734  48.046  1.00  0.00     0.119 A 
HETATM   23  O3  UNL     1      32.787   7.846  47.058  1.00  0.00    -0.296 OA
ENDROOT
BRANCH  16  24
HETATM   24  C15 UNL     1      30.828  10.763  45.345  1.00  0.00     0.060 C 
HETATM   25  C16 UNL     1      32.030  11.398  46.024  1.00  0.00     0.012 C 
ENDBRANCH  16  24
TORSDOF 1
ENDMDL
MODEL 9
REMARK VINA RESULT:      -6.9      4.043      6.267
REMARK  1 active torsions:
REMARK  status: ('A' for Active; 'I' for Inactive)
REMARK    1  A    between atoms: C14_16  and  C15_17 
ROOT
HETATM    1  C1  UNL     1      22.000   8.709  49.097  1.00  0.00     0.119 A 
HETATM    2  C2  UNL     1      22.943   8.042  49.812  1.00  0.00    -0.013 A 
HETATM    3  C3  UNL     1      22.332   7.201  50.841  1.00  0.00     0.161 C 
HETATM    4  N1  UNL     1      22.540   5.783  50.733  1.00  0.00    -0.377 N 
HETATM    5  C4  UNL     1      21.414   4.869  51.026  1.00  0.00     0.149 C 
HETATM    6  C5  UNL     1      20.931   4.311  49.703  1.00  0.00     0.188 C 
HETATM    7  O1  UNL     1      21.794   4.883  48.755  1.00  0.00    -0.384 OA
HETATM    8  C6  UNL     1      23.063   4.423  49.097  1.00  0.00     0.224 C 
HETATM    9  C7  UNL     1      23.598   4.909  50.383  1.00  0.00     0.027 C 
HETATM   10  C8  UNL     1      24.766   4.322  50.632  1.00  0.00     0.000 C 
HETATM   11  C9  UNL     1      25.440   3.367  49.734  1.00  0.00     0.029 C 
HETATM   12  C10 UNL     1      26.831   3.742  49.315  1.00  0.00     0.009 C 
HETATM   13  C11 UNL     1      26.914   5.118  48.808  1.00  0.00    -0.001 C 
HETATM   14  C12 UNL     1      27.198   6.340  48.583  1.00  0.00     0.023 C 
HETATM   15  C13 UNL     1      27.780   7.651  48.638  1.00  0.00     0.011 C 
HETATM   16  C14 UNL     1      27.147   8.373  47.694  1.00  0.00     0.043 C 
HETATM   17  O2  UNL     1      26.102   7.942  46.831  1.00  0.00    -0.352 OA
HETATM   18  C17 UNL     1      24.941   8.736  46.741  1.00  0.00     0.203 C 
HETATM   19  C18 UNL     1      23.669   8.070  46.501  1.00  0.00     0.012 C 
HETATM   20  C19 UNL     1      22.649   8.848  46.844  1.00  0.00    -0.024 C 
HETATM   21  C20 UNL     1      22.914   9.672  47.852  1.00  0.00     0.059 C 
HETATM   22  C21 UNL     1      23.641   8.841  48.826  1.00  0.00     0.119 A 
HETATM   23  O3  UNL     1      24.545   8.262  49.490  1.00  0.00    -0.296 OA
ENDROOT
BRANCH  16  24
HETATM   24  C15 UNL     1      27.541   9.788  47.498  1.00  0.00     0.060 C 
HETATM   25  C16 UNL     1      27.516  10.553  48.811  1.00  0.00     0.012 C 
ENDBRANCH  16  24
TORSDOF 1
ENDMDL
