MODEL 1
REMARK VINA RESULT:      -9.6      0.000      0.000
REMARK  7 active torsions:
REMARK  status: ('A' for Active; 'I' for Inactive)
REMARK    1  A    between atoms: N2_6  and  C5_7 
REMARK    2  A    between atoms: C5_7  and  C6_8 
REMARK    3  A    between atoms: C6_8  and  C7_9 
REMARK    4  A    between atoms: C8_10  and  C9_11 
REMARK       I    between atoms: C9_11  and  N3_13 
REMARK    5  A    between atoms: N3_13  and  C10_14 
REMARK    6  A    between atoms: C13_17  and  N4_18 
REMARK    7  A    between atoms: N4_18  and  C14_19 
ROOT
HETATM    1  C10 UNL     1      24.420   3.391  50.020  1.00  0.00     0.131 A 
HETATM    2  C11 UNL     1      24.761   2.770  51.207  1.00  0.00     0.068 A 
HETATM    3  C12 UNL     1      24.029   1.786  51.821  1.00  0.00     0.044 A 
HETATM    4  C13 UNL     1      24.360   1.165  52.996  1.00  0.00     0.142 A 
HETATM    5  N5  UNL     1      23.485   0.239  53.388  1.00  0.00    -0.224 NA
HETATM    6  C20 UNL     1      22.371  -0.102  52.746  1.00  0.00     0.236 A 
HETATM    7  N6  UNL     1      22.052   0.510  51.596  1.00  0.00    -0.240 NA
HETATM    8  C21 UNL     1      22.885   1.457  51.133  1.00  0.00     0.089 A 
HETATM    9  C22 UNL     1      22.526   2.059  49.956  1.00  0.00     0.151 A 
HETATM   10  N7  UNL     1      23.288   3.016  49.407  1.00  0.00    -0.241 NA
ENDROOT
BRANCH   1  11
HETATM   11  N3  UNL     1      25.282   4.415  49.479  1.00  0.00    -0.301 N 
HETATM   12  C9  UNL     1      26.637   4.012  49.191  1.00  0.00     0.302 C 
HETATM   13  O1  UNL     1      26.997   2.829  49.412  1.00  0.00    -0.258 OA
HETATM   14  H14 UNL     1      24.892   5.373  49.327  1.00  0.00     0.171 HD
BRANCH  12  15
HETATM   15  C8  UNL     1      27.480   5.032  48.657  1.00  0.00    -0.005 C 
HETATM   16  C7  UNL     1      28.205   5.883  48.217  1.00  0.00    -0.095 C 
BRANCH  16  17
HETATM   17  C6  UNL     1      29.123   6.921  47.677  1.00  0.00     0.124 C 
BRANCH  17  18
HETATM   18  C5  UNL     1      28.354   8.171  47.353  1.00  0.00     0.287 C 
BRANCH  18  19
HETATM   19  N2  UNL     1      28.793   9.339  48.074  1.00  0.00     0.124 N 
HETATM   20  C2  UNL     1      28.743   9.084  49.495  1.00  0.00     0.450 C 
HETATM   21  C1  UNL     1      27.416   9.300  50.145  1.00  0.00     0.077 C 
HETATM   22  N1  UNL     1      29.732  10.021  50.025  1.00  0.00     0.118 N 
HETATM   23  C3  UNL     1      30.870   9.768  49.186  1.00  0.00     0.302 C 
HETATM   24  H5  UNL     1      29.361  10.972  49.797  1.00  0.00     0.318 HD
HETATM   25  C4  UNL     1      30.267   9.357  47.889  1.00  0.00     0.305 C 
ENDBRANCH  18  19
ENDBRANCH  17  18
ENDBRANCH  16  17
ENDBRANCH  12  15
ENDBRANCH   1  11
BRANCH   4  26
HETATM   26  N4  UNL     1      25.545   1.539  53.663  1.00  0.00    -0.340 N 
HETATM   27  H16 UNL     1      25.585   2.380  54.270  1.00  0.00     0.167 HD
BRANCH  26  28
HETATM   28  C14 UNL     1      26.827   0.934  53.679  1.00  0.00     0.035 A 
HETATM   29  C15 UNL     1      28.007   1.522  54.009  1.00  0.00     0.032 A 
HETATM   30  C16 UNL     1      29.233   0.912  54.013  1.00  0.00     0.046 A 
HETATM   31  C17 UNL     1      29.327  -0.415  53.658  1.00  0.00     0.138 A 
HETATM   32  F1  UNL     1      30.568  -0.955  53.684  1.00  0.00    -0.204 F 
HETATM   33  C18 UNL     1      28.156  -1.057  53.314  1.00  0.00     0.074 A 
HETATM   34 CL1  UNL     1      28.353  -2.750  52.871  1.00  0.00    -0.081 Cl
HETATM   35  C19 UNL     1      26.937  -0.414  53.320  1.00  0.00     0.056 A 
ENDBRANCH  26  28
ENDBRANCH   4  26
TORSDOF 7
ENDMDL
MODEL 2
REMARK VINA RESULT:      -9.4      2.909      3.458
REMARK  7 active torsions:
REMARK  status: ('A' for Active; 'I' for Inactive)
REMARK    1  A    between atoms: N2_6  and  C5_7 
REMARK    2  A    between atoms: C5_7  and  C6_8 
REMARK    3  A    between atoms: C6_8  and  C7_9 
REMARK    4  A    between atoms: C8_10  and  C9_11 
REMARK       I    between atoms: C9_11  and  N3_13 
REMARK    5  A    between atoms: N3_13  and  C10_14 
REMARK    6  A    between atoms: C13_17  and  N4_18 
REMARK    7  A    between atoms: N4_18  and  C14_19 
ROOT
HETATM    1  C10 UNL     1      26.114   3.879  49.529  1.00  0.00     0.131 A 
HETATM    2  C11 UNL     1      26.064   3.393  50.823  1.00  0.00     0.068 A 
HETATM    3  C12 UNL     1      24.926   2.975  51.464  1.00  0.00     0.044 A 
HETATM    4  C13 UNL     1      24.868   2.492  52.745  1.00  0.00     0.142 A 
HETATM    5  N5  UNL     1      23.642   2.149  53.142  1.00  0.00    -0.224 NA
HETATM    6  C20 UNL     1      22.533   2.242  52.415  1.00  0.00     0.236 A 
HETATM    7  N6  UNL     1      22.597   2.715  51.162  1.00  0.00    -0.240 NA
HETATM    8  C21 UNL     1      23.798   3.083  50.686  1.00  0.00     0.089 A 
HETATM    9  C22 UNL     1      23.823   3.562  49.403  1.00  0.00     0.151 A 
HETATM   10  N7  UNL     1      24.971   3.954  48.833  1.00  0.00    -0.241 NA
ENDROOT
BRANCH   1  11
HETATM   11  N3  UNL     1      27.381   4.286  48.971  1.00  0.00    -0.301 N 
HETATM   12  C9  UNL     1      27.531   5.698  48.709  1.00  0.00     0.302 C 
HETATM   13  O1  UNL     1      26.587   6.484  48.970  1.00  0.00    -0.258 OA
HETATM   14  H14 UNL     1      28.110   3.558  48.790  1.00  0.00     0.171 HD
BRANCH  12  15
HETATM   15  C8  UNL     1      28.787   6.089  48.158  1.00  0.00    -0.005 C 
HETATM   16  C7  UNL     1      29.850   6.428  47.711  1.00  0.00    -0.095 C 
BRANCH  16  17
HETATM   17  C6  UNL     1      31.173   6.851  47.181  1.00  0.00     0.124 C 
BRANCH  17  18
HETATM   18  C5  UNL     1      32.012   5.645  46.864  1.00  0.00     0.287 C 
BRANCH  18  19
HETATM   19  N2  UNL     1      32.725   5.107  47.994  1.00  0.00     0.124 N 
HETATM   20  C2  UNL     1      33.623   4.064  47.553  1.00  0.00     0.450 C 
HETATM   21  C1  UNL     1      33.019   2.707  47.411  1.00  0.00     0.077 C 
HETATM   22  N1  UNL     1      34.648   4.062  48.596  1.00  0.00     0.118 N 
HETATM   23  C3  UNL     1      34.990   5.453  48.689  1.00  0.00     0.302 C 
HETATM   24  H5  UNL     1      34.149   3.786  49.473  1.00  0.00     0.318 HD
HETATM   25  C4  UNL     1      33.725   6.151  48.334  1.00  0.00     0.305 C 
ENDBRANCH  18  19
ENDBRANCH  17  18
ENDBRANCH  16  17
ENDBRANCH  12  15
ENDBRANCH   1  11
BRANCH   4  26
HETATM   26  N4  UNL     1      26.054   2.401  53.502  1.00  0.00    -0.340 N 
HETATM   27  H16 UNL     1      26.308   3.123  54.204  1.00  0.00     0.167 HD
BRANCH  26  28
HETATM   28  C14 UNL     1      27.077   1.420  53.503  1.00  0.00     0.035 A 
HETATM   29  C15 UNL     1      28.378   1.592  53.854  1.00  0.00     0.032 A 
HETATM   30  C16 UNL     1      29.347   0.623  53.843  1.00  0.00     0.046 A 
HETATM   31  C17 UNL     1      29.017  -0.654  53.449  1.00  0.00     0.138 A 
HETATM   32  F1  UNL     1      30.022  -1.562  53.463  1.00  0.00    -0.204 F 
HETATM   33  C18 UNL     1      27.707  -0.880  53.083  1.00  0.00     0.074 A 
HETATM   34 CL1  UNL     1      27.361  -2.536  52.591  1.00  0.00    -0.081 Cl
HETATM   35  C19 UNL     1      26.756   0.117  53.105  1.00  0.00     0.056 A 
ENDBRANCH  26  28
ENDBRANCH   4  26
TORSDOF 7
ENDMDL
MODEL 3
REMARK VINA RESULT:      -9.4      2.080      2.567
REMARK  7 active torsions:
REMARK  status: ('A' for Active; 'I' for Inactive)
REMARK    1  A    between atoms: N2_6  and  C5_7 
REMARK    2  A    between atoms: C5_7  and  C6_8 
REMARK    3  A    between atoms: C6_8  and  C7_9 
REMARK    4  A    between atoms: C8_10  and  C9_11 
REMARK       I    between atoms: C9_11  and  N3_13 
REMARK    5  A    between atoms: N3_13  and  C10_14 
REMARK    6  A    between atoms: C13_17  and  N4_18 
REMARK    7  A    between atoms: N4_18  and  C14_19 
ROOT
HETATM    1  C10 UNL     1      24.781   3.749  50.089  1.00  0.00     0.131 A 
HETATM    2  C11 UNL     1      25.079   3.070  51.256  1.00  0.00     0.068 A 
HETATM    3  C12 UNL     1      24.299   2.094  51.821  1.00  0.00     0.044 A 
HETATM    4  C13 UNL     1      24.587   1.415  52.976  1.00  0.00     0.142 A 
HETATM    5  N5  UNL     1      23.669   0.511  53.319  1.00  0.00    -0.224 NA
HETATM    6  C20 UNL     1      22.553   0.241  52.649  1.00  0.00     0.236 A 
HETATM    7  N6  UNL     1      22.277   0.908  51.519  1.00  0.00    -0.240 NA
HETATM    8  C21 UNL     1      23.153   1.838  51.105  1.00  0.00     0.089 A 
HETATM    9  C22 UNL     1      22.837   2.498  49.947  1.00  0.00     0.151 A 
HETATM   10  N7  UNL     1      23.645   3.444  49.447  1.00  0.00    -0.241 NA
ENDROOT
BRANCH   1  11
HETATM   11  N3  UNL     1      25.691   4.758  49.601  1.00  0.00    -0.301 N 
HETATM   12  C9  UNL     1      26.952   4.276  49.090  1.00  0.00     0.302 C 
HETATM   13  O1  UNL     1      27.195   3.044  49.090  1.00  0.00    -0.258 OA
HETATM   14  H14 UNL     1      25.399   5.761  49.640  1.00  0.00     0.171 HD
BRANCH  12  15
HETATM   15  C8  UNL     1      27.843   5.282  48.610  1.00  0.00    -0.005 C 
HETATM   16  C7  UNL     1      28.579   6.144  48.209  1.00  0.00    -0.095 C 
BRANCH  16  17
HETATM   17  C6  UNL     1      29.474   7.227  47.724  1.00  0.00     0.124 C 
BRANCH  17  18
HETATM   18  C5  UNL     1      30.750   6.640  47.188  1.00  0.00     0.287 C 
BRANCH  18  19
HETATM   19  N2  UNL     1      31.421   5.749  48.101  1.00  0.00     0.124 N 
HETATM   20  C2  UNL     1      32.279   4.850  47.364  1.00  0.00     0.450 C 
HETATM   21  C1  UNL     1      31.617   3.631  46.813  1.00  0.00     0.077 C 
HETATM   22  N1  UNL     1      33.286   4.482  48.358  1.00  0.00     0.118 N 
HETATM   23  C3  UNL     1      33.688   5.761  48.872  1.00  0.00     0.302 C 
HETATM   24  H5  UNL     1      32.762   3.976  49.108  1.00  0.00     0.318 HD
HETATM   25  C4  UNL     1      32.460   6.592  48.746  1.00  0.00     0.305 C 
ENDBRANCH  18  19
ENDBRANCH  17  18
ENDBRANCH  16  17
ENDBRANCH  12  15
ENDBRANCH   1  11
BRANCH   4  26
HETATM   26  N4  UNL     1      25.775   1.716  53.674  1.00  0.00    -0.340 N 
HETATM   27  H16 UNL     1      25.841   2.535  54.307  1.00  0.00     0.167 HD
BRANCH  26  28
HETATM   28  C14 UNL     1      27.029   1.055  53.691  1.00  0.00     0.035 A 
HETATM   29  C15 UNL     1      28.233   1.588  54.025  1.00  0.00     0.032 A 
HETATM   30  C16 UNL     1      29.431   0.924  54.031  1.00  0.00     0.046 A 
HETATM   31  C17 UNL     1      29.465  -0.405  53.674  1.00  0.00     0.138 A 
HETATM   32  F1  UNL     1      30.681  -1.000  53.702  1.00  0.00    -0.204 F 
HETATM   33  C18 UNL     1      28.268  -0.993  53.326  1.00  0.00     0.074 A 
HETATM   34 CL1  UNL     1      28.391  -2.693  52.880  1.00  0.00    -0.081 Cl
HETATM   35  C19 UNL     1      27.079  -0.297  53.330  1.00  0.00     0.056 A 
ENDBRANCH  26  28
ENDBRANCH   4  26
TORSDOF 7
ENDMDL
MODEL 4
REMARK VINA RESULT:      -9.2      3.202      3.864
REMARK  7 active torsions:
REMARK  status: ('A' for Active; 'I' for Inactive)
REMARK    1  A    between atoms: N2_6  and  C5_7 
REMARK    2  A    between atoms: C5_7  and  C6_8 
REMARK    3  A    between atoms: C6_8  and  C7_9 
REMARK    4  A    between atoms: C8_10  and  C9_11 
REMARK       I    between atoms: C9_11  and  N3_13 
REMARK    5  A    between atoms: N3_13  and  C10_14 
REMARK    6  A    between atoms: C13_17  and  N4_18 
REMARK    7  A    between atoms: N4_18  and  C14_19 
ROOT
HETATM    1  C10 UNL     1      25.126   5.210  49.593  1.00  0.00     0.131 A 
HETATM    2  C11 UNL     1      25.034   4.429  50.730  1.00  0.00     0.068 A 
HETATM    3  C12 UNL     1      23.875   3.886  51.223  1.00  0.00     0.044 A 
HETATM    4  C13 UNL     1      23.776   3.110  52.348  1.00  0.00     0.142 A 
HETATM    5  N5  UNL     1      22.537   2.701  52.619  1.00  0.00    -0.224 NA
HETATM    6  C20 UNL     1      21.450   2.981  51.906  1.00  0.00     0.236 A 
HETATM    7  N6  UNL     1      21.554   3.741  50.806  1.00  0.00    -0.240 NA
HETATM    8  C21 UNL     1      22.771   4.195  50.464  1.00  0.00     0.089 A 
HETATM    9  C22 UNL     1      22.836   4.967  49.335  1.00  0.00     0.151 A 
HETATM   10  N7  UNL     1      24.004   5.468  48.906  1.00  0.00    -0.241 NA
ENDROOT
BRANCH   1  11
HETATM   11  N3  UNL     1      26.412   5.721  49.183  1.00  0.00    -0.301 N 
HETATM   12  C9  UNL     1      27.407   4.731  48.846  1.00  0.00     0.302 C 
HETATM   13  O1  UNL     1      27.122   3.511  48.920  1.00  0.00    -0.258 OA
HETATM   14  H14 UNL     1      26.555   6.757  49.150  1.00  0.00     0.171 HD
BRANCH  12  15
HETATM   15  C8  UNL     1      28.674   5.249  48.442  1.00  0.00    -0.005 C 
HETATM   16  C7  UNL     1      29.731   5.694  48.086  1.00  0.00    -0.095 C 
BRANCH  16  17
HETATM   17  C6  UNL     1      31.028   6.263  47.632  1.00  0.00     0.124 C 
BRANCH  17  18
HETATM   18  C5  UNL     1      31.968   5.157  47.243  1.00  0.00     0.287 C 
BRANCH  18  19
HETATM   19  N2  UNL     1      32.836   4.717  48.304  1.00  0.00     0.124 N 
HETATM   20  C2  UNL     1      33.779   3.748  47.796  1.00  0.00     0.450 C 
HETATM   21  C1  UNL     1      33.291   2.338  47.742  1.00  0.00     0.077 C 
HETATM   22  N1  UNL     1      34.898   3.867  48.728  1.00  0.00     0.118 N 
HETATM   23  C3  UNL     1      35.118   5.286  48.759  1.00  0.00     0.302 C 
HETATM   24  H5  UNL     1      34.516   3.574  49.657  1.00  0.00     0.318 HD
HETATM   25  C4  UNL     1      33.764   5.857  48.521  1.00  0.00     0.305 C 
ENDBRANCH  18  19
ENDBRANCH  17  18
ENDBRANCH  16  17
ENDBRANCH  12  15
ENDBRANCH   1  11
BRANCH   4  26
HETATM   26  N4  UNL     1      24.939   2.823  53.091  1.00  0.00    -0.340 N 
HETATM   27  H16 UNL     1      25.299   3.477  53.813  1.00  0.00     0.167 HD
BRANCH  26  28
HETATM   28  C14 UNL     1      25.807   1.703  53.053  1.00  0.00     0.035 A 
HETATM   29  C15 UNL     1      25.524   0.461  52.580  1.00  0.00     0.032 A 
HETATM   30  C16 UNL     1      26.384  -0.605  52.558  1.00  0.00     0.046 A 
HETATM   31  C17 UNL     1      27.661  -0.449  53.048  1.00  0.00     0.138 A 
HETATM   32  F1  UNL     1      28.459  -1.542  52.995  1.00  0.00    -0.204 F 
HETATM   33  C18 UNL     1      27.998   0.794  53.540  1.00  0.00     0.074 A 
HETATM   34 CL1  UNL     1      29.646   0.917  54.150  1.00  0.00    -0.081 Cl
HETATM   35  C19 UNL     1      27.109   1.846  53.549  1.00  0.00     0.056 A 
ENDBRANCH  26  28
ENDBRANCH   4  26
TORSDOF 7
ENDMDL
MODEL 5
REMARK VINA RESULT:      -8.9      2.033      2.370
REMARK  7 active torsions:
REMARK  status: ('A' for Active; 'I' for Inactive)
REMARK    1  A    between atoms: N2_6  and  C5_7 
REMARK    2  A    between atoms: C5_7  and  C6_8 
REMARK    3  A    between atoms: C6_8  and  C7_9 
REMARK    4  A    between atoms: C8_10  and  C9_11 
REMARK       I    between atoms: C9_11  and  N3_13 
REMARK    5  A    between atoms: N3_13  and  C10_14 
REMARK    6  A    between atoms: C13_17  and  N4_18 
REMARK    7  A    between atoms: N4_18  and  C14_19 
ROOT
HETATM    1  C10 UNL     1      23.805   4.807  51.172  1.00  0.00     0.131 A 
HETATM    2  C11 UNL     1      23.728   3.472  51.524  1.00  0.00     0.068 A 
HETATM    3  C12 UNL     1      22.611   2.851  52.020  1.00  0.00     0.044 A 
HETATM    4  C13 UNL     1      22.525   1.529  52.371  1.00  0.00     0.142 A 
HETATM    5  N5  UNL     1      21.328   1.164  52.828  1.00  0.00    -0.224 NA
HETATM    6  C20 UNL     1      20.269   1.956  52.961  1.00  0.00     0.236 A 
HETATM    7  N6  UNL     1      20.358   3.250  52.616  1.00  0.00    -0.240 NA
HETATM    8  C21 UNL     1      21.534   3.697  52.145  1.00  0.00     0.089 A 
HETATM    9  C22 UNL     1      21.587   5.023  51.804  1.00  0.00     0.151 A 
HETATM   10  N7  UNL     1      22.712   5.569  51.322  1.00  0.00    -0.241 NA
ENDROOT
BRANCH   1  11
HETATM   11  N3  UNL     1      25.046   5.337  50.659  1.00  0.00    -0.301 N 
HETATM   12  C9  UNL     1      25.213   5.279  49.227  1.00  0.00     0.302 C 
HETATM   13  O1  UNL     1      24.304   4.790  48.512  1.00  0.00    -0.258 OA
HETATM   14  H14 UNL     1      25.744   5.726  51.334  1.00  0.00     0.171 HD
BRANCH  12  15
HETATM   15  C8  UNL     1      26.443   5.806  48.732  1.00  0.00    -0.005 C 
HETATM   16  C7  UNL     1      27.476   6.268  48.324  1.00  0.00    -0.095 C 
BRANCH  16  17
HETATM   17  C6  UNL     1      28.750   6.857  47.837  1.00  0.00     0.124 C 
BRANCH  17  18
HETATM   18  C5  UNL     1      28.499   8.219  47.253  1.00  0.00     0.287 C 
BRANCH  18  19
HETATM   19  N2  UNL     1      29.097   9.300  47.993  1.00  0.00     0.124 N 
HETATM   20  C2  UNL     1      28.915   9.082  49.409  1.00  0.00     0.450 C 
HETATM   21  C1  UNL     1      27.613   9.546  49.972  1.00  0.00     0.077 C 
HETATM   22  N1  UNL     1      30.023   9.834  49.995  1.00  0.00     0.118 N 
HETATM   23  C3  UNL     1      31.146   9.366  49.232  1.00  0.00     0.302 C 
HETATM   24  H5  UNL     1      29.846  10.833  49.739  1.00  0.00     0.318 HD
HETATM   25  C4  UNL     1      30.558   9.048  47.901  1.00  0.00     0.305 C 
ENDBRANCH  18  19
ENDBRANCH  17  18
ENDBRANCH  16  17
ENDBRANCH  12  15
ENDBRANCH   1  11
BRANCH   4  26
HETATM   26  N4  UNL     1      23.658   0.703  52.224  1.00  0.00    -0.340 N 
HETATM   27  H16 UNL     1      23.776   0.082  51.401  1.00  0.00     0.167 HD
BRANCH  26  28
HETATM   28  C14 UNL     1      24.792   0.532  53.058  1.00  0.00     0.035 A 
HETATM   29  C15 UNL     1      24.926  -0.341  54.091  1.00  0.00     0.032 A 
HETATM   30  C16 UNL     1      26.035  -0.483  54.883  1.00  0.00     0.046 A 
HETATM   31  C17 UNL     1      27.136   0.309  54.647  1.00  0.00     0.138 A 
HETATM   32  F1  UNL     1      28.197   0.117  55.466  1.00  0.00    -0.204 F 
HETATM   33  C18 UNL     1      27.049   1.213  53.609  1.00  0.00     0.074 A 
HETATM   34 CL1  UNL     1      28.494   2.191  53.369  1.00  0.00    -0.081 Cl
HETATM   35  C19 UNL     1      25.918   1.331  52.831  1.00  0.00     0.056 A 
ENDBRANCH  26  28
ENDBRANCH   4  26
TORSDOF 7
ENDMDL
MODEL 6
REMARK VINA RESULT:      -8.8      2.159      3.058
REMARK  7 active torsions:
REMARK  status: ('A' for Active; 'I' for Inactive)
REMARK    1  A    between atoms: N2_6  and  C5_7 
REMARK    2  A    between atoms: C5_7  and  C6_8 
REMARK    3  A    between atoms: C6_8  and  C7_9 
REMARK    4  A    between atoms: C8_10  and  C9_11 
REMARK       I    between atoms: C9_11  and  N3_13 
REMARK    5  A    between atoms: N3_13  and  C10_14 
REMARK    6  A    between atoms: C13_17  and  N4_18 
REMARK    7  A    between atoms: N4_18  and  C14_19 
ROOT
HETATM    1  C10 UNL     1      22.082   2.492  51.649  1.00  0.00     0.131 A 
HETATM    2  C11 UNL     1      22.990   1.534  52.058  1.00  0.00     0.068 A 
HETATM    3  C12 UNL     1      22.757   0.587  53.022  1.00  0.00     0.044 A 
HETATM    4  C13 UNL     1      23.651  -0.367  53.432  1.00  0.00     0.142 A 
HETATM    5  N5  UNL     1      23.186  -1.174  54.386  1.00  0.00    -0.224 NA
HETATM    6  C20 UNL     1      21.976  -1.116  54.935  1.00  0.00     0.236 A 
HETATM    7  N6  UNL     1      21.106  -0.179  54.530  1.00  0.00    -0.240 NA
HETATM    8  C21 UNL     1      21.499   0.674  53.570  1.00  0.00     0.089 A 
HETATM    9  C22 UNL     1      20.583   1.616  53.182  1.00  0.00     0.151 A 
HETATM   10  N7  UNL     1      20.874   2.515  52.231  1.00  0.00    -0.241 NA
ENDROOT
BRANCH   1  11
HETATM   11  N3  UNL     1      22.455   3.433  50.620  1.00  0.00    -0.301 N 
HETATM   12  C9  UNL     1      23.115   4.634  51.071  1.00  0.00     0.302 C 
HETATM   13  O1  UNL     1      23.331   4.804  52.297  1.00  0.00    -0.258 OA
HETATM   14  H14 UNL     1      22.235   3.203  49.623  1.00  0.00     0.171 HD
BRANCH  12  15
HETATM   15  C8  UNL     1      23.479   5.556  50.045  1.00  0.00    -0.005 C 
HETATM   16  C7  UNL     1      23.768   6.343  49.183  1.00  0.00    -0.095 C 
BRANCH  16  17
HETATM   17  C6  UNL     1      24.106   7.331  48.126  1.00  0.00     0.124 C 
BRANCH  17  18
HETATM   18  C5  UNL     1      25.554   7.200  47.742  1.00  0.00     0.287 C 
BRANCH  18  19
HETATM   19  N2  UNL     1      26.474   7.367  48.837  1.00  0.00     0.124 N 
HETATM   20  C2  UNL     1      27.829   7.184  48.370  1.00  0.00     0.450 C 
HETATM   21  C1  UNL     1      28.307   5.771  48.312  1.00  0.00     0.077 C 
HETATM   22  N1  UNL     1      28.609   7.949  49.341  1.00  0.00     0.118 N 
HETATM   23  C3  UNL     1      27.914   9.205  49.367  1.00  0.00     0.302 C 
HETATM   24  H5  UNL     1      28.456   7.470  50.258  1.00  0.00     0.318 HD
HETATM   25  C4  UNL     1      26.503   8.833  49.077  1.00  0.00     0.305 C 
ENDBRANCH  18  19
ENDBRANCH  17  18
ENDBRANCH  16  17
ENDBRANCH  12  15
ENDBRANCH   1  11
BRANCH   4  26
HETATM   26  N4  UNL     1      24.929  -0.415  52.839  1.00  0.00    -0.340 N 
HETATM   27  H16 UNL     1      25.102  -0.943  51.962  1.00  0.00     0.167 HD
BRANCH  26  28
HETATM   28  C14 UNL     1      26.154   0.178  53.235  1.00  0.00     0.035 A 
HETATM   29  C15 UNL     1      26.371   1.481  53.551  1.00  0.00     0.032 A 
HETATM   30  C16 UNL     1      27.569   2.028  53.929  1.00  0.00     0.046 A 
HETATM   31  C17 UNL     1      28.681   1.220  54.010  1.00  0.00     0.138 A 
HETATM   32  F1  UNL     1      29.832   1.823  54.390  1.00  0.00    -0.204 F 
HETATM   33  C18 UNL     1      28.513  -0.113  53.698  1.00  0.00     0.074 A 
HETATM   34 CL1  UNL     1      29.978  -1.083  53.823  1.00  0.00    -0.081 Cl
HETATM   35  C19 UNL     1      27.293  -0.631  53.321  1.00  0.00     0.056 A 
ENDBRANCH  26  28
ENDBRANCH   4  26
TORSDOF 7
ENDMDL
MODEL 7
REMARK VINA RESULT:      -8.7      2.819      3.430
REMARK  7 active torsions:
REMARK  status: ('A' for Active; 'I' for Inactive)
REMARK    1  A    between atoms: N2_6  and  C5_7 
REMARK    2  A    between atoms: C5_7  and  C6_8 
REMARK    3  A    between atoms: C6_8  and  C7_9 
REMARK    4  A    between atoms: C8_10  and  C9_11 
REMARK       I    between atoms: C9_11  and  N3_13 
REMARK    5  A    between atoms: N3_13  and  C10_14 
REMARK    6  A    between atoms: C13_17  and  N4_18 
REMARK    7  A    between atoms: N4_18  and  C14_19 
ROOT
HETATM    1  C10 UNL     1      24.061   5.034  51.049  1.00  0.00     0.131 A 
HETATM    2  C11 UNL     1      23.843   3.711  51.385  1.00  0.00     0.068 A 
HETATM    3  C12 UNL     1      22.655   3.199  51.840  1.00  0.00     0.044 A 
HETATM    4  C13 UNL     1      22.430   1.889  52.175  1.00  0.00     0.142 A 
HETATM    5  N5  UNL     1      21.188   1.639  52.590  1.00  0.00    -0.224 NA
HETATM    6  C20 UNL     1      20.208   2.530  52.695  1.00  0.00     0.236 A 
HETATM    7  N6  UNL     1      20.434   3.810  52.366  1.00  0.00    -0.240 NA
HETATM    8  C21 UNL     1      21.662   4.145  51.937  1.00  0.00     0.089 A 
HETATM    9  C22 UNL     1      21.854   5.461  51.611  1.00  0.00     0.151 A 
HETATM   10  N7  UNL     1      23.043   5.898  51.171  1.00  0.00    -0.241 NA
ENDROOT
BRANCH   1  11
HETATM   11  N3  UNL     1      25.363   5.444  50.582  1.00  0.00    -0.301 N 
HETATM   12  C9  UNL     1      25.513   5.562  49.151  1.00  0.00     0.302 C 
HETATM   13  O1  UNL     1      24.538   5.313  48.400  1.00  0.00    -0.258 OA
HETATM   14  H14 UNL     1      26.114   5.632  51.285  1.00  0.00     0.171 HD
BRANCH  12  15
HETATM   15  C8  UNL     1      26.805   5.968  48.701  1.00  0.00    -0.005 C 
HETATM   16  C7  UNL     1      27.885   6.316  48.305  1.00  0.00    -0.095 C 
BRANCH  16  17
HETATM   17  C6  UNL     1      29.209   6.762  47.797  1.00  0.00     0.124 C 
BRANCH  17  18
HETATM   18  C5  UNL     1      30.291   5.858  48.317  1.00  0.00     0.287 C 
BRANCH  18  19
HETATM   19  N2  UNL     1      31.585   6.085  47.725  1.00  0.00     0.124 N 
HETATM   20  C2  UNL     1      32.511   6.542  48.736  1.00  0.00     0.450 C 
HETATM   21  C1  UNL     1      32.490   8.008  49.017  1.00  0.00     0.077 C 
HETATM   22  N1  UNL     1      33.806   6.144  48.188  1.00  0.00     0.118 N 
HETATM   23  C3  UNL     1      33.581   4.768  47.846  1.00  0.00     0.302 C 
HETATM   24  H5  UNL     1      33.912   6.690  47.303  1.00  0.00     0.318 HD
HETATM   25  C4  UNL     1      32.134   4.723  47.501  1.00  0.00     0.305 C 
ENDBRANCH  18  19
ENDBRANCH  17  18
ENDBRANCH  16  17
ENDBRANCH  12  15
ENDBRANCH   1  11
BRANCH   4  26
HETATM   26  N4  UNL     1      23.482   0.958  52.057  1.00  0.00    -0.340 N 
HETATM   27  H16 UNL     1      23.557   0.322  51.240  1.00  0.00     0.167 HD
BRANCH  26  28
HETATM   28  C14 UNL     1      24.578   0.687  52.915  1.00  0.00     0.035 A 
HETATM   29  C15 UNL     1      24.663  -0.294  53.851  1.00  0.00     0.032 A 
HETATM   30  C16 UNL     1      25.736  -0.531  54.670  1.00  0.00     0.046 A 
HETATM   31  C17 UNL     1      26.849   0.273  54.569  1.00  0.00     0.138 A 
HETATM   32  F1  UNL     1      27.873  -0.017  55.407  1.00  0.00    -0.204 F 
HETATM   33  C18 UNL     1      26.812   1.284  53.633  1.00  0.00     0.074 A 
HETATM   34 CL1  UNL     1      28.270   2.270  53.563  1.00  0.00    -0.081 Cl
HETATM   35  C19 UNL     1      25.716   1.497  52.825  1.00  0.00     0.056 A 
ENDBRANCH  26  28
ENDBRANCH   4  26
TORSDOF 7
ENDMDL
MODEL 8
REMARK VINA RESULT:      -8.6      4.174      9.455
REMARK  7 active torsions:
REMARK  status: ('A' for Active; 'I' for Inactive)
REMARK    1  A    between atoms: N2_6  and  C5_7 
REMARK    2  A    between atoms: C5_7  and  C6_8 
REMARK    3  A    between atoms: C6_8  and  C7_9 
REMARK    4  A    between atoms: C8_10  and  C9_11 
REMARK       I    between atoms: C9_11  and  N3_13 
REMARK    5  A    between atoms: N3_13  and  C10_14 
REMARK    6  A    between atoms: C13_17  and  N4_18 
REMARK    7  A    between atoms: N4_18  and  C14_19 
ROOT
HETATM    1  C10 UNL     1      30.657   7.218  48.476  1.00  0.00     0.131 A 
HETATM    2  C11 UNL     1      31.627   6.843  47.565  1.00  0.00     0.068 A 
HETATM    3  C12 UNL     1      32.580   7.677  47.040  1.00  0.00     0.044 A 
HETATM    4  C13 UNL     1      33.546   7.313  46.138  1.00  0.00     0.142 A 
HETATM    5  N5  UNL     1      34.358   8.308  45.780  1.00  0.00    -0.224 NA
HETATM    6  C20 UNL     1      34.294   9.562  46.216  1.00  0.00     0.236 A 
HETATM    7  N6  UNL     1      33.347   9.912  47.099  1.00  0.00    -0.240 NA
HETATM    8  C21 UNL     1      32.488   8.966  47.512  1.00  0.00     0.089 A 
HETATM    9  C22 UNL     1      31.535   9.361  48.413  1.00  0.00     0.151 A 
HETATM   10  N7  UNL     1      30.630   8.493  48.888  1.00  0.00    -0.241 NA
ENDROOT
BRANCH   1  11
HETATM   11  N3  UNL     1      29.710   6.238  48.951  1.00  0.00    -0.301 N 
HETATM   12  C9  UNL     1      28.484   6.127  48.197  1.00  0.00     0.302 C 
HETATM   13  O1  UNL     1      28.300   6.861  47.195  1.00  0.00    -0.258 OA
HETATM   14  H14 UNL     1      29.953   5.671  49.795  1.00  0.00     0.171 HD
BRANCH  12  15
HETATM   15  C8  UNL     1      27.555   5.155  48.677  1.00  0.00    -0.005 C 
HETATM   16  C7  UNL     1      26.788   4.329  49.093  1.00  0.00    -0.095 C 
BRANCH  16  17
HETATM   17  C6  UNL     1      25.854   3.304  49.628  1.00  0.00     0.124 C 
BRANCH  17  18
HETATM   18  C5  UNL     1      24.479   3.891  49.783  1.00  0.00     0.287 C 
BRANCH  18  19
HETATM   19  N2  UNL     1      24.174   4.338  51.118  1.00  0.00     0.124 N 
HETATM   20  C2  UNL     1      23.547   5.639  51.067  1.00  0.00     0.450 C 
HETATM   21  C1  UNL     1      24.478   6.803  50.993  1.00  0.00     0.077 C 
HETATM   22  N1  UNL     1      22.779   5.674  52.310  1.00  0.00     0.118 N 
HETATM   23  C3  UNL     1      22.076   4.423  52.269  1.00  0.00     0.302 C 
HETATM   24  H5  UNL     1      23.490   5.627  53.075  1.00  0.00     0.318 HD
HETATM   25  C4  UNL     1      22.998   3.525  51.523  1.00  0.00     0.305 C 
ENDBRANCH  18  19
ENDBRANCH  17  18
ENDBRANCH  16  17
ENDBRANCH  12  15
ENDBRANCH   1  11
BRANCH   4  26
HETATM   26  N4  UNL     1      33.598   5.979  45.686  1.00  0.00    -0.340 N 
HETATM   27  H16 UNL     1      33.688   5.749  44.678  1.00  0.00     0.167 HD
BRANCH  26  28
HETATM   28  C14 UNL     1      33.551   4.757  46.404  1.00  0.00     0.035 A 
HETATM   29  C15 UNL     1      34.375   4.365  47.410  1.00  0.00     0.032 A 
HETATM   30  C16 UNL     1      34.307   3.175  48.086  1.00  0.00     0.046 A 
HETATM   31  C17 UNL     1      33.332   2.264  47.747  1.00  0.00     0.138 A 
HETATM   32  F1  UNL     1      33.322   1.109  48.455  1.00  0.00    -0.204 F 
HETATM   33  C18 UNL     1      32.470   2.615  46.730  1.00  0.00     0.074 A 
HETATM   34 CL1  UNL     1      31.251   1.400  46.353  1.00  0.00    -0.081 Cl
HETATM   35  C19 UNL     1      32.565   3.821  46.070  1.00  0.00     0.056 A 
ENDBRANCH  26  28
ENDBRANCH   4  26
TORSDOF 7
ENDMDL
MODEL 9
REMARK VINA RESULT:      -8.6      1.484      1.962
REMARK  7 active torsions:
REMARK  status: ('A' for Active; 'I' for Inactive)
REMARK    1  A    between atoms: N2_6  and  C5_7 
REMARK    2  A    between atoms: C5_7  and  C6_8 
REMARK    3  A    between atoms: C6_8  and  C7_9 
REMARK    4  A    between atoms: C8_10  and  C9_11 
REMARK       I    between atoms: C9_11  and  N3_13 
REMARK    5  A    between atoms: N3_13  and  C10_14 
REMARK    6  A    between atoms: C13_17  and  N4_18 
REMARK    7  A    between atoms: N4_18  and  C14_19 
ROOT
HETATM    1  C10 UNL     1      24.152   2.741  49.781  1.00  0.00     0.131 A 
HETATM    2  C11 UNL     1      24.178   2.173  51.041  1.00  0.00     0.068 A 
HETATM    3  C12 UNL     1      23.119   1.543  51.643  1.00  0.00     0.044 A 
HETATM    4  C13 UNL     1      23.136   0.975  52.891  1.00  0.00     0.142 A 
HETATM    5  N5  UNL     1      21.979   0.422  53.253  1.00  0.00    -0.224 NA
HETATM    6  C20 UNL     1      20.869   0.387  52.522  1.00  0.00     0.236 A 
HETATM    7  N6  UNL     1      20.858   0.944  51.301  1.00  0.00    -0.240 NA
HETATM    8  C21 UNL     1      21.988   1.524  50.862  1.00  0.00     0.089 A 
HETATM    9  C22 UNL     1      21.938   2.081  49.612  1.00  0.00     0.151 A 
HETATM   10  N7  UNL     1      23.011   2.683  49.079  1.00  0.00    -0.241 NA
ENDROOT
BRANCH   1  11
HETATM   11  N3  UNL     1      25.340   3.376  49.262  1.00  0.00    -0.301 N 
HETATM   12  C9  UNL     1      25.409   4.809  49.416  1.00  0.00     0.302 C 
HETATM   13  O1  UNL     1      24.467   5.422  49.976  1.00  0.00    -0.258 OA
HETATM   14  H14 UNL     1      26.074   2.780  48.813  1.00  0.00     0.171 HD
BRANCH  12  15
HETATM   15  C8  UNL     1      26.588   5.425  48.899  1.00  0.00    -0.005 C 
HETATM   16  C7  UNL     1      27.578   5.960  48.476  1.00  0.00    -0.095 C 
BRANCH  16  17
HETATM   17  C6  UNL     1      28.801   6.637  47.972  1.00  0.00     0.124 C 
BRANCH  17  18
HETATM   18  C5  UNL     1      28.502   8.078  47.663  1.00  0.00     0.287 C 
BRANCH  18  19
HETATM   19  N2  UNL     1      28.724   8.978  48.765  1.00  0.00     0.124 N 
HETATM   20  C2  UNL     1      29.917   9.758  48.527  1.00  0.00     0.450 C 
HETATM   21  C1  UNL     1      31.203   9.111  48.922  1.00  0.00     0.077 C 
HETATM   22  N1  UNL     1      29.680  10.958  49.327  1.00  0.00     0.118 N 
HETATM   23  C3  UNL     1      28.357  11.339  48.920  1.00  0.00     0.302 C 
HETATM   24  H5  UNL     1      29.637  10.626  50.317  1.00  0.00     0.318 HD
HETATM   25  C4  UNL     1      27.705  10.043  48.586  1.00  0.00     0.305 C 
ENDBRANCH  18  19
ENDBRANCH  17  18
ENDBRANCH  16  17
ENDBRANCH  12  15
ENDBRANCH   1  11
BRANCH   4  26
HETATM   26  N4  UNL     1      24.322   1.022  53.652  1.00  0.00    -0.340 N 
HETATM   27  H16 UNL     1      24.403   1.620  54.496  1.00  0.00     0.167 HD
BRANCH  26  28
HETATM   28  C14 UNL     1      25.556   0.344  53.484  1.00  0.00     0.035 A 
HETATM   29  C15 UNL     1      25.748  -0.886  52.941  1.00  0.00     0.032 A 
HETATM   30  C16 UNL     1      26.954  -1.519  52.792  1.00  0.00     0.046 A 
HETATM   31  C17 UNL     1      28.101  -0.888  53.219  1.00  0.00     0.138 A 
HETATM   32  F1  UNL     1      29.259  -1.568  53.042  1.00  0.00    -0.204 F 
HETATM   33  C18 UNL     1      27.959   0.365  53.778  1.00  0.00     0.074 A 
HETATM   34 CL1  UNL     1      29.469   1.108  54.299  1.00  0.00    -0.081 Cl
HETATM   35  C19 UNL     1      26.730   0.973  53.913  1.00  0.00     0.056 A 
ENDBRANCH  26  28
ENDBRANCH   4  26
TORSDOF 7
ENDMDL
