MODEL 1
REMARK VINA RESULT:      -7.1      0.000      0.000
REMARK  8 active torsions:
REMARK  status: ('A' for Active; 'I' for Inactive)
REMARK    1  A    between atoms: N1_7  and  C7_8 
REMARK    2  A    between atoms: C9_11  and  C10_13 
REMARK    3  A    between atoms: C11_14  and  N3_15 
REMARK       I    between atoms: N3_15  and  C12_16 
REMARK    4  A    between atoms: C12_16  and  C13_18 
REMARK    5  A    between atoms: C13_18  and  O2_19 
REMARK    6  A    between atoms: O2_19  and  C14_20 
REMARK    7  A    between atoms: C14_20  and  C15_21 
REMARK    8  A    between atoms: C15_21  and  C16_22 
ROOT
HETATM    1  C7  UNL     1      26.238   0.540  52.548  1.00  0.00     0.261 A 
HETATM    2  N2  UNL     1      26.202   1.978  52.465  1.00  0.00    -0.272 NA
HETATM    3  C8  UNL     1      25.372   2.246  53.404  1.00  0.00     0.137 A 
HETATM    4  C9  UNL     1      25.261   0.763  53.661  1.00  0.00     0.196 A 
HETATM    5  F1  UNL     1      25.726   0.520  54.926  1.00  0.00    -0.228 F 
ENDROOT
BRANCH   4   6
HETATM    6  C10 UNL     1      23.936   0.230  53.343  1.00  0.00     0.043 C 
HETATM    7  C11 UNL     1      23.458  -0.760  54.081  1.00  0.00     0.091 C 
BRANCH   7   8
HETATM    8  N3  UNL     1      22.153  -1.297  53.781  1.00  0.00    -0.336 N 
HETATM    9  C12 UNL     1      20.918  -0.778  54.275  1.00  0.00     0.245 C 
HETATM   10  O1  UNL     1      20.990   0.220  55.025  1.00  0.00    -0.271 OA
HETATM   11  H11 UNL     1      22.319  -2.120  53.144  1.00  0.00     0.168 HD
BRANCH   9  12
HETATM   12  C13 UNL     1      19.793  -1.584  53.757  1.00  0.00     0.270 C 
BRANCH  12  13
HETATM   13  O2  UNL     1      18.925  -0.819  53.007  1.00  0.00    -0.382 OA
BRANCH  13  14
HETATM   14  C14 UNL     1      17.631  -1.292  53.155  1.00  0.00     0.168 C 
BRANCH  14  15
HETATM   15  C15 UNL     1      17.608  -2.665  53.744  1.00  0.00     0.026 C 
BRANCH  15  16
HETATM   16  C16 UNL     1      16.533  -3.523  53.119  1.00  0.00    -0.002 C 
HETATM   17  C17 UNL     1      16.646  -4.957  53.540  1.00  0.00     0.005 C 
ENDBRANCH  15  16
ENDBRANCH  14  15
ENDBRANCH  13  14
ENDBRANCH  12  13
ENDBRANCH   9  12
ENDBRANCH   7   8
ENDBRANCH   4   6
BRANCH   1  18
HETATM   18  N1  UNL     1      27.556   0.119  52.931  1.00  0.00    -0.330 N 
HETATM   19  C2  UNL     1      27.960  -1.235  52.931  1.00  0.00     0.026 A 
HETATM   20  C1  UNL     1      27.121  -2.192  52.567  1.00  0.00     0.043 C 
HETATM   21  C3  UNL     1      29.287  -1.704  53.311  1.00  0.00     0.029 A 
HETATM   22  C4  UNL     1      30.182  -0.783  53.689  1.00  0.00     0.004 A 
HETATM   23  C5  UNL     1      29.790   0.634  53.701  1.00  0.00     0.017 A 
HETATM   24  C6  UNL     1      28.575   1.022  53.347  1.00  0.00     0.093 A 
ENDBRANCH   1  18
TORSDOF 8
ENDMDL
MODEL 2
REMARK VINA RESULT:      -7.1      1.804      2.832
REMARK  8 active torsions:
REMARK  status: ('A' for Active; 'I' for Inactive)
REMARK    1  A    between atoms: N1_7  and  C7_8 
REMARK    2  A    between atoms: C9_11  and  C10_13 
REMARK    3  A    between atoms: C11_14  and  N3_15 
REMARK       I    between atoms: N3_15  and  C12_16 
REMARK    4  A    between atoms: C12_16  and  C13_18 
REMARK    5  A    between atoms: C13_18  and  O2_19 
REMARK    6  A    between atoms: O2_19  and  C14_20 
REMARK    7  A    between atoms: C14_20  and  C15_21 
REMARK    8  A    between atoms: C15_21  and  C16_22 
ROOT
HETATM    1  C7  UNL     1      26.354   0.657  52.517  1.00  0.00     0.261 A 
HETATM    2  N2  UNL     1      26.497   2.079  52.709  1.00  0.00    -0.272 NA
HETATM    3  C8  UNL     1      25.633   2.278  53.633  1.00  0.00     0.137 A 
HETATM    4  C9  UNL     1      25.324   0.801  53.595  1.00  0.00     0.196 A 
HETATM    5  F1  UNL     1      25.652   0.272  54.814  1.00  0.00    -0.228 F 
ENDROOT
BRANCH   4   6
HETATM    6  C10 UNL     1      23.974   0.516  53.105  1.00  0.00     0.043 C 
HETATM    7  C11 UNL     1      23.237  -0.366  53.760  1.00  0.00     0.091 C 
BRANCH   7   8
HETATM    8  N3  UNL     1      21.904  -0.659  53.292  1.00  0.00    -0.336 N 
HETATM    9  C12 UNL     1      20.698  -0.225  53.922  1.00  0.00     0.245 C 
HETATM   10  O1  UNL     1      20.824   0.460  54.960  1.00  0.00    -0.271 OA
HETATM   11  H11 UNL     1      22.025  -1.237  52.420  1.00  0.00     0.168 HD
BRANCH   9  12
HETATM   12  C13 UNL     1      19.531  -0.715  53.159  1.00  0.00     0.270 C 
BRANCH  12  13
HETATM   13  O2  UNL     1      18.895   0.312  52.493  1.00  0.00    -0.382 OA
BRANCH  13  14
HETATM   14  C14 UNL     1      19.056   0.157  51.126  1.00  0.00     0.168 C 
BRANCH  14  15
HETATM   15  C15 UNL     1      19.935   1.217  50.547  1.00  0.00     0.026 C 
BRANCH  15  16
HETATM   16  C16 UNL     1      21.242   0.648  50.048  1.00  0.00    -0.002 C 
HETATM   17  C17 UNL     1      21.923   1.573  49.084  1.00  0.00     0.005 C 
ENDBRANCH  15  16
ENDBRANCH  14  15
ENDBRANCH  13  14
ENDBRANCH  12  13
ENDBRANCH   9  12
ENDBRANCH   7   8
ENDBRANCH   4   6
BRANCH   1  18
HETATM   18  N1  UNL     1      27.576   0.002  52.887  1.00  0.00    -0.330 N 
HETATM   19  C2  UNL     1      27.752  -1.398  52.808  1.00  0.00     0.026 A 
HETATM   20  C1  UNL     1      26.774  -2.179  52.379  1.00  0.00     0.043 C 
HETATM   21  C3  UNL     1      28.975  -2.102  53.173  1.00  0.00     0.029 A 
HETATM   22  C4  UNL     1      30.002  -1.366  53.615  1.00  0.00     0.004 A 
HETATM   23  C5  UNL     1      29.849   0.093  53.709  1.00  0.00     0.017 A 
HETATM   24  C6  UNL     1      28.722   0.698  53.367  1.00  0.00     0.093 A 
ENDBRANCH   1  18
TORSDOF 8
ENDMDL
MODEL 3
REMARK VINA RESULT:      -6.9      4.855      9.166
REMARK  8 active torsions:
REMARK  status: ('A' for Active; 'I' for Inactive)
REMARK    1  A    between atoms: N1_7  and  C7_8 
REMARK    2  A    between atoms: C9_11  and  C10_13 
REMARK    3  A    between atoms: C11_14  and  N3_15 
REMARK       I    between atoms: N3_15  and  C12_16 
REMARK    4  A    between atoms: C12_16  and  C13_18 
REMARK    5  A    between atoms: C13_18  and  O2_19 
REMARK    6  A    between atoms: O2_19  and  C14_20 
REMARK    7  A    between atoms: C14_20  and  C15_21 
REMARK    8  A    between atoms: C15_21  and  C16_22 
ROOT
HETATM    1  C7  UNL     1      25.626  -0.090  52.952  1.00  0.00     0.261 A 
HETATM    2  N2  UNL     1      26.699  -0.737  53.665  1.00  0.00    -0.272 NA
HETATM    3  C8  UNL     1      27.377   0.282  54.042  1.00  0.00     0.137 A 
HETATM    4  C9  UNL     1      26.358   1.154  53.351  1.00  0.00     0.196 A 
HETATM    5  F1  UNL     1      25.752   1.928  54.303  1.00  0.00    -0.228 F 
ENDROOT
BRANCH   4   6
HETATM    6  C10 UNL     1      26.908   1.861  52.193  1.00  0.00     0.043 C 
HETATM    7  C11 UNL     1      26.189   2.827  51.642  1.00  0.00     0.091 C 
BRANCH   7   8
HETATM    8  N3  UNL     1      26.717   3.535  50.501  1.00  0.00    -0.336 N 
HETATM    9  C12 UNL     1      26.113   4.676  49.891  1.00  0.00     0.245 C 
HETATM   10  O1  UNL     1      25.044   5.080  50.396  1.00  0.00    -0.271 OA
HETATM   11  H11 UNL     1      27.607   3.036  50.238  1.00  0.00     0.168 HD
BRANCH   9  12
HETATM   12  C13 UNL     1      26.936   5.128  48.750  1.00  0.00     0.270 C 
BRANCH  12  13
HETATM   13  O2  UNL     1      28.240   4.696  48.864  1.00  0.00    -0.382 OA
BRANCH  13  14
HETATM   14  C14 UNL     1      29.089   5.586  48.229  1.00  0.00     0.168 C 
BRANCH  14  15
HETATM   15  C15 UNL     1      28.386   6.849  47.850  1.00  0.00     0.026 C 
BRANCH  15  16
HETATM   16  C16 UNL     1      29.147   7.619  46.797  1.00  0.00    -0.002 C 
HETATM   17  C17 UNL     1      30.597   7.237  46.764  1.00  0.00     0.005 C 
ENDBRANCH  15  16
ENDBRANCH  14  15
ENDBRANCH  13  14
ENDBRANCH  12  13
ENDBRANCH   9  12
ENDBRANCH   7   8
ENDBRANCH   4   6
BRANCH   1  18
HETATM   18  N1  UNL     1      24.386  -0.345  53.628  1.00  0.00    -0.330 N 
HETATM   19  C2  UNL     1      23.141   0.133  53.156  1.00  0.00     0.026 A 
HETATM   20  C1  UNL     1      23.069   0.848  52.045  1.00  0.00     0.043 C 
HETATM   21  C3  UNL     1      21.861  -0.103  53.811  1.00  0.00     0.029 A 
HETATM   22  C4  UNL     1      21.868  -0.821  54.940  1.00  0.00     0.004 A 
HETATM   23  C5  UNL     1      23.147  -1.330  55.457  1.00  0.00     0.017 A 
HETATM   24  C6  UNL     1      24.292  -1.097  54.833  1.00  0.00     0.093 A 
ENDBRANCH   1  18
TORSDOF 8
ENDMDL
MODEL 4
REMARK VINA RESULT:      -6.7      1.437      1.658
REMARK  8 active torsions:
REMARK  status: ('A' for Active; 'I' for Inactive)
REMARK    1  A    between atoms: N1_7  and  C7_8 
REMARK    2  A    between atoms: C9_11  and  C10_13 
REMARK    3  A    between atoms: C11_14  and  N3_15 
REMARK       I    between atoms: N3_15  and  C12_16 
REMARK    4  A    between atoms: C12_16  and  C13_18 
REMARK    5  A    between atoms: C13_18  and  O2_19 
REMARK    6  A    between atoms: O2_19  and  C14_20 
REMARK    7  A    between atoms: C14_20  and  C15_21 
REMARK    8  A    between atoms: C15_21  and  C16_22 
ROOT
HETATM    1  C7  UNL     1      26.251   0.593  52.486  1.00  0.00     0.261 A 
HETATM    2  N2  UNL     1      26.298   2.033  52.517  1.00  0.00    -0.272 NA
HETATM    3  C8  UNL     1      25.440   2.275  53.437  1.00  0.00     0.137 A 
HETATM    4  C9  UNL     1      25.236   0.785  53.569  1.00  0.00     0.196 A 
HETATM    5  F1  UNL     1      25.625   0.418  54.829  1.00  0.00    -0.228 F 
ENDROOT
BRANCH   4   6
HETATM    6  C10 UNL     1      23.900   0.356  53.152  1.00  0.00     0.043 C 
HETATM    7  C11 UNL     1      23.268  -0.546  53.885  1.00  0.00     0.091 C 
BRANCH   7   8
HETATM    8  N3  UNL     1      21.950  -0.979  53.487  1.00  0.00    -0.336 N 
HETATM    9  C12 UNL     1      20.726  -0.516  54.059  1.00  0.00     0.245 C 
HETATM   10  O1  UNL     1      20.821   0.329  54.974  1.00  0.00    -0.271 OA
HETATM   11  H11 UNL     1      22.097  -1.681  52.716  1.00  0.00     0.168 HD
BRANCH   9  12
HETATM   12  C13 UNL     1      19.583  -1.182  53.400  1.00  0.00     0.270 C 
BRANCH  12  13
HETATM   13  O2  UNL     1      18.656  -0.266  52.948  1.00  0.00    -0.382 OA
BRANCH  13  14
HETATM   14  C14 UNL     1      18.999   0.161  51.675  1.00  0.00     0.168 C 
BRANCH  14  15
HETATM   15  C15 UNL     1      17.894  -0.071  50.696  1.00  0.00     0.026 C 
BRANCH  15  16
HETATM   16  C16 UNL     1      16.543  -0.084  51.372  1.00  0.00    -0.002 C 
HETATM   17  C17 UNL     1      15.598  -1.044  50.714  1.00  0.00     0.005 C 
ENDBRANCH  15  16
ENDBRANCH  14  15
ENDBRANCH  13  14
ENDBRANCH  12  13
ENDBRANCH   9  12
ENDBRANCH   7   8
ENDBRANCH   4   6
BRANCH   1  18
HETATM   18  N1  UNL     1      27.524   0.067  52.891  1.00  0.00    -0.330 N 
HETATM   19  C2  UNL     1      27.828  -1.313  52.868  1.00  0.00     0.026 A 
HETATM   20  C1  UNL     1      26.931  -2.197  52.461  1.00  0.00     0.043 C 
HETATM   21  C3  UNL     1      29.106  -1.887  53.269  1.00  0.00     0.029 A 
HETATM   22  C4  UNL     1      30.056  -1.044  53.691  1.00  0.00     0.004 A 
HETATM   23  C5  UNL     1      29.769   0.398  53.727  1.00  0.00     0.017 A 
HETATM   24  C6  UNL     1      28.595   0.883  53.353  1.00  0.00     0.093 A 
ENDBRANCH   1  18
TORSDOF 8
ENDMDL
MODEL 5
REMARK VINA RESULT:      -6.7      4.246      8.182
REMARK  8 active torsions:
REMARK  status: ('A' for Active; 'I' for Inactive)
REMARK    1  A    between atoms: N1_7  and  C7_8 
REMARK    2  A    between atoms: C9_11  and  C10_13 
REMARK    3  A    between atoms: C11_14  and  N3_15 
REMARK       I    between atoms: N3_15  and  C12_16 
REMARK    4  A    between atoms: C12_16  and  C13_18 
REMARK    5  A    between atoms: C13_18  and  O2_19 
REMARK    6  A    between atoms: O2_19  and  C14_20 
REMARK    7  A    between atoms: C14_20  and  C15_21 
REMARK    8  A    between atoms: C15_21  and  C16_22 
ROOT
HETATM    1  C7  UNL     1      25.656  -0.131  53.030  1.00  0.00     0.261 A 
HETATM    2  N2  UNL     1      26.663  -0.911  53.704  1.00  0.00    -0.272 NA
HETATM    3  C8  UNL     1      27.401   0.022  54.180  1.00  0.00     0.137 A 
HETATM    4  C9  UNL     1      26.462   1.019  53.547  1.00  0.00     0.196 A 
HETATM    5  F1  UNL     1      25.887   1.751  54.552  1.00  0.00    -0.228 F 
ENDROOT
BRANCH   4   6
HETATM    6  C10 UNL     1      27.087   1.781  52.465  1.00  0.00     0.043 C 
HETATM    7  C11 UNL     1      26.371   2.707  51.848  1.00  0.00     0.091 C 
BRANCH   7   8
HETATM    8  N3  UNL     1      26.973   3.468  50.779  1.00  0.00    -0.336 N 
HETATM    9  C12 UNL     1      26.288   3.933  49.615  1.00  0.00     0.245 C 
HETATM   10  O1  UNL     1      25.074   3.651  49.530  1.00  0.00    -0.271 OA
HETATM   11  H11 UNL     1      27.984   3.592  51.047  1.00  0.00     0.168 HD
BRANCH   9  12
HETATM   12  C13 UNL     1      27.226   4.674  48.746  1.00  0.00     0.270 C 
BRANCH  12  13
HETATM   13  O2  UNL     1      27.233   6.021  49.041  1.00  0.00    -0.382 OA
BRANCH  13  14
HETATM   14  C14 UNL     1      26.429   6.703  48.143  1.00  0.00     0.168 C 
BRANCH  14  15
HETATM   15  C15 UNL     1      25.346   7.466  48.836  1.00  0.00     0.026 C 
BRANCH  15  16
HETATM   16  C16 UNL     1      25.557   7.499  50.332  1.00  0.00    -0.002 C 
HETATM   17  C17 UNL     1      24.405   6.889  51.072  1.00  0.00     0.005 C 
ENDBRANCH  15  16
ENDBRANCH  14  15
ENDBRANCH  13  14
ENDBRANCH  12  13
ENDBRANCH   9  12
ENDBRANCH   7   8
ENDBRANCH   4   6
BRANCH   1  18
HETATM   18  N1  UNL     1      24.384  -0.354  53.658  1.00  0.00    -0.330 N 
HETATM   19  C2  UNL     1      23.177   0.189  53.161  1.00  0.00     0.026 A 
HETATM   20  C1  UNL     1      23.171   0.940  52.071  1.00  0.00     0.043 C 
HETATM   21  C3  UNL     1      21.867  -0.012  53.768  1.00  0.00     0.029 A 
HETATM   22  C4  UNL     1      21.808  -0.763  54.874  1.00  0.00     0.004 A 
HETATM   23  C5  UNL     1      23.047  -1.340  55.415  1.00  0.00     0.017 A 
HETATM   24  C6  UNL     1      24.220  -1.136  54.835  1.00  0.00     0.093 A 
ENDBRANCH   1  18
TORSDOF 8
ENDMDL
MODEL 6
REMARK VINA RESULT:      -6.2      4.032      5.531
REMARK  8 active torsions:
REMARK  status: ('A' for Active; 'I' for Inactive)
REMARK    1  A    between atoms: N1_7  and  C7_8 
REMARK    2  A    between atoms: C9_11  and  C10_13 
REMARK    3  A    between atoms: C11_14  and  N3_15 
REMARK       I    between atoms: N3_15  and  C12_16 
REMARK    4  A    between atoms: C12_16  and  C13_18 
REMARK    5  A    between atoms: C13_18  and  O2_19 
REMARK    6  A    between atoms: O2_19  and  C14_20 
REMARK    7  A    between atoms: C14_20  and  C15_21 
REMARK    8  A    between atoms: C15_21  and  C16_22 
ROOT
HETATM    1  C7  UNL     1      22.449   0.368  53.907  1.00  0.00     0.261 A 
HETATM    2  N2  UNL     1      22.253  -0.703  54.851  1.00  0.00    -0.272 NA
HETATM    3  C8  UNL     1      21.360  -1.390  54.242  1.00  0.00     0.137 A 
HETATM    4  C9  UNL     1      21.408  -0.374  53.128  1.00  0.00     0.196 A 
HETATM    5  F1  UNL     1      21.844  -1.010  51.996  1.00  0.00    -0.228 F 
ENDROOT
BRANCH   4   6
HETATM    6  C10 UNL     1      20.166   0.392  53.005  1.00  0.00     0.043 C 
HETATM    7  C11 UNL     1      19.778   0.779  51.800  1.00  0.00     0.091 C 
BRANCH   7   8
HETATM    8  N3  UNL     1      18.556   1.533  51.661  1.00  0.00    -0.336 N 
HETATM    9  C12 UNL     1      18.463   2.958  51.688  1.00  0.00     0.245 C 
HETATM   10  O1  UNL     1      19.532   3.586  51.846  1.00  0.00    -0.271 OA
HETATM   11  H11 UNL     1      17.789   0.821  51.540  1.00  0.00     0.168 HD
BRANCH   9  12
HETATM   12  C13 UNL     1      17.054   3.371  51.515  1.00  0.00     0.270 C 
BRANCH  12  13
HETATM   13  O2  UNL     1      16.588   4.053  52.619  1.00  0.00    -0.382 OA
BRANCH  13  14
HETATM   14  C14 UNL     1      15.285   4.470  52.399  1.00  0.00     0.168 C 
BRANCH  14  15
HETATM   15  C15 UNL     1      14.305   3.664  53.188  1.00  0.00     0.026 C 
BRANCH  15  16
HETATM   16  C16 UNL     1      12.932   4.294  53.184  1.00  0.00    -0.002 C 
HETATM   17  C17 UNL     1      12.253   4.162  54.514  1.00  0.00     0.005 C 
ENDBRANCH  15  16
ENDBRANCH  14  15
ENDBRANCH  13  14
ENDBRANCH  12  13
ENDBRANCH   9  12
ENDBRANCH   7   8
ENDBRANCH   4   6
BRANCH   1  18
HETATM   18  N1  UNL     1      23.789   0.311  53.395  1.00  0.00    -0.330 N 
HETATM   19  C2  UNL     1      24.267   1.188  52.394  1.00  0.00     0.026 A 
HETATM   20  C1  UNL     1      23.480   2.119  51.878  1.00  0.00     0.043 C 
HETATM   21  C3  UNL     1      25.618   1.164  51.848  1.00  0.00     0.029 A 
HETATM   22  C4  UNL     1      26.463   0.244  52.330  1.00  0.00     0.004 A 
HETATM   23  C5  UNL     1      25.994  -0.682  53.371  1.00  0.00     0.017 A 
HETATM   24  C6  UNL     1      24.758  -0.629  53.844  1.00  0.00     0.093 A 
ENDBRANCH   1  18
TORSDOF 8
ENDMDL
MODEL 7
REMARK VINA RESULT:      -6.1      5.878     10.296
REMARK  8 active torsions:
REMARK  status: ('A' for Active; 'I' for Inactive)
REMARK    1  A    between atoms: N1_7  and  C7_8 
REMARK    2  A    between atoms: C9_11  and  C10_13 
REMARK    3  A    between atoms: C11_14  and  N3_15 
REMARK       I    between atoms: N3_15  and  C12_16 
REMARK    4  A    between atoms: C12_16  and  C13_18 
REMARK    5  A    between atoms: C13_18  and  O2_19 
REMARK    6  A    between atoms: O2_19  and  C14_20 
REMARK    7  A    between atoms: C14_20  and  C15_21 
REMARK    8  A    between atoms: C15_21  and  C16_22 
ROOT
HETATM    1  C7  UNL     1      24.160   3.134  52.317  1.00  0.00     0.261 A 
HETATM    2  N2  UNL     1      23.139   4.145  52.193  1.00  0.00    -0.272 NA
HETATM    3  C8  UNL     1      23.237   4.423  50.946  1.00  0.00     0.137 A 
HETATM    4  C9  UNL     1      24.341   3.397  50.855  1.00  0.00     0.196 A 
HETATM    5  F1  UNL     1      23.923   2.405  50.010  1.00  0.00    -0.228 F 
ENDROOT
BRANCH   4   6
HETATM    6  C10 UNL     1      25.645   3.993  50.562  1.00  0.00     0.043 C 
HETATM    7  C11 UNL     1      26.080   3.981  49.312  1.00  0.00     0.091 C 
BRANCH   7   8
HETATM    8  N3  UNL     1      27.363   4.564  49.006  1.00  0.00    -0.336 N 
HETATM    9  C12 UNL     1      27.562   5.855  48.427  1.00  0.00     0.245 C 
HETATM   10  O1  UNL     1      26.534   6.518  48.172  1.00  0.00    -0.271 OA
HETATM   11  H11 UNL     1      28.082   3.850  49.295  1.00  0.00     0.168 HD
BRANCH   9  12
HETATM   12  C13 UNL     1      29.008   6.111  48.260  1.00  0.00     0.270 C 
BRANCH  12  13
HETATM   13  O2  UNL     1      29.712   4.938  48.083  1.00  0.00    -0.382 OA
BRANCH  13  14
HETATM   14  C14 UNL     1      31.052   5.221  47.874  1.00  0.00     0.168 C 
BRANCH  14  15
HETATM   15  C15 UNL     1      31.740   4.124  47.127  1.00  0.00     0.026 C 
BRANCH  15  16
HETATM   16  C16 UNL     1      32.705   4.667  46.100  1.00  0.00    -0.002 C 
HETATM   17  C17 UNL     1      32.508   6.134  45.868  1.00  0.00     0.005 C 
ENDBRANCH  15  16
ENDBRANCH  14  15
ENDBRANCH  13  14
ENDBRANCH  12  13
ENDBRANCH   9  12
ENDBRANCH   7   8
ENDBRANCH   4   6
BRANCH   1  18
HETATM   18  N1  UNL     1      23.549   1.884  52.670  1.00  0.00    -0.330 N 
HETATM   19  C2  UNL     1      24.296   0.719  52.959  1.00  0.00     0.026 A 
HETATM   20  C1  UNL     1      25.619   0.735  52.917  1.00  0.00     0.043 C 
HETATM   21  C3  UNL     1      23.716  -0.569  53.320  1.00  0.00     0.029 A 
HETATM   22  C4  UNL     1      22.381  -0.649  53.380  1.00  0.00     0.004 A 
HETATM   23  C5  UNL     1      21.577   0.546  53.083  1.00  0.00     0.017 A 
HETATM   24  C6  UNL     1      22.140   1.699  52.759  1.00  0.00     0.093 A 
ENDBRANCH   1  18
TORSDOF 8
ENDMDL
MODEL 8
REMARK VINA RESULT:      -6.1      8.311     10.650
REMARK  8 active torsions:
REMARK  status: ('A' for Active; 'I' for Inactive)
REMARK    1  A    between atoms: N1_7  and  C7_8 
REMARK    2  A    between atoms: C9_11  and  C10_13 
REMARK    3  A    between atoms: C11_14  and  N3_15 
REMARK       I    between atoms: N3_15  and  C12_16 
REMARK    4  A    between atoms: C12_16  and  C13_18 
REMARK    5  A    between atoms: C13_18  and  O2_19 
REMARK    6  A    between atoms: O2_19  and  C14_20 
REMARK    7  A    between atoms: C14_20  and  C15_21 
REMARK    8  A    between atoms: C15_21  and  C16_22 
ROOT
HETATM    1  C7  UNL     1      31.227   7.633  48.464  1.00  0.00     0.261 A 
HETATM    2  N2  UNL     1      32.311   7.086  47.688  1.00  0.00    -0.272 NA
HETATM    3  C8  UNL     1      31.659   6.379  46.842  1.00  0.00     0.137 A 
HETATM    4  C9  UNL     1      30.388   6.834  47.516  1.00  0.00     0.196 A 
HETATM    5  F1  UNL     1      29.662   7.552  46.604  1.00  0.00    -0.228 F 
ENDROOT
BRANCH   4   6
HETATM    6  C10 UNL     1      29.683   5.744  48.193  1.00  0.00     0.043 C 
HETATM    7  C11 UNL     1      28.363   5.794  48.266  1.00  0.00     0.091 C 
BRANCH   7   8
HETATM    8  N3  UNL     1      27.653   4.727  48.930  1.00  0.00    -0.336 N 
HETATM    9  C12 UNL     1      26.255   4.730  49.225  1.00  0.00     0.245 C 
HETATM   10  O1  UNL     1      25.612   5.743  48.876  1.00  0.00    -0.271 OA
HETATM   11  H11 UNL     1      28.371   3.985  49.133  1.00  0.00     0.168 HD
BRANCH   9  12
HETATM   12  C13 UNL     1      25.886   3.473  49.908  1.00  0.00     0.270 C 
BRANCH  12  13
HETATM   13  O2  UNL     1      26.895   3.033  50.739  1.00  0.00    -0.382 OA
BRANCH  13  14
HETATM   14  C14 UNL     1      26.360   2.280  51.771  1.00  0.00     0.168 C 
BRANCH  14  15
HETATM   15  C15 UNL     1      26.934   0.901  51.807  1.00  0.00     0.026 C 
BRANCH  15  16
HETATM   16  C16 UNL     1      26.048  -0.054  52.572  1.00  0.00    -0.002 C 
HETATM   17  C17 UNL     1      26.624  -1.437  52.617  1.00  0.00     0.005 C 
ENDBRANCH  15  16
ENDBRANCH  14  15
ENDBRANCH  13  14
ENDBRANCH  12  13
ENDBRANCH   9  12
ENDBRANCH   7   8
ENDBRANCH   4   6
BRANCH   1  18
HETATM   18  N1  UNL     1      31.195   9.059  48.297  1.00  0.00    -0.330 N 
HETATM   19  C2  UNL     1      30.180   9.875  48.847  1.00  0.00     0.026 A 
HETATM   20  C1  UNL     1      29.197   9.344  49.557  1.00  0.00     0.043 C 
HETATM   21  C3  UNL     1      30.111  11.323  48.702  1.00  0.00     0.029 A 
HETATM   22  C4  UNL     1      31.079  11.919  47.994  1.00  0.00     0.004 A 
HETATM   23  C5  UNL     1      32.148  11.097  47.408  1.00  0.00     0.017 A 
HETATM   24  C6  UNL     1      32.178   9.782  47.563  1.00  0.00     0.093 A 
ENDBRANCH   1  18
TORSDOF 8
ENDMDL
MODEL 9
REMARK VINA RESULT:      -6.1      4.754      8.254
REMARK  8 active torsions:
REMARK  status: ('A' for Active; 'I' for Inactive)
REMARK    1  A    between atoms: N1_7  and  C7_8 
REMARK    2  A    between atoms: C9_11  and  C10_13 
REMARK    3  A    between atoms: C11_14  and  N3_15 
REMARK       I    between atoms: N3_15  and  C12_16 
REMARK    4  A    between atoms: C12_16  and  C13_18 
REMARK    5  A    between atoms: C13_18  and  O2_19 
REMARK    6  A    between atoms: O2_19  and  C14_20 
REMARK    7  A    between atoms: C14_20  and  C15_21 
REMARK    8  A    between atoms: C15_21  and  C16_22 
ROOT
HETATM    1  C7  UNL     1      23.678   1.669  51.980  1.00  0.00     0.261 A 
HETATM    2  N2  UNL     1      25.025   1.217  51.735  1.00  0.00    -0.272 NA
HETATM    3  C8  UNL     1      25.691   2.214  52.187  1.00  0.00     0.137 A 
HETATM    4  C9  UNL     1      24.378   2.874  52.528  1.00  0.00     0.196 A 
HETATM    5  F1  UNL     1      24.327   3.031  53.887  1.00  0.00    -0.228 F 
ENDROOT
BRANCH   4   6
HETATM    6  C10 UNL     1      24.119   4.071  51.726  1.00  0.00     0.043 C 
HETATM    7  C11 UNL     1      23.474   5.081  52.288  1.00  0.00     0.091 C 
BRANCH   7   8
HETATM    8  N3  UNL     1      23.211   6.269  51.512  1.00  0.00    -0.336 N 
HETATM    9  C12 UNL     1      21.988   6.551  50.831  1.00  0.00     0.245 C 
HETATM   10  O1  UNL     1      21.084   5.693  50.925  1.00  0.00    -0.271 OA
HETATM   11  H11 UNL     1      24.090   6.847  51.563  1.00  0.00     0.168 HD
BRANCH   9  12
HETATM   12  C13 UNL     1      22.087   7.856  50.144  1.00  0.00     0.270 C 
BRANCH  12  13
HETATM   13  O2  UNL     1      22.570   7.716  48.860  1.00  0.00    -0.382 OA
BRANCH  13  14
HETATM   14  C14 UNL     1      23.760   8.411  48.726  1.00  0.00     0.168 C 
BRANCH  14  15
HETATM   15  C15 UNL     1      24.754   7.657  47.904  1.00  0.00     0.026 C 
BRANCH  15  16
HETATM   16  C16 UNL     1      24.886   6.224  48.363  1.00  0.00    -0.002 C 
HETATM   17  C17 UNL     1      26.127   6.009  49.175  1.00  0.00     0.005 C 
ENDBRANCH  15  16
ENDBRANCH  14  15
ENDBRANCH  13  14
ENDBRANCH  12  13
ENDBRANCH   9  12
ENDBRANCH   7   8
ENDBRANCH   4   6
BRANCH   1  18
HETATM   18  N1  UNL     1      23.054   0.802  52.939  1.00  0.00    -0.330 N 
HETATM   19  C2  UNL     1      21.690   0.909  53.297  1.00  0.00     0.026 A 
HETATM   20  C1  UNL     1      20.917   1.832  52.748  1.00  0.00     0.043 C 
HETATM   21  C3  UNL     1      21.018   0.050  54.264  1.00  0.00     0.029 A 
HETATM   22  C4  UNL     1      21.747  -0.904  54.853  1.00  0.00     0.004 A 
HETATM   23  C5  UNL     1      23.169  -1.039  54.503  1.00  0.00     0.017 A 
HETATM   24  C6  UNL     1      23.745  -0.240  53.617  1.00  0.00     0.093 A 
ENDBRANCH   1  18
TORSDOF 8
ENDMDL
