MODEL 1
REMARK VINA RESULT:      -8.4      0.000      0.000
REMARK  1 active torsions:
REMARK  status: ('A' for Active; 'I' for Inactive)
REMARK    1  A    between atoms: C11_14  and  C12_15 
ROOT
HETATM    1  C1  UNL     1      23.987  -1.594  55.110  1.00  0.00     0.052 C 
HETATM    2  C2  UNL     1      23.417  -0.742  54.275  1.00  0.00     0.078 C 
HETATM    3  C3  UNL     1      22.001  -0.913  53.919  1.00  0.00     0.174 C 
HETATM    4  N1  UNL     1      21.491  -0.060  53.104  1.00  0.00    -0.182 NA
HETATM    5  N2  UNL     1      20.198  -0.040  52.646  1.00  0.00    -0.279 N 
HETATM    6  C4  UNL     1      18.801  -0.386  52.547  1.00  0.00     0.179 C 
HETATM    7  C5  UNL     1      20.515   0.963  51.687  1.00  0.00     0.031 C 
HETATM    8  C6  UNL     1      21.202   0.905  50.521  1.00  0.00     0.029 C 
HETATM    9  C7  UNL     1      22.386   1.777  50.258  1.00  0.00     0.027 C 
HETATM   10  C8  UNL     1      22.817   2.686  51.183  1.00  0.00     0.015 C 
HETATM   11  N3  UNL     1      21.859   3.633  51.713  1.00  0.00    -0.392 N 
HETATM   12  C9  UNL     1      20.419   3.483  51.784  1.00  0.00     0.125 C 
HETATM   13  C10 UNL     1      19.920   2.165  52.250  1.00  0.00     0.078 C 
HETATM   14  C11 UNL     1      24.230   2.678  51.643  1.00  0.00     0.092 C 
HETATM   15  C18 UNL     1      24.281   3.011  53.081  1.00  0.00     0.183 C 
HETATM   16  O1  UNL     1      25.527   2.966  53.670  1.00  0.00    -0.388 OA
HETATM   17  C19 UNL     1      26.147   1.748  53.616  1.00  0.00     0.194 C 
HETATM   18  C20 UNL     1      25.441   0.604  54.259  1.00  0.00     0.201 C 
HETATM   19  O2  UNL     1      24.187   0.284  53.768  1.00  0.00    -0.348 OA
HETATM   20  H9  UNL     1      22.387   4.463  52.047  1.00  0.00     0.159 HD
ENDROOT
BRANCH  14  21
HETATM   21  C12 UNL     1      25.009   3.536  50.737  1.00  0.00    -0.046 A 
HETATM   22  C13 UNL     1      26.150   3.006  50.118  1.00  0.00     0.008 A 
HETATM   23  C14 UNL     1      26.963   3.738  49.244  1.00  0.00     0.001 A 
HETATM   24  C15 UNL     1      26.641   5.040  48.968  1.00  0.00     0.000 A 
HETATM   25  C16 UNL     1      25.528   5.591  49.559  1.00  0.00     0.001 A 
HETATM   26  C17 UNL     1      24.772   4.828  50.405  1.00  0.00     0.008 A 
ENDBRANCH  14  21
TORSDOF 1
ENDMDL
MODEL 2
REMARK VINA RESULT:      -8.3      2.219      3.064
REMARK  1 active torsions:
REMARK  status: ('A' for Active; 'I' for Inactive)
REMARK    1  A    between atoms: C11_14  and  C12_15 
ROOT
HETATM    1  C1  UNL     1      27.035   0.079  52.877  1.00  0.00     0.052 C 
HETATM    2  C2  UNL     1      25.778   0.397  52.613  1.00  0.00     0.078 C 
HETATM    3  C3  UNL     1      24.692  -0.287  53.330  1.00  0.00     0.174 C 
HETATM    4  N1  UNL     1      23.488   0.055  53.040  1.00  0.00    -0.182 NA
HETATM    5  N2  UNL     1      22.339  -0.456  53.588  1.00  0.00    -0.279 N 
HETATM    6  C4  UNL     1      21.496  -1.204  54.488  1.00  0.00     0.179 C 
HETATM    7  C5  UNL     1      21.537   0.212  52.619  1.00  0.00     0.031 C 
HETATM    8  C6  UNL     1      21.328  -0.034  51.304  1.00  0.00     0.029 C 
HETATM    9  C7  UNL     1      21.580   1.002  50.258  1.00  0.00     0.027 C 
HETATM   10  C8  UNL     1      22.020   2.253  50.589  1.00  0.00     0.015 C 
HETATM   11  N3  UNL     1      21.276   3.002  51.580  1.00  0.00    -0.392 N 
HETATM   12  C9  UNL     1      20.419   2.474  52.623  1.00  0.00     0.125 C 
HETATM   13  C10 UNL     1      20.944   1.306  53.372  1.00  0.00     0.078 C 
HETATM   14  C11 UNL     1      23.246   2.810  49.960  1.00  0.00     0.092 C 
HETATM   15  C18 UNL     1      23.990   3.607  50.955  1.00  0.00     0.183 C 
HETATM   16  O1  UNL     1      25.197   4.127  50.536  1.00  0.00    -0.388 OA
HETATM   17  C19 UNL     1      26.118   3.197  50.138  1.00  0.00     0.194 C 
HETATM   18  C20 UNL     1      26.533   2.184  51.149  1.00  0.00     0.201 C 
HETATM   19  O2  UNL     1      25.540   1.368  51.664  1.00  0.00    -0.348 OA
HETATM   20  H9  UNL     1      21.463   4.011  51.419  1.00  0.00     0.159 HD
ENDROOT
BRANCH  14  21
HETATM   21  C12 UNL     1      22.849   3.500  48.723  1.00  0.00    -0.046 A 
HETATM   22  C13 UNL     1      22.444   2.733  47.621  1.00  0.00     0.008 A 
HETATM   23  C14 UNL     1      22.051   3.290  46.398  1.00  0.00     0.001 A 
HETATM   24  C15 UNL     1      22.058   4.651  46.253  1.00  0.00     0.000 A 
HETATM   25  C16 UNL     1      22.450   5.433  47.314  1.00  0.00     0.001 A 
HETATM   26  C17 UNL     1      22.824   4.833  48.485  1.00  0.00     0.008 A 
ENDBRANCH  14  21
TORSDOF 1
ENDMDL
MODEL 3
REMARK VINA RESULT:      -8.1      2.371      4.770
REMARK  1 active torsions:
REMARK  status: ('A' for Active; 'I' for Inactive)
REMARK    1  A    between atoms: C11_14  and  C12_15 
ROOT
HETATM    1  C1  UNL     1      19.153   0.664  50.186  1.00  0.00     0.052 C 
HETATM    2  C2  UNL     1      20.199   1.470  50.261  1.00  0.00     0.078 C 
HETATM    3  C3  UNL     1      20.213   2.714  49.477  1.00  0.00     0.174 C 
HETATM    4  N1  UNL     1      21.250   3.464  49.583  1.00  0.00    -0.182 NA
HETATM    5  N2  UNL     1      21.463   4.658  48.941  1.00  0.00    -0.279 N 
HETATM    6  C4  UNL     1      21.174   5.831  48.152  1.00  0.00     0.179 C 
HETATM    7  C5  UNL     1      22.820   4.688  49.370  1.00  0.00     0.031 C 
HETATM    8  C6  UNL     1      23.904   3.981  48.968  1.00  0.00     0.029 C 
HETATM    9  C7  UNL     1      24.726   3.183  49.926  1.00  0.00     0.027 C 
HETATM   10  C8  UNL     1      24.425   3.146  51.259  1.00  0.00     0.015 C 
HETATM   11  N3  UNL     1      24.277   4.402  51.965  1.00  0.00    -0.392 N 
HETATM   12  C9  UNL     1      23.928   5.692  51.403  1.00  0.00     0.125 C 
HETATM   13  C10 UNL     1      22.820   5.699  50.415  1.00  0.00     0.078 C 
HETATM   14  C11 UNL     1      24.234   1.845  51.951  1.00  0.00     0.092 C 
HETATM   15  C18 UNL     1      23.157   1.974  52.953  1.00  0.00     0.183 C 
HETATM   16  O1  UNL     1      22.812   0.821  53.625  1.00  0.00    -0.388 OA
HETATM   17  C19 UNL     1      22.368  -0.199  52.829  1.00  0.00     0.194 C 
HETATM   18  C20 UNL     1      21.158   0.071  52.001  1.00  0.00     0.201 C 
HETATM   19  O2  UNL     1      21.243   1.104  51.084  1.00  0.00    -0.348 OA
HETATM   20  H9  UNL     1      24.464   4.223  52.970  1.00  0.00     0.159 HD
ENDROOT
BRANCH  14  21
HETATM   21  C12 UNL     1      25.545   1.394  52.443  1.00  0.00    -0.046 A 
HETATM   22  C13 UNL     1      25.977   0.098  52.125  1.00  0.00     0.008 A 
HETATM   23  C14 UNL     1      27.204  -0.430  52.546  1.00  0.00     0.001 A 
HETATM   24  C15 UNL     1      28.036   0.345  53.309  1.00  0.00     0.000 A 
HETATM   25  C16 UNL     1      27.642   1.621  53.639  1.00  0.00     0.001 A 
HETATM   26  C17 UNL     1      26.432   2.083  53.199  1.00  0.00     0.008 A 
ENDBRANCH  14  21
TORSDOF 1
ENDMDL
MODEL 4
REMARK VINA RESULT:      -7.8      2.516      4.177
REMARK  1 active torsions:
REMARK  status: ('A' for Active; 'I' for Inactive)
REMARK    1  A    between atoms: C11_14  and  C12_15 
ROOT
HETATM    1  C1  UNL     1      17.610  -1.964  53.258  1.00  0.00     0.052 C 
HETATM    2  C2  UNL     1      18.361  -1.043  52.679  1.00  0.00     0.078 C 
HETATM    3  C3  UNL     1      17.777  -0.176  51.644  1.00  0.00     0.174 C 
HETATM    4  N1  UNL     1      18.545   0.704  51.111  1.00  0.00    -0.182 NA
HETATM    5  N2  UNL     1      18.201   1.604  50.135  1.00  0.00    -0.279 N 
HETATM    6  C4  UNL     1      17.360   2.360  49.238  1.00  0.00     0.179 C 
HETATM    7  C5  UNL     1      19.562   1.982  49.953  1.00  0.00     0.031 C 
HETATM    8  C6  UNL     1      20.599   1.343  49.361  1.00  0.00     0.029 C 
HETATM    9  C7  UNL     1      21.876   1.070  50.087  1.00  0.00     0.027 C 
HETATM   10  C8  UNL     1      22.056   1.472  51.380  1.00  0.00     0.015 C 
HETATM   11  N3  UNL     1      21.816   2.862  51.708  1.00  0.00    -0.392 N 
HETATM   12  C9  UNL     1      20.965   3.799  51.001  1.00  0.00     0.125 C 
HETATM   13  C10 UNL     1      19.634   3.290  50.585  1.00  0.00     0.078 C 
HETATM   14  C11 UNL     1      22.465   0.494  52.421  1.00  0.00     0.092 C 
HETATM   15  C18 UNL     1      21.790   0.818  53.693  1.00  0.00     0.183 C 
HETATM   16  O1  UNL     1      22.014  -0.054  54.739  1.00  0.00    -0.388 OA
HETATM   17  C19 UNL     1      21.625  -1.345  54.506  1.00  0.00     0.194 C 
HETATM   18  C20 UNL     1      20.185  -1.568  54.197  1.00  0.00     0.201 C 
HETATM   19  O2  UNL     1      19.676  -0.934  53.077  1.00  0.00    -0.348 OA
HETATM   20  H9  UNL     1      22.367   3.086  52.559  1.00  0.00     0.159 HD
ENDROOT
BRANCH  14  21
HETATM   21  C12 UNL     1      23.936   0.445  52.447  1.00  0.00    -0.046 A 
HETATM   22  C13 UNL     1      24.658   1.462  51.807  1.00  0.00     0.008 A 
HETATM   23  C14 UNL     1      26.057   1.508  51.769  1.00  0.00     0.001 A 
HETATM   24  C15 UNL     1      26.772   0.515  52.384  1.00  0.00     0.000 A 
HETATM   25  C16 UNL     1      26.095  -0.498  53.021  1.00  0.00     0.001 A 
HETATM   26  C17 UNL     1      24.728  -0.490  53.025  1.00  0.00     0.008 A 
ENDBRANCH  14  21
TORSDOF 1
ENDMDL
MODEL 5
REMARK VINA RESULT:      -7.7      2.310      4.634
REMARK  1 active torsions:
REMARK  status: ('A' for Active; 'I' for Inactive)
REMARK    1  A    between atoms: C11_14  and  C12_15 
ROOT
HETATM    1  C1  UNL     1      21.332  -1.666  54.082  1.00  0.00     0.052 C 
HETATM    2  C2  UNL     1      22.195  -0.759  53.654  1.00  0.00     0.078 C 
HETATM    3  C3  UNL     1      23.563  -0.748  54.193  1.00  0.00     0.174 C 
HETATM    4  N1  UNL     1      24.364   0.150  53.747  1.00  0.00    -0.182 NA
HETATM    5  N2  UNL     1      25.673   0.333  54.116  1.00  0.00    -0.279 N 
HETATM    6  C4  UNL     1      26.947   0.058  54.735  1.00  0.00     0.179 C 
HETATM    7  C5  UNL     1      25.735   1.572  53.416  1.00  0.00     0.031 C 
HETATM    8  C6  UNL     1      25.213   2.790  53.699  1.00  0.00     0.029 C 
HETATM    9  C7  UNL     1      24.318   3.506  52.742  1.00  0.00     0.027 C 
HETATM   10  C8  UNL     1      24.001   2.967  51.527  1.00  0.00     0.015 C 
HETATM   11  N3  UNL     1      25.080   2.536  50.663  1.00  0.00    -0.392 N 
HETATM   12  C9  UNL     1      26.420   2.145  51.056  1.00  0.00     0.125 C 
HETATM   13  C10 UNL     1      26.522   1.251  52.236  1.00  0.00     0.078 C 
HETATM   14  C11 UNL     1      22.579   2.808  51.123  1.00  0.00     0.092 C 
HETATM   15  C18 UNL     1      22.422   1.554  50.360  1.00  0.00     0.183 C 
HETATM   16  O1  UNL     1      21.136   1.231  49.982  1.00  0.00    -0.388 OA
HETATM   17  C19 UNL     1      20.253   1.073  51.016  1.00  0.00     0.194 C 
HETATM   18  C20 UNL     1      20.574   0.018  52.018  1.00  0.00     0.201 C 
HETATM   19  O2  UNL     1      21.767   0.147  52.707  1.00  0.00    -0.348 OA
HETATM   20  H9  UNL     1      24.728   2.550  49.687  1.00  0.00     0.159 HD
ENDROOT
BRANCH  14  21
HETATM   21  C12 UNL     1      22.155   4.047  50.454  1.00  0.00    -0.046 A 
HETATM   22  C13 UNL     1      22.554   4.270  49.127  1.00  0.00     0.008 A 
HETATM   23  C14 UNL     1      22.208   5.416  48.401  1.00  0.00     0.001 A 
HETATM   24  C15 UNL     1      21.442   6.379  49.002  1.00  0.00     0.000 A 
HETATM   25  C16 UNL     1      21.034   6.193  50.302  1.00  0.00     0.001 A 
HETATM   26  C17 UNL     1      21.403   5.052  50.961  1.00  0.00     0.008 A 
ENDBRANCH  14  21
TORSDOF 1
ENDMDL
MODEL 6
REMARK VINA RESULT:      -7.4      3.279      6.650
REMARK  1 active torsions:
REMARK  status: ('A' for Active; 'I' for Inactive)
REMARK    1  A    between atoms: C11_14  and  C12_15 
ROOT
HETATM    1  C1  UNL     1      21.057   3.608  46.163  1.00  0.00     0.052 C 
HETATM    2  C2  UNL     1      21.916   4.173  46.995  1.00  0.00     0.078 C 
HETATM    3  C3  UNL     1      22.389   5.540  46.730  1.00  0.00     0.174 C 
HETATM    4  N1  UNL     1      23.223   6.047  47.566  1.00  0.00    -0.182 NA
HETATM    5  N2  UNL     1      23.783   7.297  47.504  1.00  0.00    -0.279 N 
HETATM    6  C4  UNL     1      24.003   8.652  47.058  1.00  0.00     0.179 C 
HETATM    7  C5  UNL     1      24.690   6.982  48.556  1.00  0.00     0.031 C 
HETATM    8  C6  UNL     1      25.797   6.203  48.583  1.00  0.00     0.029 C 
HETATM    9  C7  UNL     1      25.943   5.071  49.547  1.00  0.00     0.027 C 
HETATM   10  C8  UNL     1      24.965   4.785  50.458  1.00  0.00     0.015 C 
HETATM   11  N3  UNL     1      24.492   5.852  51.316  1.00  0.00    -0.392 N 
HETATM   12  C9  UNL     1      24.542   7.277  51.057  1.00  0.00     0.125 C 
HETATM   13  C10 UNL     1      24.150   7.710  49.693  1.00  0.00     0.078 C 
HETATM   14  C11 UNL     1      24.392   3.417  50.541  1.00  0.00     0.092 C 
HETATM   15  C18 UNL     1      22.948   3.506  50.835  1.00  0.00     0.183 C 
HETATM   16  O1  UNL     1      22.260   2.311  50.865  1.00  0.00    -0.388 OA
HETATM   17  C19 UNL     1      22.292   1.597  49.699  1.00  0.00     0.194 C 
HETATM   18  C20 UNL     1      21.735   2.263  48.487  1.00  0.00     0.201 C 
HETATM   19  O2  UNL     1      22.334   3.446  48.089  1.00  0.00    -0.348 OA
HETATM   20  H9  UNL     1      24.098   5.417  52.172  1.00  0.00     0.159 HD
ENDROOT
BRANCH  14  21
HETATM   21  C12 UNL     1      25.211   2.636  51.481  1.00  0.00    -0.046 A 
HETATM   22  C13 UNL     1      24.947   2.739  52.855  1.00  0.00     0.008 A 
HETATM   23  C14 UNL     1      25.669   2.043  53.832  1.00  0.00     0.001 A 
HETATM   24  C15 UNL     1      26.688   1.215  53.445  1.00  0.00     0.000 A 
HETATM   25  C16 UNL     1      26.973   1.091  52.105  1.00  0.00     0.001 A 
HETATM   26  C17 UNL     1      26.234   1.796  51.195  1.00  0.00     0.008 A 
ENDBRANCH  14  21
TORSDOF 1
ENDMDL
MODEL 7
REMARK VINA RESULT:      -7.3      2.776      5.478
REMARK  1 active torsions:
REMARK  status: ('A' for Active; 'I' for Inactive)
REMARK    1  A    between atoms: C11_14  and  C12_15 
ROOT
HETATM    1  C1  UNL     1      24.542   7.482  48.267  1.00  0.00     0.052 C 
HETATM    2  C2  UNL     1      24.144   6.427  48.957  1.00  0.00     0.078 C 
HETATM    3  C3  UNL     1      22.720   6.269  49.285  1.00  0.00     0.174 C 
HETATM    4  N1  UNL     1      22.382   5.228  49.957  1.00  0.00    -0.182 NA
HETATM    5  N2  UNL     1      21.115   4.894  50.363  1.00  0.00    -0.279 N 
HETATM    6  C4  UNL     1      19.676   4.946  50.461  1.00  0.00     0.179 C 
HETATM    7  C5  UNL     1      21.616   3.846  51.186  1.00  0.00     0.031 C 
HETATM    8  C6  UNL     1      22.270   3.870  52.372  1.00  0.00     0.029 C 
HETATM    9  C7  UNL     1      23.600   3.215  52.553  1.00  0.00     0.027 C 
HETATM   10  C8  UNL     1      24.208   2.546  51.527  1.00  0.00     0.015 C 
HETATM   11  N3  UNL     1      23.457   1.516  50.839  1.00  0.00    -0.392 N 
HETATM   12  C9  UNL     1      22.016   1.394  50.740  1.00  0.00     0.125 C 
HETATM   13  C10 UNL     1      21.272   2.643  50.444  1.00  0.00     0.078 C 
HETATM   14  C11 UNL     1      25.594   2.892  51.121  1.00  0.00     0.092 C 
HETATM   15  C18 UNL     1      25.719   2.782  49.654  1.00  0.00     0.183 C 
HETATM   16  O1  UNL     1      26.936   3.149  49.119  1.00  0.00    -0.388 OA
HETATM   17  C19 UNL     1      27.305   4.444  49.361  1.00  0.00     0.194 C 
HETATM   18  C20 UNL     1      26.393   5.509  48.857  1.00  0.00     0.201 C 
HETATM   19  O2  UNL     1      25.097   5.508  49.344  1.00  0.00    -0.348 OA
HETATM   20  H9  UNL     1      24.139   0.860  50.413  1.00  0.00     0.159 HD
ENDROOT
BRANCH  14  21
HETATM   21  C12 UNL     1      26.521   2.081  51.926  1.00  0.00    -0.046 A 
HETATM   22  C13 UNL     1      26.411   0.683  51.880  1.00  0.00     0.008 A 
HETATM   23  C14 UNL     1      27.239  -0.179  52.610  1.00  0.00     0.001 A 
HETATM   24  C15 UNL     1      28.211   0.353  53.414  1.00  0.00     0.000 A 
HETATM   25  C16 UNL     1      28.346   1.720  53.482  1.00  0.00     0.001 A 
HETATM   26  C17 UNL     1      27.508   2.513  52.747  1.00  0.00     0.008 A 
ENDBRANCH  14  21
TORSDOF 1
ENDMDL
MODEL 8
REMARK VINA RESULT:      -7.3      2.838      6.837
REMARK  1 active torsions:
REMARK  status: ('A' for Active; 'I' for Inactive)
REMARK    1  A    between atoms: C11_14  and  C12_15 
ROOT
HETATM    1  C1  UNL     1      20.403   3.694  46.334  1.00  0.00     0.052 C 
HETATM    2  C2  UNL     1      21.149   3.737  47.426  1.00  0.00     0.078 C 
HETATM    3  C3  UNL     1      22.339   4.599  47.458  1.00  0.00     0.174 C 
HETATM    4  N1  UNL     1      23.031   4.608  48.540  1.00  0.00    -0.182 NA
HETATM    5  N2  UNL     1      24.168   5.337  48.776  1.00  0.00    -0.279 N 
HETATM    6  C4  UNL     1      25.203   6.320  48.566  1.00  0.00     0.179 C 
HETATM    7  C5  UNL     1      24.412   4.632  49.989  1.00  0.00     0.031 C 
HETATM    8  C6  UNL     1      24.857   3.374  50.222  1.00  0.00     0.029 C 
HETATM    9  C7  UNL     1      24.083   2.404  51.052  1.00  0.00     0.027 C 
HETATM   10  C8  UNL     1      22.894   2.753  51.628  1.00  0.00     0.015 C 
HETATM   11  N3  UNL     1      22.850   3.948  52.445  1.00  0.00    -0.392 N 
HETATM   12  C9  UNL     1      23.735   5.094  52.376  1.00  0.00     0.125 C 
HETATM   13  C10 UNL     1      24.052   5.597  51.016  1.00  0.00     0.078 C 
HETATM   14  C11 UNL     1      21.676   1.934  51.394  1.00  0.00     0.092 C 
HETATM   15  C18 UNL     1      20.499   2.819  51.297  1.00  0.00     0.183 C 
HETATM   16  O1  UNL     1      19.300   2.204  51.003  1.00  0.00    -0.388 OA
HETATM   17  C19 UNL     1      19.274   1.529  49.813  1.00  0.00     0.194 C 
HETATM   18  C20 UNL     1      19.543   2.325  48.583  1.00  0.00     0.201 C 
HETATM   19  O2  UNL     1      20.771   2.960  48.500  1.00  0.00    -0.348 OA
HETATM   20  H9  UNL     1      22.057   3.849  53.107  1.00  0.00     0.159 HD
ENDROOT
BRANCH  14  21
HETATM   21  C12 UNL     1      21.630   0.882  52.423  1.00  0.00    -0.046 A 
HETATM   22  C13 UNL     1      20.876   1.105  53.584  1.00  0.00     0.008 A 
HETATM   23  C14 UNL     1      20.770   0.174  54.624  1.00  0.00     0.001 A 
HETATM   24  C15 UNL     1      21.429  -1.021  54.518  1.00  0.00     0.000 A 
HETATM   25  C16 UNL     1      22.178  -1.272  53.392  1.00  0.00     0.001 A 
HETATM   26  C17 UNL     1      22.246  -0.324  52.409  1.00  0.00     0.008 A 
ENDBRANCH  14  21
TORSDOF 1
ENDMDL
MODEL 9
REMARK VINA RESULT:      -7.1      2.680      6.078
REMARK  1 active torsions:
REMARK  status: ('A' for Active; 'I' for Inactive)
REMARK    1  A    between atoms: C11_14  and  C12_15 
ROOT
HETATM    1  C1  UNL     1      19.835   2.868  47.488  1.00  0.00     0.052 C 
HETATM    2  C2  UNL     1      20.859   3.407  48.128  1.00  0.00     0.078 C 
HETATM    3  C3  UNL     1      21.462   4.646  47.617  1.00  0.00     0.174 C 
HETATM    4  N1  UNL     1      22.455   5.132  48.272  1.00  0.00    -0.182 NA
HETATM    5  N2  UNL     1      23.155   6.271  47.968  1.00  0.00    -0.279 N 
HETATM    6  C4  UNL     1      23.484   7.513  47.310  1.00  0.00     0.179 C 
HETATM    7  C5  UNL     1      24.145   5.967  48.946  1.00  0.00     0.031 C 
HETATM    8  C6  UNL     1      25.139   5.048  48.960  1.00  0.00     0.029 C 
HETATM    9  C7  UNL     1      25.266   4.040  50.055  1.00  0.00     0.027 C 
HETATM   10  C8  UNL     1      24.388   4.015  51.102  1.00  0.00     0.015 C 
HETATM   11  N3  UNL     1      24.169   5.239  51.845  1.00  0.00    -0.392 N 
HETATM   12  C9  UNL     1      24.364   6.598  51.379  1.00  0.00     0.125 C 
HETATM   13  C10 UNL     1      23.854   6.904  50.020  1.00  0.00     0.078 C 
HETATM   14  C11 UNL     1      23.663   2.765  51.445  1.00  0.00     0.092 C 
HETATM   15  C18 UNL     1      22.292   3.095  51.883  1.00  0.00     0.183 C 
HETATM   16  O1  UNL     1      21.470   2.024  52.163  1.00  0.00    -0.388 OA
HETATM   17  C19 UNL     1      21.258   1.170  51.115  1.00  0.00     0.194 C 
HETATM   18  C20 UNL     1      20.636   1.748  49.891  1.00  0.00     0.201 C 
HETATM   19  O2  UNL     1      21.322   2.773  49.262  1.00  0.00    -0.348 OA
HETATM   20  H9  UNL     1      23.838   4.978  52.793  1.00  0.00     0.159 HD
ENDROOT
BRANCH  14  21
HETATM   21  C12 UNL     1      24.493   2.001  52.390  1.00  0.00    -0.046 A 
HETATM   22  C13 UNL     1      24.449   0.600  52.350  1.00  0.00     0.008 A 
HETATM   23  C14 UNL     1      25.195  -0.219  53.207  1.00  0.00     0.001 A 
HETATM   24  C15 UNL     1      26.015   0.362  54.137  1.00  0.00     0.000 A 
HETATM   25  C16 UNL     1      26.082   1.734  54.203  1.00  0.00     0.001 A 
HETATM   26  C17 UNL     1      25.329   2.483  53.341  1.00  0.00     0.008 A 
ENDBRANCH  14  21
TORSDOF 1
ENDMDL
