MODEL 1
REMARK VINA RESULT:      -7.3      0.000      0.000
REMARK  5 active torsions:
REMARK  status: ('A' for Active; 'I' for Inactive)
REMARK    1  A    between atoms: N1_2  and  C2_3 
REMARK    2  A    between atoms: N1_2  and  C3_5 
REMARK    3  A    between atoms: C4_6  and  C5_7 
REMARK       I    between atoms: C5_7  and  N2_9 
REMARK    4  A    between atoms: N2_9  and  C6_10 
REMARK    5  A    between atoms: C11_15  and  N3_16 
ROOT
HETATM    1  C5  UNL     1      25.337   2.732  50.560  1.00  0.00     0.254 C 
HETATM    2  O2  UNL     1      26.267   3.537  50.941  1.00  0.00    -0.268 OA
HETATM    3  N2  UNL     1      25.352   3.553  49.431  1.00  0.00    -0.321 N 
HETATM    4  H5  UNL     1      24.623   3.063  48.897  1.00  0.00     0.169 HD
ENDROOT
BRANCH   3   5
HETATM    5  C6  UNL     1      26.144   4.683  49.157  1.00  0.00     0.061 A 
HETATM    6  C7  UNL     1      27.436   4.538  48.696  1.00  0.00     0.032 A 
HETATM    7  C8  UNL     1      28.204   5.662  48.420  1.00  0.00     0.002 A 
HETATM    8  C9  UNL     1      27.654   6.931  48.614  1.00  0.00     0.002 A 
HETATM    9  C10 UNL     1      26.354   7.011  49.079  1.00  0.00     0.031 A 
HETATM   10  C11 UNL     1      25.577   5.918  49.358  1.00  0.00     0.057 A 
BRANCH  10  11
HETATM   11  N3  UNL     1      24.264   6.193  49.834  1.00  0.00    -0.376 N 
HETATM   12  C12 UNL     1      22.973   6.201  49.215  1.00  0.00     0.153 C 
HETATM   13  C13 UNL     1      21.941   5.413  49.989  1.00  0.00     0.289 C 
HETATM   14  N4  UNL     1      21.957   5.646  51.399  1.00  0.00     0.086 N 
HETATM   15  C14 UNL     1      23.281   5.551  51.945  1.00  0.00     0.289 C 
HETATM   16  H14 UNL     1      21.550   6.558  51.668  1.00  0.00     0.316 HD
HETATM   17  C15 UNL     1      24.162   6.550  51.229  1.00  0.00     0.153 C 
ENDBRANCH  10  11
ENDBRANCH   3   5
BRANCH   1  18
HETATM   18  C4  UNL     1      25.269   1.856  51.682  1.00  0.00     0.038 C 
HETATM   19  C3  UNL     1      24.082   1.257  51.943  1.00  0.00     0.048 C 
HETATM   20  C19 UNL     1      23.924   0.317  53.089  1.00  0.00     0.047 C 
HETATM   21  C18 UNL     1      24.893  -0.524  53.520  1.00  0.00     0.085 C 
HETATM   22  N5  UNL     1      26.214  -0.739  53.058  1.00  0.00    -0.398 N 
HETATM   23  C17 UNL     1      27.040   0.270  52.451  1.00  0.00     0.124 C 
HETATM   24  H23 UNL     1      26.559  -1.710  53.192  1.00  0.00     0.158 HD
HETATM   25  C16 UNL     1      26.499   1.641  52.508  1.00  0.00     0.066 C 
BRANCH  19  26
HETATM   26  N1  UNL     1      22.996   1.552  51.082  1.00  0.00    -0.340 N 
HETATM   27  C1  UNL     1      22.213   1.679  49.896  1.00  0.00     0.158 C 
BRANCH  26  28
HETATM   28  C2  UNL     1      22.020   2.075  51.923  1.00  0.00     0.476 C 
HETATM   29  O1  UNL     1      21.190   2.763  52.500  1.00  0.00    -0.392 OA
ENDBRANCH  26  28
ENDBRANCH  19  26
ENDBRANCH   1  18
TORSDOF 5
ENDMDL
MODEL 2
REMARK VINA RESULT:      -7.2      1.669      7.149
REMARK  5 active torsions:
REMARK  status: ('A' for Active; 'I' for Inactive)
REMARK    1  A    between atoms: N1_2  and  C2_3 
REMARK    2  A    between atoms: N1_2  and  C3_5 
REMARK    3  A    between atoms: C4_6  and  C5_7 
REMARK       I    between atoms: C5_7  and  N2_9 
REMARK    4  A    between atoms: N2_9  and  C6_10 
REMARK    5  A    between atoms: C11_15  and  N3_16 
ROOT
HETATM    1  C5  UNL     1      23.501   2.826  51.629  1.00  0.00     0.254 C 
HETATM    2  O2  UNL     1      23.152   2.670  52.859  1.00  0.00    -0.268 OA
HETATM    3  N2  UNL     1      23.550   1.432  51.665  1.00  0.00    -0.321 N 
HETATM    4  H5  UNL     1      23.824   1.281  50.686  1.00  0.00     0.169 HD
ENDROOT
BRANCH   3   5
HETATM    5  C6  UNL     1      23.289   0.555  52.733  1.00  0.00     0.061 A 
HETATM    6  C7  UNL     1      21.995   0.183  53.035  1.00  0.00     0.032 A 
HETATM    7  C8  UNL     1      21.752  -0.691  54.086  1.00  0.00     0.002 A 
HETATM    8  C9  UNL     1      22.827  -1.187  54.827  1.00  0.00     0.002 A 
HETATM    9  C10 UNL     1      24.101  -0.778  54.476  1.00  0.00     0.031 A 
HETATM   10  C11 UNL     1      24.367   0.084  53.444  1.00  0.00     0.057 A 
BRANCH  10  11
HETATM   11  N3  UNL     1      25.738   0.399  53.234  1.00  0.00    -0.376 N 
HETATM   12  C12 UNL     1      26.614   1.395  53.773  1.00  0.00     0.153 C 
HETATM   13  C13 UNL     1      27.921   0.823  54.274  1.00  0.00     0.289 C 
HETATM   14  N4  UNL     1      28.525  -0.127  53.394  1.00  0.00     0.086 N 
HETATM   15  C14 UNL     1      27.591  -1.125  52.958  1.00  0.00     0.289 C 
HETATM   16  H14 UNL     1      28.963   0.305  52.564  1.00  0.00     0.316 HD
HETATM   17  C15 UNL     1      26.434  -0.428  52.278  1.00  0.00     0.153 C 
ENDBRANCH  10  11
ENDBRANCH   3   5
BRANCH   1  18
HETATM   18  C4  UNL     1      23.472   4.248  51.524  1.00  0.00     0.038 C 
HETATM   19  C3  UNL     1      24.528   4.857  50.935  1.00  0.00     0.048 C 
HETATM   20  C19 UNL     1      24.576   6.338  50.773  1.00  0.00     0.047 C 
HETATM   21  C18 UNL     1      23.491   7.111  50.534  1.00  0.00     0.085 C 
HETATM   22  N5  UNL     1      22.123   6.777  50.383  1.00  0.00    -0.398 N 
HETATM   23  C17 UNL     1      21.477   5.670  51.038  1.00  0.00     0.124 C 
HETATM   24  H23 UNL     1      21.599   7.407  49.745  1.00  0.00     0.158 HD
HETATM   25  C16 UNL     1      22.289   4.989  52.064  1.00  0.00     0.066 C 
BRANCH  19  26
HETATM   26  N1  UNL     1      25.586   4.035  50.472  1.00  0.00    -0.340 N 
HETATM   27  C1  UNL     1      26.483   2.931  50.357  1.00  0.00     0.158 C 
BRANCH  26  28
HETATM   28  C2  UNL     1      26.161   4.763  49.437  1.00  0.00     0.476 C 
HETATM   29  O1  UNL     1      26.885   5.226  48.565  1.00  0.00    -0.392 OA
ENDBRANCH  26  28
ENDBRANCH  19  26
ENDBRANCH   1  18
TORSDOF 5
ENDMDL
MODEL 3
REMARK VINA RESULT:      -7.1      2.279      4.237
REMARK  5 active torsions:
REMARK  status: ('A' for Active; 'I' for Inactive)
REMARK    1  A    between atoms: N1_2  and  C2_3 
REMARK    2  A    between atoms: N1_2  and  C3_5 
REMARK    3  A    between atoms: C4_6  and  C5_7 
REMARK       I    between atoms: C5_7  and  N2_9 
REMARK    4  A    between atoms: N2_9  and  C6_10 
REMARK    5  A    between atoms: C11_15  and  N3_16 
ROOT
HETATM    1  C5  UNL     1      23.236   1.451  51.449  1.00  0.00     0.254 C 
HETATM    2  O2  UNL     1      22.227   1.533  50.653  1.00  0.00    -0.268 OA
HETATM    3  N2  UNL     1      23.783   2.362  50.545  1.00  0.00    -0.321 N 
HETATM    4  H5  UNL     1      24.690   2.488  51.011  1.00  0.00     0.169 HD
ENDROOT
BRANCH   3   5
HETATM    5  C6  UNL     1      23.220   2.912  49.378  1.00  0.00     0.061 A 
HETATM    6  C7  UNL     1      22.667   2.095  48.414  1.00  0.00     0.032 A 
HETATM    7  C8  UNL     1      22.106   2.652  47.272  1.00  0.00     0.002 A 
HETATM    8  C9  UNL     1      22.108   4.040  47.115  1.00  0.00     0.002 A 
HETATM    9  C10 UNL     1      22.678   4.806  48.116  1.00  0.00     0.031 A 
HETATM   10  C11 UNL     1      23.237   4.281  49.251  1.00  0.00     0.057 A 
BRANCH  10  11
HETATM   11  N3  UNL     1      23.782   5.221  50.169  1.00  0.00    -0.376 N 
HETATM   12  C12 UNL     1      25.110   5.690  50.427  1.00  0.00     0.153 C 
HETATM   13  C13 UNL     1      25.208   7.198  50.465  1.00  0.00     0.289 C 
HETATM   14  N4  UNL     1      24.167   7.838  51.206  1.00  0.00     0.086 N 
HETATM   15  C14 UNL     1      22.868   7.355  50.834  1.00  0.00     0.289 C 
HETATM   16  H14 UNL     1      24.277   7.745  52.229  1.00  0.00     0.316 HD
HETATM   17  C15 UNL     1      22.836   5.859  51.053  1.00  0.00     0.153 C 
ENDBRANCH  10  11
ENDBRANCH   3   5
BRANCH   1  18
HETATM   18  C4  UNL     1      22.739   0.522  52.410  1.00  0.00     0.038 C 
HETATM   19  C3  UNL     1      23.595   0.085  53.364  1.00  0.00     0.048 C 
HETATM   20  C19 UNL     1      23.158  -0.878  54.415  1.00  0.00     0.047 C 
HETATM   21  C18 UNL     1      21.918  -0.898  54.958  1.00  0.00     0.085 C 
HETATM   22  N5  UNL     1      20.781  -0.090  54.714  1.00  0.00    -0.398 N 
HETATM   23  C17 UNL     1      20.466   0.514  53.446  1.00  0.00     0.124 C 
HETATM   24  H23 UNL     1      20.166   0.041  55.541  1.00  0.00     0.158 HD
HETATM   25  C16 UNL     1      21.312   0.080  52.318  1.00  0.00     0.066 C 
BRANCH  19  26
HETATM   26  N1  UNL     1      24.922   0.581  53.332  1.00  0.00    -0.340 N 
HETATM   27  C1  UNL     1      26.019   1.493  53.310  1.00  0.00     0.158 C 
BRANCH  26  28
HETATM   28  C2  UNL     1      25.717  -0.559  53.291  1.00  0.00     0.476 C 
HETATM   29  O1  UNL     1      26.562  -1.429  53.456  1.00  0.00    -0.392 OA
ENDBRANCH  26  28
ENDBRANCH  19  26
ENDBRANCH   1  18
TORSDOF 5
ENDMDL
MODEL 4
REMARK VINA RESULT:      -7.1      1.914      6.761
REMARK  5 active torsions:
REMARK  status: ('A' for Active; 'I' for Inactive)
REMARK    1  A    between atoms: N1_2  and  C2_3 
REMARK    2  A    between atoms: N1_2  and  C3_5 
REMARK    3  A    between atoms: C4_6  and  C5_7 
REMARK       I    between atoms: C5_7  and  N2_9 
REMARK    4  A    between atoms: N2_9  and  C6_10 
REMARK    5  A    between atoms: C11_15  and  N3_16 
ROOT
HETATM    1  C5  UNL     1      24.482   3.471  51.448  1.00  0.00     0.254 C 
HETATM    2  O2  UNL     1      23.981   2.399  50.941  1.00  0.00    -0.268 OA
HETATM    3  N2  UNL     1      24.080   2.868  52.640  1.00  0.00    -0.321 N 
HETATM    4  H5  UNL     1      24.414   3.598  53.282  1.00  0.00     0.169 HD
ENDROOT
BRANCH   3   5
HETATM    5  C6  UNL     1      23.430   1.637  52.845  1.00  0.00     0.061 A 
HETATM    6  C7  UNL     1      22.060   1.537  52.716  1.00  0.00     0.032 A 
HETATM    7  C8  UNL     1      21.432   0.314  52.912  1.00  0.00     0.002 A 
HETATM    8  C9  UNL     1      22.201  -0.806  53.236  1.00  0.00     0.002 A 
HETATM    9  C10 UNL     1      23.569  -0.643  53.352  1.00  0.00     0.031 A 
HETATM   10  C11 UNL     1      24.212   0.553  53.164  1.00  0.00     0.057 A 
BRANCH  10  11
HETATM   11  N3  UNL     1      25.625   0.533  53.331  1.00  0.00    -0.376 N 
HETATM   12  C12 UNL     1      26.505   1.046  54.337  1.00  0.00     0.153 C 
HETATM   13  C13 UNL     1      27.498   0.020  54.833  1.00  0.00     0.289 C 
HETATM   14  N4  UNL     1      28.116  -0.750  53.799  1.00  0.00     0.086 N 
HETATM   15  C14 UNL     1      27.153  -1.280  52.876  1.00  0.00     0.289 C 
HETATM   16  H14 UNL     1      28.831  -0.224  53.269  1.00  0.00     0.316 HD
HETATM   17  C15 UNL     1      26.373  -0.126  52.288  1.00  0.00     0.153 C 
ENDBRANCH  10  11
ENDBRANCH   3   5
BRANCH   1  18
HETATM   18  C4  UNL     1      24.917   4.144  50.269  1.00  0.00     0.038 C 
HETATM   19  C3  UNL     1      24.268   5.279  49.916  1.00  0.00     0.048 C 
HETATM   20  C19 UNL     1      24.664   6.053  48.704  1.00  0.00     0.047 C 
HETATM   21  C18 UNL     1      25.938   6.172  48.263  1.00  0.00     0.085 C 
HETATM   22  N5  UNL     1      27.153   5.651  48.770  1.00  0.00    -0.398 N 
HETATM   23  C17 UNL     1      27.273   4.405  49.479  1.00  0.00     0.124 C 
HETATM   24  H23 UNL     1      27.982   6.250  48.588  1.00  0.00     0.158 HD
HETATM   25  C16 UNL     1      26.057   3.569  49.487  1.00  0.00     0.066 C 
BRANCH  19  26
HETATM   26  N1  UNL     1      23.202   5.710  50.743  1.00  0.00    -0.340 N 
HETATM   27  C1  UNL     1      21.986   5.695  51.491  1.00  0.00     0.158 C 
BRANCH  26  28
HETATM   28  C2  UNL     1      23.511   7.030  51.048  1.00  0.00     0.476 C 
HETATM   29  O1  UNL     1      23.806   8.218  51.036  1.00  0.00    -0.392 OA
ENDBRANCH  26  28
ENDBRANCH  19  26
ENDBRANCH   1  18
TORSDOF 5
ENDMDL
MODEL 5
REMARK VINA RESULT:      -7.1      2.137      3.690
REMARK  5 active torsions:
REMARK  status: ('A' for Active; 'I' for Inactive)
REMARK    1  A    between atoms: N1_2  and  C2_3 
REMARK    2  A    between atoms: N1_2  and  C3_5 
REMARK    3  A    between atoms: C4_6  and  C5_7 
REMARK       I    between atoms: C5_7  and  N2_9 
REMARK    4  A    between atoms: N2_9  and  C6_10 
REMARK    5  A    between atoms: C11_15  and  N3_16 
ROOT
HETATM    1  C5  UNL     1      23.765   1.934  52.368  1.00  0.00     0.254 C 
HETATM    2  O2  UNL     1      24.253   1.857  51.178  1.00  0.00    -0.268 OA
HETATM    3  N2  UNL     1      22.678   2.477  51.681  1.00  0.00    -0.321 N 
HETATM    4  H5  UNL     1      22.068   2.632  52.494  1.00  0.00     0.169 HD
ENDROOT
BRANCH   3   5
HETATM    5  C6  UNL     1      22.517   2.711  50.304  1.00  0.00     0.061 A 
HETATM    6  C7  UNL     1      22.047   1.715  49.473  1.00  0.00     0.032 A 
HETATM    7  C8  UNL     1      21.883   1.963  48.116  1.00  0.00     0.002 A 
HETATM    8  C9  UNL     1      22.197   3.225  47.608  1.00  0.00     0.002 A 
HETATM    9  C10 UNL     1      22.665   4.182  48.490  1.00  0.00     0.031 A 
HETATM   10  C11 UNL     1      22.835   3.962  49.832  1.00  0.00     0.057 A 
BRANCH  10  11
HETATM   11  N3  UNL     1      23.333   5.062  50.584  1.00  0.00    -0.376 N 
HETATM   12  C12 UNL     1      24.650   5.496  50.941  1.00  0.00     0.153 C 
HETATM   13  C13 UNL     1      24.890   6.959  50.645  1.00  0.00     0.289 C 
HETATM   14  N4  UNL     1      23.822   7.824  51.038  1.00  0.00     0.086 N 
HETATM   15  C14 UNL     1      22.549   7.347  50.580  1.00  0.00     0.289 C 
HETATM   16  H14 UNL     1      23.774   7.976  52.060  1.00  0.00     0.316 HD
HETATM   17  C15 UNL     1      22.338   5.954  51.130  1.00  0.00     0.153 C 
ENDBRANCH  10  11
ENDBRANCH   3   5
BRANCH   1  18
HETATM   18  C4  UNL     1      24.839   1.389  53.130  1.00  0.00     0.038 C 
HETATM   19  C3  UNL     1      24.649   0.180  53.710  1.00  0.00     0.048 C 
HETATM   20  C19 UNL     1      25.723  -0.470  54.516  1.00  0.00     0.047 C 
HETATM   21  C18 UNL     1      27.044  -0.366  54.243  1.00  0.00     0.085 C 
HETATM   22  N5  UNL     1      27.733   0.322  53.214  1.00  0.00    -0.398 N 
HETATM   23  C17 UNL     1      27.276   1.541  52.602  1.00  0.00     0.124 C 
HETATM   24  H23 UNL     1      28.622  -0.128  52.923  1.00  0.00     0.158 HD
HETATM   25  C16 UNL     1      26.110   2.170  53.251  1.00  0.00     0.066 C 
BRANCH  19  26
HETATM   26  N1  UNL     1      23.395  -0.450  53.520  1.00  0.00    -0.340 N 
HETATM   27  C1  UNL     1      22.189  -0.890  52.895  1.00  0.00     0.158 C 
BRANCH  26  28
HETATM   28  C2  UNL     1      23.117  -1.047  54.744  1.00  0.00     0.476 C 
HETATM   29  O1  UNL     1      22.692  -1.726  55.669  1.00  0.00    -0.392 OA
ENDBRANCH  26  28
ENDBRANCH  19  26
ENDBRANCH   1  18
TORSDOF 5
ENDMDL
MODEL 6
REMARK VINA RESULT:      -7.0      2.721      6.743
REMARK  5 active torsions:
REMARK  status: ('A' for Active; 'I' for Inactive)
REMARK    1  A    between atoms: N1_2  and  C2_3 
REMARK    2  A    between atoms: N1_2  and  C3_5 
REMARK    3  A    between atoms: C4_6  and  C5_7 
REMARK       I    between atoms: C5_7  and  N2_9 
REMARK    4  A    between atoms: N2_9  and  C6_10 
REMARK    5  A    between atoms: C11_15  and  N3_16 
ROOT
HETATM    1  C5  UNL     1      23.661   1.708  51.689  1.00  0.00     0.254 C 
HETATM    2  O2  UNL     1      23.470   1.829  52.957  1.00  0.00    -0.268 OA
HETATM    3  N2  UNL     1      24.191   0.477  52.079  1.00  0.00    -0.321 N 
HETATM    4  H5  UNL     1      24.434   0.131  51.142  1.00  0.00     0.169 HD
ENDROOT
BRANCH   3   5
HETATM    5  C6  UNL     1      24.321  -0.073  53.367  1.00  0.00     0.061 A 
HETATM    6  C7  UNL     1      23.242  -0.668  53.987  1.00  0.00     0.032 A 
HETATM    7  C8  UNL     1      23.387  -1.216  55.255  1.00  0.00     0.002 A 
HETATM    8  C9  UNL     1      24.630  -1.159  55.888  1.00  0.00     0.002 A 
HETATM    9  C10 UNL     1      25.674  -0.549  55.215  1.00  0.00     0.031 A 
HETATM   10  C11 UNL     1      25.556  -0.001  53.965  1.00  0.00     0.057 A 
BRANCH  10  11
HETATM   11  N3  UNL     1      26.735   0.590  53.431  1.00  0.00    -0.376 N 
HETATM   12  C12 UNL     1      27.128   1.942  53.171  1.00  0.00     0.153 C 
HETATM   13  C13 UNL     1      28.490   2.281  53.732  1.00  0.00     0.289 C 
HETATM   14  N4  UNL     1      29.489   1.286  53.497  1.00  0.00     0.086 N 
HETATM   15  C14 UNL     1      29.032  -0.028  53.849  1.00  0.00     0.289 C 
HETATM   16  H14 UNL     1      29.828   1.270  52.520  1.00  0.00     0.316 HD
HETATM   17  C15 UNL     1      27.783  -0.326  53.051  1.00  0.00     0.153 C 
ENDBRANCH  10  11
ENDBRANCH   3   5
BRANCH   1  18
HETATM   18  C4  UNL     1      23.136   2.949  51.223  1.00  0.00     0.038 C 
HETATM   19  C3  UNL     1      21.896   2.943  50.678  1.00  0.00     0.048 C 
HETATM   20  C19 UNL     1      21.265   4.196  50.175  1.00  0.00     0.047 C 
HETATM   21  C18 UNL     1      21.442   5.414  50.738  1.00  0.00     0.085 C 
HETATM   22  N5  UNL     1      22.204   5.820  51.861  1.00  0.00    -0.398 N 
HETATM   23  C17 UNL     1      23.425   5.189  52.289  1.00  0.00     0.124 C 
HETATM   24  H23 UNL     1      21.809   6.633  52.373  1.00  0.00     0.158 HD
HETATM   25  C16 UNL     1      23.970   4.184  51.358  1.00  0.00     0.066 C 
BRANCH  19  26
HETATM   26  N1  UNL     1      21.216   1.701  50.607  1.00  0.00    -0.340 N 
HETATM   27  C1  UNL     1      20.487   0.540  51.003  1.00  0.00     0.158 C 
BRANCH  26  28
HETATM   28  C2  UNL     1      21.299   1.338  49.268  1.00  0.00     0.476 C 
HETATM   29  O1  UNL     1      21.648   1.007  48.143  1.00  0.00    -0.392 OA
ENDBRANCH  26  28
ENDBRANCH  19  26
ENDBRANCH   1  18
TORSDOF 5
ENDMDL
MODEL 7
REMARK VINA RESULT:      -7.0      2.739      6.175
REMARK  5 active torsions:
REMARK  status: ('A' for Active; 'I' for Inactive)
REMARK    1  A    between atoms: N1_2  and  C2_3 
REMARK    2  A    between atoms: N1_2  and  C3_5 
REMARK    3  A    between atoms: C4_6  and  C5_7 
REMARK       I    between atoms: C5_7  and  N2_9 
REMARK    4  A    between atoms: N2_9  and  C6_10 
REMARK    5  A    between atoms: C11_15  and  N3_16 
ROOT
HETATM    1  C5  UNL     1      22.584   1.084  52.997  1.00  0.00     0.254 C 
HETATM    2  O2  UNL     1      22.102  -0.046  52.609  1.00  0.00    -0.268 OA
HETATM    3  N2  UNL     1      21.240   1.456  52.954  1.00  0.00    -0.321 N 
HETATM    4  H5  UNL     1      21.357   2.426  53.271  1.00  0.00     0.169 HD
ENDROOT
BRANCH   3   5
HETATM    5  C6  UNL     1      20.113   0.696  52.590  1.00  0.00     0.061 A 
HETATM    6  C7  UNL     1      19.563  -0.210  53.473  1.00  0.00     0.032 A 
HETATM    7  C8  UNL     1      18.445  -0.947  53.104  1.00  0.00     0.002 A 
HETATM    8  C9  UNL     1      17.887  -0.757  51.838  1.00  0.00     0.002 A 
HETATM    9  C10 UNL     1      18.483   0.166  50.998  1.00  0.00     0.031 A 
HETATM   10  C11 UNL     1      19.586   0.904  51.338  1.00  0.00     0.057 A 
BRANCH  10  11
HETATM   11  N3  UNL     1      20.066   1.800  50.343  1.00  0.00    -0.376 N 
HETATM   12  C12 UNL     1      19.952   3.215  50.154  1.00  0.00     0.153 C 
HETATM   13  C13 UNL     1      21.281   3.884  49.884  1.00  0.00     0.289 C 
HETATM   14  N4  UNL     1      22.108   3.195  48.943  1.00  0.00     0.086 N 
HETATM   15  C14 UNL     1      22.219   1.798  49.249  1.00  0.00     0.289 C 
HETATM   16  H14 UNL     1      21.788   3.298  47.966  1.00  0.00     0.316 HD
HETATM   17  C15 UNL     1      20.828   1.204  49.272  1.00  0.00     0.153 C 
ENDBRANCH  10  11
ENDBRANCH   3   5
BRANCH   1  18
HETATM   18  C4  UNL     1      23.973   0.771  53.062  1.00  0.00     0.038 C 
HETATM   19  C3  UNL     1      24.856   1.774  52.839  1.00  0.00     0.048 C 
HETATM   20  C19 UNL     1      26.327   1.539  52.899  1.00  0.00     0.047 C 
HETATM   21  C18 UNL     1      26.923   0.670  53.748  1.00  0.00     0.085 C 
HETATM   22  N5  UNL     1      26.381  -0.188  54.736  1.00  0.00    -0.398 N 
HETATM   23  C17 UNL     1      25.080  -0.797  54.661  1.00  0.00     0.124 C 
HETATM   24  H23 UNL     1      27.010  -0.355  55.546  1.00  0.00     0.158 HD
HETATM   25  C16 UNL     1      24.385  -0.635  53.371  1.00  0.00     0.066 C 
BRANCH  19  26
HETATM   26  N1  UNL     1      24.331   3.058  52.553  1.00  0.00    -0.340 N 
HETATM   27  C1  UNL     1      23.598   4.275  52.690  1.00  0.00     0.158 C 
BRANCH  26  28
HETATM   28  C2  UNL     1      24.859   3.379  51.308  1.00  0.00     0.476 C 
HETATM   29  O1  UNL     1      25.080   3.556  50.118  1.00  0.00    -0.392 OA
ENDBRANCH  26  28
ENDBRANCH  19  26
ENDBRANCH   1  18
TORSDOF 5
ENDMDL
MODEL 8
REMARK VINA RESULT:      -6.5      2.702      5.869
REMARK  5 active torsions:
REMARK  status: ('A' for Active; 'I' for Inactive)
REMARK    1  A    between atoms: N1_2  and  C2_3 
REMARK    2  A    between atoms: N1_2  and  C3_5 
REMARK    3  A    between atoms: C4_6  and  C5_7 
REMARK       I    between atoms: C5_7  and  N2_9 
REMARK    4  A    between atoms: N2_9  and  C6_10 
REMARK    5  A    between atoms: C11_15  and  N3_16 
ROOT
HETATM    1  C5  UNL     1      21.883   1.516  51.632  1.00  0.00     0.254 C 
HETATM    2  O2  UNL     1      22.497   1.537  50.500  1.00  0.00    -0.268 OA
HETATM    3  N2  UNL     1      23.042   2.168  52.057  1.00  0.00    -0.321 N 
HETATM    4  H5  UNL     1      22.774   2.294  53.041  1.00  0.00     0.169 HD
ENDROOT
BRANCH   3   5
HETATM    5  C6  UNL     1      24.187   2.525  51.322  1.00  0.00     0.061 A 
HETATM    6  C7  UNL     1      24.101   3.427  50.283  1.00  0.00     0.032 A 
HETATM    7  C8  UNL     1      25.242   3.778  49.573  1.00  0.00     0.002 A 
HETATM    8  C9  UNL     1      26.469   3.210  49.924  1.00  0.00     0.002 A 
HETATM    9  C10 UNL     1      26.491   2.311  50.975  1.00  0.00     0.031 A 
HETATM   10  C11 UNL     1      25.380   1.949  51.690  1.00  0.00     0.057 A 
BRANCH  10  11
HETATM   11  N3  UNL     1      25.592   1.006  52.734  1.00  0.00    -0.376 N 
HETATM   12  C12 UNL     1      25.313  -0.392  52.869  1.00  0.00     0.153 C 
HETATM   13  C13 UNL     1      26.505  -1.188  53.351  1.00  0.00     0.289 C 
HETATM   14  N4  UNL     1      27.217  -0.587  54.435  1.00  0.00     0.086 N 
HETATM   15  C14 UNL     1      27.512   0.794  54.183  1.00  0.00     0.289 C 
HETATM   16  H14 UNL     1      26.723  -0.664  55.340  1.00  0.00     0.316 HD
HETATM   17  C15 UNL     1      26.209   1.520  53.932  1.00  0.00     0.153 C 
ENDBRANCH  10  11
ENDBRANCH   3   5
BRANCH   1  18
HETATM   18  C4  UNL     1      20.675   0.853  51.266  1.00  0.00     0.038 C 
HETATM   19  C3  UNL     1      19.987   0.213  52.241  1.00  0.00     0.048 C 
HETATM   20  C19 UNL     1      18.709  -0.496  51.950  1.00  0.00     0.047 C 
HETATM   21  C18 UNL     1      17.802  -0.080  51.035  1.00  0.00     0.085 C 
HETATM   22  N5  UNL     1      17.797   1.040  50.169  1.00  0.00    -0.398 N 
HETATM   23  C17 UNL     1      18.978   1.644  49.612  1.00  0.00     0.124 C 
HETATM   24  H23 UNL     1      16.850   1.409  49.955  1.00  0.00     0.158 HD
HETATM   25  C16 UNL     1      20.230   0.897  49.837  1.00  0.00     0.066 C 
BRANCH  19  26
HETATM   26  N1  UNL     1      20.524   0.246  53.552  1.00  0.00    -0.340 N 
HETATM   27  C1  UNL     1      20.886   0.721  54.848  1.00  0.00     0.158 C 
BRANCH  26  28
HETATM   28  C2  UNL     1      21.091  -1.012  53.726  1.00  0.00     0.476 C 
HETATM   29  O1  UNL     1      21.802  -2.008  53.729  1.00  0.00    -0.392 OA
ENDBRANCH  26  28
ENDBRANCH  19  26
ENDBRANCH   1  18
TORSDOF 5
ENDMDL
MODEL 9
REMARK VINA RESULT:      -6.4      2.424      3.310
REMARK  5 active torsions:
REMARK  status: ('A' for Active; 'I' for Inactive)
REMARK    1  A    between atoms: N1_2  and  C2_3 
REMARK    2  A    between atoms: N1_2  and  C3_5 
REMARK    3  A    between atoms: C4_6  and  C5_7 
REMARK       I    between atoms: C5_7  and  N2_9 
REMARK    4  A    between atoms: N2_9  and  C6_10 
REMARK    5  A    between atoms: C11_15  and  N3_16 
ROOT
HETATM    1  C5  UNL     1      23.586   2.820  52.063  1.00  0.00     0.254 C 
HETATM    2  O2  UNL     1      24.469   3.542  51.463  1.00  0.00    -0.268 OA
HETATM    3  N2  UNL     1      22.729   3.816  51.592  1.00  0.00    -0.321 N 
HETATM    4  H5  UNL     1      21.853   3.428  51.964  1.00  0.00     0.169 HD
ENDROOT
BRANCH   3   5
HETATM    5  C6  UNL     1      23.023   4.966  50.838  1.00  0.00     0.061 A 
HETATM    6  C7  UNL     1      23.613   6.063  51.432  1.00  0.00     0.032 A 
HETATM    7  C8  UNL     1      23.906   7.188  50.673  1.00  0.00     0.002 A 
HETATM    8  C9  UNL     1      23.601   7.195  49.311  1.00  0.00     0.002 A 
HETATM    9  C10 UNL     1      23.010   6.066  48.773  1.00  0.00     0.031 A 
HETATM   10  C11 UNL     1      22.710   4.944  49.499  1.00  0.00     0.057 A 
BRANCH  10  11
HETATM   11  N3  UNL     1      22.097   3.881  48.779  1.00  0.00    -0.376 N 
HETATM   12  C12 UNL     1      22.595   2.675  48.190  1.00  0.00     0.153 C 
HETATM   13  C13 UNL     1      21.796   1.453  48.582  1.00  0.00     0.289 C 
HETATM   14  N4  UNL     1      20.379   1.632  48.529  1.00  0.00     0.086 N 
HETATM   15  C14 UNL     1      19.965   2.830  49.202  1.00  0.00     0.289 C 
HETATM   16  H14 UNL     1      20.004   1.643  47.566  1.00  0.00     0.316 HD
HETATM   17  C15 UNL     1      20.675   4.003  48.565  1.00  0.00     0.153 C 
ENDBRANCH  10  11
ENDBRANCH   3   5
BRANCH   1  18
HETATM   18  C4  UNL     1      24.405   1.772  52.575  1.00  0.00     0.038 C 
HETATM   19  C3  UNL     1      23.802   0.604  52.901  1.00  0.00     0.048 C 
HETATM   20  C19 UNL     1      24.584  -0.549  53.432  1.00  0.00     0.047 C 
HETATM   21  C18 UNL     1      25.847  -0.850  53.052  1.00  0.00     0.085 C 
HETATM   22  N5  UNL     1      26.717  -0.222  52.127  1.00  0.00    -0.398 N 
HETATM   23  C17 UNL     1      26.720   1.188  51.840  1.00  0.00     0.124 C 
HETATM   24  H23 UNL     1      27.376  -0.870  51.655  1.00  0.00     0.158 HD
HETATM   25  C16 UNL     1      25.876   2.011  52.726  1.00  0.00     0.066 C 
BRANCH  19  26
HETATM   26  N1  UNL     1      22.401   0.514  52.712  1.00  0.00    -0.340 N 
HETATM   27  C1  UNL     1      21.122   0.546  52.080  1.00  0.00     0.158 C 
BRANCH  26  28
HETATM   28  C2  UNL     1      21.905   0.167  53.964  1.00  0.00     0.476 C 
HETATM   29  O1  UNL     1      21.218  -0.106  54.939  1.00  0.00    -0.392 OA
ENDBRANCH  26  28
ENDBRANCH  19  26
ENDBRANCH   1  18
TORSDOF 5
ENDMDL
