MODEL 1
REMARK VINA RESULT:      -8.3      0.000      0.000
REMARK  5 active torsions:
REMARK  status: ('A' for Active; 'I' for Inactive)
REMARK    1  A    between atoms: O1_2  and  C2_3 
REMARK    2  A    between atoms: C2_3  and  C4_5 
REMARK    3  A    between atoms: C10_14  and  N3_15 
REMARK    4  A    between atoms: N3_15  and  C11_16 
REMARK    5  A    between atoms: N4_17  and  C12_18 
ROOT
HETATM    1  C4  UNL     1      24.897   8.022  49.815  1.00  0.00    -0.050 C 
HETATM    2  C5  UNL     1      23.604   8.255  50.058  1.00  0.00     0.005 C 
HETATM    3  C6  UNL     1      22.401   7.660  50.563  1.00  0.00     0.000 C 
HETATM    4  C7  UNL     1      22.190   6.454  51.030  1.00  0.00     0.000 C 
HETATM    5  O2  UNL     1      22.083   5.162  51.501  1.00  0.00     0.000 OA
HETATM    6  C8  UNL     1      23.000   4.522  52.305  1.00  0.00     0.137 A 
HETATM    7  N1  UNL     1      22.439   3.790  51.413  1.00  0.00    -0.253 N 
HETATM    8  C9  UNL     1      22.784   2.419  51.314  1.00  0.00     0.235 C 
HETATM    9  N2  UNL     1      23.969   2.001  50.939  1.00  0.00    -0.223 NA
HETATM   10  C10 UNL     1      24.990   2.933  50.607  1.00  0.00     0.144 C 
HETATM   11  C18 UNL     1      25.670   3.778  49.857  1.00  0.00     0.134 C 
HETATM   12  N5  UNL     1      26.616   4.714  49.379  1.00  0.00    -0.396 N 
HETATM   13  C19 UNL     1      26.021   5.962  48.976  1.00  0.00     0.123 C 
HETATM   14  C20 UNL     1      25.483   6.713  50.163  1.00  0.00     0.056 C 
HETATM   15  H21 UNL     1      27.321   3.976  49.573  1.00  0.00     0.159 HD
ENDROOT
BRANCH  10  16
HETATM   16  N3  UNL     1      25.860   3.150  51.669  1.00  0.00    -0.334 N 
HETATM   17  H13 UNL     1      25.972   3.928  52.393  1.00  0.00     0.168 HD
BRANCH  16  18
HETATM   18  C11 UNL     1      26.848   2.111  51.878  1.00  0.00     0.209 C 
HETATM   19  N4  UNL     1      26.888   1.521  53.039  1.00  0.00    -0.244 NA
BRANCH  19  20
HETATM   20  C12 UNL     1      27.874   0.507  53.198  1.00  0.00     0.058 A 
HETATM   21  C13 UNL     1      29.190   0.658  53.582  1.00  0.00     0.031 A 
HETATM   22  C14 UNL     1      30.010  -0.451  53.684  1.00  0.00     0.002 A 
HETATM   23  C15 UNL     1      29.545  -1.727  53.410  1.00  0.00     0.000 A 
HETATM   24  C16 UNL     1      28.225  -1.882  53.025  1.00  0.00     0.002 A 
HETATM   25  C17 UNL     1      27.402  -0.773  52.921  1.00  0.00     0.031 A 
ENDBRANCH  19  20
ENDBRANCH  16  18
ENDBRANCH  10  16
BRANCH   1  26
HETATM   26  C2  UNL     1      25.925   8.951  49.237  1.00  0.00     0.145 C 
HETATM   27  C3  UNL     1      25.233  10.003  48.365  1.00  0.00     0.044 C 
BRANCH  26  28
HETATM   28  O1  UNL     1      26.595   9.621  50.246  1.00  0.00    -0.387 OA
HETATM   29  C1  UNL     1      27.957   9.576  50.019  1.00  0.00     0.202 C 
ENDBRANCH  26  28
ENDBRANCH   1  26
TORSDOF 5
ENDMDL
MODEL 2
REMARK VINA RESULT:      -8.2      3.056      7.316
REMARK  5 active torsions:
REMARK  status: ('A' for Active; 'I' for Inactive)
REMARK    1  A    between atoms: O1_2  and  C2_3 
REMARK    2  A    between atoms: C2_3  and  C4_5 
REMARK    3  A    between atoms: C10_14  and  N3_15 
REMARK    4  A    between atoms: N3_15  and  C11_16 
REMARK    5  A    between atoms: N4_17  and  C12_18 
ROOT
HETATM    1  C4  UNL     1      24.552  -0.313  53.616  1.00  0.00    -0.050 C 
HETATM    2  C5  UNL     1      23.396  -0.868  53.990  1.00  0.00     0.005 C 
HETATM    3  C6  UNL     1      21.972  -0.723  53.916  1.00  0.00     0.000 C 
HETATM    4  C7  UNL     1      21.249   0.201  53.332  1.00  0.00     0.000 C 
HETATM    5  O2  UNL     1      20.590   1.224  52.684  1.00  0.00     0.000 OA
HETATM    6  C8  UNL     1      20.927   1.744  51.454  1.00  0.00     0.137 A 
HETATM    7  N1  UNL     1      20.507   2.594  52.318  1.00  0.00    -0.253 N 
HETATM    8  C9  UNL     1      20.419   3.964  51.968  1.00  0.00     0.235 C 
HETATM    9  N2  UNL     1      21.467   4.711  51.715  1.00  0.00    -0.223 NA
HETATM   10  C10 UNL     1      22.777   4.161  51.784  1.00  0.00     0.144 C 
HETATM   11  C18 UNL     1      23.899   3.757  52.345  1.00  0.00     0.134 C 
HETATM   12  N5  UNL     1      25.193   3.235  52.575  1.00  0.00    -0.396 N 
HETATM   13  C19 UNL     1      25.193   2.089  53.447  1.00  0.00     0.123 C 
HETATM   14  C20 UNL     1      24.545   0.905  52.783  1.00  0.00     0.056 C 
HETATM   15  H21 UNL     1      25.522   3.998  51.952  1.00  0.00     0.159 HD
ENDROOT
BRANCH  10  16
HETATM   16  N3  UNL     1      23.253   3.796  50.530  1.00  0.00    -0.334 N 
HETATM   17  H13 UNL     1      23.069   2.972  49.875  1.00  0.00     0.168 HD
BRANCH  16  18
HETATM   18  C11 UNL     1      24.209   4.712  49.944  1.00  0.00     0.209 C 
HETATM   19  N4  UNL     1      25.344   4.233  49.518  1.00  0.00    -0.244 NA
BRANCH  19  20
HETATM   20  C12 UNL     1      26.251   5.169  48.950  1.00  0.00     0.058 A 
HETATM   21  C13 UNL     1      25.991   6.462  48.544  1.00  0.00     0.031 A 
HETATM   22  C14 UNL     1      27.007   7.234  48.009  1.00  0.00     0.002 A 
HETATM   23  C15 UNL     1      28.295   6.744  47.866  1.00  0.00     0.000 A 
HETATM   24  C16 UNL     1      28.560   5.448  48.272  1.00  0.00     0.002 A 
HETATM   25  C17 UNL     1      27.544   4.672  48.808  1.00  0.00     0.031 A 
ENDBRANCH  19  20
ENDBRANCH  16  18
ENDBRANCH  10  16
BRANCH   1  26
HETATM   26  C2  UNL     1      25.951  -0.780  53.898  1.00  0.00     0.145 C 
HETATM   27  C3  UNL     1      26.838  -0.506  52.679  1.00  0.00     0.044 C 
BRANCH  26  28
HETATM   28  O1  UNL     1      26.488  -0.087  54.969  1.00  0.00    -0.387 OA
HETATM   29  C1  UNL     1      27.857   0.023  54.821  1.00  0.00     0.202 C 
ENDBRANCH  26  28
ENDBRANCH   1  26
TORSDOF 5
ENDMDL
MODEL 3
REMARK VINA RESULT:      -7.7      1.591      2.004
REMARK  5 active torsions:
REMARK  status: ('A' for Active; 'I' for Inactive)
REMARK    1  A    between atoms: O1_2  and  C2_3 
REMARK    2  A    between atoms: C2_3  and  C4_5 
REMARK    3  A    between atoms: C10_14  and  N3_15 
REMARK    4  A    between atoms: N3_15  and  C11_16 
REMARK    5  A    between atoms: N4_17  and  C12_18 
ROOT
HETATM    1  C4  UNL     1      26.833   8.880  48.852  1.00  0.00    -0.050 C 
HETATM    2  C5  UNL     1      25.606   9.385  48.698  1.00  0.00     0.005 C 
HETATM    3  C6  UNL     1      24.210   9.071  48.794  1.00  0.00     0.000 C 
HETATM    4  C7  UNL     1      23.621   7.951  49.134  1.00  0.00     0.000 C 
HETATM    5  O2  UNL     1      23.109   6.726  49.507  1.00  0.00     0.000 OA
HETATM    6  C8  UNL     1      23.583   5.935  50.529  1.00  0.00     0.137 A 
HETATM    7  N1  UNL     1      23.180   5.307  49.485  1.00  0.00    -0.253 N 
HETATM    8  C9  UNL     1      23.246   3.893  49.450  1.00  0.00     0.235 C 
HETATM    9  N2  UNL     1      24.374   3.224  49.440  1.00  0.00    -0.223 NA
HETATM   10  C10 UNL     1      25.619   3.912  49.464  1.00  0.00     0.144 C 
HETATM   11  C18 UNL     1      26.655   4.571  48.985  1.00  0.00     0.134 C 
HETATM   12  N5  UNL     1      27.874   5.274  48.849  1.00  0.00    -0.396 N 
HETATM   13  C19 UNL     1      27.704   6.605  48.326  1.00  0.00     0.123 C 
HETATM   14  C20 UNL     1      27.000   7.489  49.318  1.00  0.00     0.056 C 
HETATM   15  H21 UNL     1      28.317   4.412  49.223  1.00  0.00     0.159 HD
ENDROOT
BRANCH  10  16
HETATM   16  N3  UNL     1      26.150   3.976  50.747  1.00  0.00    -0.334 N 
HETATM   17  H13 UNL     1      26.152   4.720  51.516  1.00  0.00     0.168 HD
BRANCH  16  18
HETATM   18  C11 UNL     1      26.863   2.792  51.179  1.00  0.00     0.209 C 
HETATM   19  N4  UNL     1      26.646   2.344  52.384  1.00  0.00    -0.244 NA
BRANCH  19  20
HETATM   20  C12 UNL     1      27.368   1.179  52.764  1.00  0.00     0.058 A 
HETATM   21  C13 UNL     1      28.569   1.109  53.438  1.00  0.00     0.031 A 
HETATM   22  C14 UNL     1      29.127  -0.124  53.726  1.00  0.00     0.002 A 
HETATM   23  C15 UNL     1      28.511  -1.306  53.352  1.00  0.00     0.000 A 
HETATM   24  C16 UNL     1      27.306  -1.240  52.675  1.00  0.00     0.002 A 
HETATM   25  C17 UNL     1      26.744  -0.007  52.386  1.00  0.00     0.031 A 
ENDBRANCH  19  20
ENDBRANCH  16  18
ENDBRANCH  10  16
BRANCH   1  26
HETATM   26  C2  UNL     1      28.158   9.555  48.646  1.00  0.00     0.145 C 
HETATM   27  C3  UNL     1      27.940  11.054  48.420  1.00  0.00     0.044 C 
BRANCH  26  28
HETATM   28  O1  UNL     1      28.955   9.414  49.769  1.00  0.00    -0.387 OA
HETATM   29  C1  UNL     1      30.287   9.418  49.406  1.00  0.00     0.202 C 
ENDBRANCH  26  28
ENDBRANCH   1  26
TORSDOF 5
ENDMDL
MODEL 4
REMARK VINA RESULT:      -7.3      3.593      7.362
REMARK  5 active torsions:
REMARK  status: ('A' for Active; 'I' for Inactive)
REMARK    1  A    between atoms: O1_2  and  C2_3 
REMARK    2  A    between atoms: C2_3  and  C4_5 
REMARK    3  A    between atoms: C10_14  and  N3_15 
REMARK    4  A    between atoms: N3_15  and  C11_16 
REMARK    5  A    between atoms: N4_17  and  C12_18 
ROOT
HETATM    1  C4  UNL     1      22.446   0.891  52.098  1.00  0.00    -0.050 C 
HETATM    2  C5  UNL     1      21.441   0.492  51.313  1.00  0.00     0.005 C 
HETATM    3  C6  UNL     1      20.813   0.714  50.044  1.00  0.00     0.000 C 
HETATM    4  C7  UNL     1      21.119   1.559  49.089  1.00  0.00     0.000 C 
HETATM    5  O2  UNL     1      21.530   2.485  48.154  1.00  0.00     0.000 OA
HETATM    6  C8  UNL     1      22.836   2.745  47.802  1.00  0.00     0.137 A 
HETATM    7  N1  UNL     1      22.060   3.766  47.845  1.00  0.00    -0.253 N 
HETATM    8  C9  UNL     1      22.576   5.050  47.539  1.00  0.00     0.235 C 
HETATM    9  N2  UNL     1      23.461   5.666  48.285  1.00  0.00    -0.223 NA
HETATM   10  C10 UNL     1      23.957   5.054  49.469  1.00  0.00     0.144 C 
HETATM   11  C18 UNL     1      23.973   4.689  50.736  1.00  0.00     0.134 C 
HETATM   12  N5  UNL     1      24.330   4.135  51.986  1.00  0.00    -0.396 N 
HETATM   13  C19 UNL     1      23.375   3.173  52.472  1.00  0.00     0.123 C 
HETATM   14  C20 UNL     1      23.379   1.931  51.623  1.00  0.00     0.056 C 
HETATM   15  H21 UNL     1      25.168   4.746  51.924  1.00  0.00     0.159 HD
ENDROOT
BRANCH  10  16
HETATM   16  N3  UNL     1      25.182   4.433  49.257  1.00  0.00    -0.334 N 
HETATM   17  H13 UNL     1      25.503   3.414  49.222  1.00  0.00     0.168 HD
BRANCH  16  18
HETATM   18  C11 UNL     1      26.295   5.329  49.025  1.00  0.00     0.209 C 
HETATM   19  N4  UNL     1      27.389   4.838  48.514  1.00  0.00    -0.244 NA
BRANCH  19  20
HETATM   20  C12 UNL     1      28.455   5.755  48.304  1.00  0.00     0.058 A 
HETATM   21  C13 UNL     1      29.796   5.474  48.145  1.00  0.00     0.031 A 
HETATM   22  C14 UNL     1      30.698   6.504  47.947  1.00  0.00     0.002 A 
HETATM   23  C15 UNL     1      30.293   7.827  47.903  1.00  0.00     0.000 A 
HETATM   24  C16 UNL     1      28.948   8.114  48.063  1.00  0.00     0.002 A 
HETATM   25  C17 UNL     1      28.043   7.084  48.261  1.00  0.00     0.031 A 
ENDBRANCH  19  20
ENDBRANCH  16  18
ENDBRANCH  10  16
BRANCH   1  26
HETATM   26  C2  UNL     1      22.824   0.394  53.463  1.00  0.00     0.145 C 
HETATM   27  C3  UNL     1      22.231  -1.002  53.683  1.00  0.00     0.044 C 
BRANCH  26  28
HETATM   28  O1  UNL     1      24.199   0.285  53.577  1.00  0.00    -0.387 OA
HETATM   29  C1  UNL     1      24.523  -0.811  54.352  1.00  0.00     0.202 C 
ENDBRANCH  26  28
ENDBRANCH   1  26
TORSDOF 5
ENDMDL
MODEL 5
REMARK VINA RESULT:      -7.2      3.600      6.642
REMARK  5 active torsions:
REMARK  status: ('A' for Active; 'I' for Inactive)
REMARK    1  A    between atoms: O1_2  and  C2_3 
REMARK    2  A    between atoms: C2_3  and  C4_5 
REMARK    3  A    between atoms: C10_14  and  N3_15 
REMARK    4  A    between atoms: N3_15  and  C11_16 
REMARK    5  A    between atoms: N4_17  and  C12_18 
ROOT
HETATM    1  C4  UNL     1      20.288   0.265  52.135  1.00  0.00    -0.050 C 
HETATM    2  C5  UNL     1      19.373   0.477  51.185  1.00  0.00     0.005 C 
HETATM    3  C6  UNL     1      19.151   1.113  49.920  1.00  0.00     0.000 C 
HETATM    4  C7  UNL     1      19.968   1.822  49.180  1.00  0.00     0.000 C 
HETATM    5  O2  UNL     1      20.910   2.550  48.484  1.00  0.00     0.000 OA
HETATM    6  C8  UNL     1      22.235   2.209  48.330  1.00  0.00     0.137 A 
HETATM    7  N1  UNL     1      22.000   3.461  48.480  1.00  0.00    -0.253 N 
HETATM    8  C9  UNL     1      23.078   4.381  48.478  1.00  0.00     0.235 C 
HETATM    9  N2  UNL     1      23.992   4.420  49.417  1.00  0.00    -0.223 NA
HETATM   10  C10 UNL     1      23.941   3.514  50.511  1.00  0.00     0.144 C 
HETATM   11  C18 UNL     1      23.562   3.038  51.681  1.00  0.00     0.134 C 
HETATM   12  N5  UNL     1      23.402   2.239  52.836  1.00  0.00    -0.396 N 
HETATM   13  C19 UNL     1      22.048   1.786  53.027  1.00  0.00     0.123 C 
HETATM   14  C20 UNL     1      21.655   0.796  51.966  1.00  0.00     0.056 C 
HETATM   15  H21 UNL     1      24.419   2.390  52.981  1.00  0.00     0.159 HD
ENDROOT
BRANCH  10  16
HETATM   16  N3  UNL     1      24.778   2.421  50.320  1.00  0.00    -0.334 N 
HETATM   17  H13 UNL     1      24.821   1.634  49.598  1.00  0.00     0.168 HD
BRANCH  16  18
HETATM   18  C11 UNL     1      25.845   2.286  51.289  1.00  0.00     0.209 C 
HETATM   19  N4  UNL     1      26.212   1.085  51.642  1.00  0.00    -0.244 NA
BRANCH  19  20
HETATM   20  C12 UNL     1      27.263   1.001  52.596  1.00  0.00     0.058 A 
HETATM   21  C13 UNL     1      27.786  -0.133  53.184  1.00  0.00     0.031 A 
HETATM   22  C14 UNL     1      28.817  -0.022  54.099  1.00  0.00     0.002 A 
HETATM   23  C15 UNL     1      29.349   1.207  54.450  1.00  0.00     0.000 A 
HETATM   24  C16 UNL     1      28.828   2.347  53.863  1.00  0.00     0.002 A 
HETATM   25  C17 UNL     1      27.795   2.239  52.946  1.00  0.00     0.031 A 
ENDBRANCH  19  20
ENDBRANCH  16  18
ENDBRANCH  10  16
BRANCH   1  26
HETATM   26  C2  UNL     1      20.151  -0.507  53.415  1.00  0.00     0.145 C 
HETATM   27  C3  UNL     1      18.810  -1.248  53.425  1.00  0.00     0.044 C 
BRANCH  26  28
HETATM   28  O1  UNL     1      21.152  -1.457  53.519  1.00  0.00    -0.387 OA
HETATM   29  C1  UNL     1      21.655  -1.473  54.805  1.00  0.00     0.202 C 
ENDBRANCH  26  28
ENDBRANCH   1  26
TORSDOF 5
ENDMDL
MODEL 6
REMARK VINA RESULT:      -7.1      5.171     10.144
REMARK  5 active torsions:
REMARK  status: ('A' for Active; 'I' for Inactive)
REMARK    1  A    between atoms: O1_2  and  C2_3 
REMARK    2  A    between atoms: C2_3  and  C4_5 
REMARK    3  A    between atoms: C10_14  and  N3_15 
REMARK    4  A    between atoms: N3_15  and  C11_16 
REMARK    5  A    between atoms: N4_17  and  C12_18 
ROOT
HETATM    1  C4  UNL     1      23.295   0.860  52.931  1.00  0.00    -0.050 C 
HETATM    2  C5  UNL     1      24.289   1.713  52.666  1.00  0.00     0.005 C 
HETATM    3  C6  UNL     1      24.585   2.998  52.105  1.00  0.00     0.000 C 
HETATM    4  C7  UNL     1      23.783   3.892  51.578  1.00  0.00     0.000 C 
HETATM    5  O2  UNL     1      22.851   4.757  51.047  1.00  0.00     0.000 OA
HETATM    6  C8  UNL     1      21.612   5.031  51.583  1.00  0.00     0.137 A 
HETATM    7  N1  UNL     1      21.660   4.974  50.302  1.00  0.00    -0.253 N 
HETATM    8  C9  UNL     1      20.481   5.187  49.547  1.00  0.00     0.235 C 
HETATM    9  N2  UNL     1      19.457   4.368  49.565  1.00  0.00    -0.223 NA
HETATM   10  C10 UNL     1      19.487   3.194  50.367  1.00  0.00     0.144 C 
HETATM   11  C18 UNL     1      19.772   1.949  50.692  1.00  0.00     0.134 C 
HETATM   12  N5  UNL     1      19.886   0.713  51.368  1.00  0.00    -0.396 N 
HETATM   13  C19 UNL     1      21.252   0.325  51.609  1.00  0.00     0.123 C 
HETATM   14  C20 UNL     1      21.904   1.235  52.613  1.00  0.00     0.056 C 
HETATM   15  H21 UNL     1      18.848   0.702  51.352  1.00  0.00     0.159 HD
ENDROOT
BRANCH  10  16
HETATM   16  N3  UNL     1      18.831   3.378  51.579  1.00  0.00    -0.334 N 
HETATM   17  H13 UNL     1      19.154   3.482  52.592  1.00  0.00     0.168 HD
BRANCH  16  18
HETATM   18  C11 UNL     1      17.387   3.454  51.492  1.00  0.00     0.209 C 
HETATM   19  N4  UNL     1      16.744   4.092  52.429  1.00  0.00    -0.244 NA
BRANCH  19  20
HETATM   20  C12 UNL     1      15.328   4.142  52.302  1.00  0.00     0.058 A 
HETATM   21  C13 UNL     1      14.577   4.044  51.149  1.00  0.00     0.031 A 
HETATM   22  C14 UNL     1      13.197   4.114  51.217  1.00  0.00     0.002 A 
HETATM   23  C15 UNL     1      12.536   4.281  52.423  1.00  0.00     0.000 A 
HETATM   24  C16 UNL     1      13.286   4.379  53.582  1.00  0.00     0.002 A 
HETATM   25  C17 UNL     1      14.668   4.310  53.516  1.00  0.00     0.031 A 
ENDBRANCH  19  20
ENDBRANCH  16  18
ENDBRANCH  10  16
BRANCH   1  26
HETATM   26  C2  UNL     1      23.368  -0.494  53.574  1.00  0.00     0.145 C 
HETATM   27  C3  UNL     1      24.783  -0.730  54.113  1.00  0.00     0.044 C 
BRANCH  26  28
HETATM   28  O1  UNL     1      22.496  -0.571  54.646  1.00  0.00    -0.387 OA
HETATM   29  C1  UNL     1      21.806  -1.767  54.608  1.00  0.00     0.202 C 
ENDBRANCH  26  28
ENDBRANCH   1  26
TORSDOF 5
ENDMDL
MODEL 7
REMARK VINA RESULT:      -7.1      3.017      8.096
REMARK  5 active torsions:
REMARK  status: ('A' for Active; 'I' for Inactive)
REMARK    1  A    between atoms: O1_2  and  C2_3 
REMARK    2  A    between atoms: C2_3  and  C4_5 
REMARK    3  A    between atoms: C10_14  and  N3_15 
REMARK    4  A    between atoms: N3_15  and  C11_16 
REMARK    5  A    between atoms: N4_17  and  C12_18 
ROOT
HETATM    1  C4  UNL     1      24.838   0.442  53.174  1.00  0.00    -0.050 C 
HETATM    2  C5  UNL     1      23.967  -0.535  53.442  1.00  0.00     0.005 C 
HETATM    3  C6  UNL     1      22.592  -0.920  53.318  1.00  0.00     0.000 C 
HETATM    4  C7  UNL     1      21.582  -0.275  52.788  1.00  0.00     0.000 C 
HETATM    5  O2  UNL     1      20.595   0.492  52.205  1.00  0.00     0.000 OA
HETATM    6  C8  UNL     1      20.726   1.222  51.045  1.00  0.00     0.137 A 
HETATM    7  N1  UNL     1      20.011   1.764  51.963  1.00  0.00    -0.253 N 
HETATM    8  C9  UNL     1      19.423   3.032  51.734  1.00  0.00     0.235 C 
HETATM    9  N2  UNL     1      20.120   4.135  51.598  1.00  0.00    -0.223 NA
HETATM   10  C10 UNL     1      21.539   4.105  51.677  1.00  0.00     0.144 C 
HETATM   11  C18 UNL     1      22.727   4.090  52.249  1.00  0.00     0.134 C 
HETATM   12  N5  UNL     1      24.120   4.062  52.489  1.00  0.00    -0.396 N 
HETATM   13  C19 UNL     1      24.539   2.915  53.252  1.00  0.00     0.123 C 
HETATM   14  C20 UNL     1      24.384   1.649  52.455  1.00  0.00     0.056 C 
HETATM   15  H21 UNL     1      24.146   4.952  51.953  1.00  0.00     0.159 HD
ENDROOT
BRANCH  10  16
HETATM   16  N3  UNL     1      22.127   4.070  50.418  1.00  0.00    -0.334 N 
HETATM   17  H13 UNL     1      22.401   3.286  49.745  1.00  0.00     0.168 HD
BRANCH  16  18
HETATM   18  C11 UNL     1      22.452   5.364  49.855  1.00  0.00     0.209 C 
HETATM   19  N4  UNL     1      23.672   5.571  49.443  1.00  0.00    -0.244 NA
BRANCH  19  20
HETATM   20  C12 UNL     1      23.944   6.856  48.897  1.00  0.00     0.058 A 
HETATM   21  C13 UNL     1      23.236   8.025  49.087  1.00  0.00     0.031 A 
HETATM   22  C14 UNL     1      23.653   9.191  48.471  1.00  0.00     0.002 A 
HETATM   23  C15 UNL     1      24.774   9.224  47.658  1.00  0.00     0.000 A 
HETATM   24  C16 UNL     1      25.487   8.053  47.465  1.00  0.00     0.002 A 
HETATM   25  C17 UNL     1      25.071   6.884  48.080  1.00  0.00     0.031 A 
ENDBRANCH  19  20
ENDBRANCH  16  18
ENDBRANCH  10  16
BRANCH   1  26
HETATM   26  C2  UNL     1      26.307   0.500  53.475  1.00  0.00     0.145 C 
HETATM   27  C3  UNL     1      26.540   0.178  54.955  1.00  0.00     0.044 C 
BRANCH  26  28
HETATM   28  O1  UNL     1      26.993  -0.445  52.731  1.00  0.00    -0.387 OA
HETATM   29  C1  UNL     1      28.209  -0.721  53.324  1.00  0.00     0.202 C 
ENDBRANCH  26  28
ENDBRANCH   1  26
TORSDOF 5
ENDMDL
MODEL 8
REMARK VINA RESULT:      -7.0      2.901      5.379
REMARK  5 active torsions:
REMARK  status: ('A' for Active; 'I' for Inactive)
REMARK    1  A    between atoms: O1_2  and  C2_3 
REMARK    2  A    between atoms: C2_3  and  C4_5 
REMARK    3  A    between atoms: C10_14  and  N3_15 
REMARK    4  A    between atoms: N3_15  and  C11_16 
REMARK    5  A    between atoms: N4_17  and  C12_18 
ROOT
HETATM    1  C4  UNL     1      25.285   7.082  48.631  1.00  0.00    -0.050 C 
HETATM    2  C5  UNL     1      26.479   6.555  48.345  1.00  0.00     0.005 C 
HETATM    3  C6  UNL     1      27.333   5.432  48.598  1.00  0.00     0.000 C 
HETATM    4  C7  UNL     1      27.135   4.376  49.348  1.00  0.00     0.000 C 
HETATM    5  O2  UNL     1      26.820   3.309  50.163  1.00  0.00     0.000 OA
HETATM    6  C8  UNL     1      25.599   2.674  50.219  1.00  0.00     0.137 A 
HETATM    7  N1  UNL     1      26.208   2.803  51.341  1.00  0.00    -0.253 N 
HETATM    8  C9  UNL     1      25.609   2.302  52.523  1.00  0.00     0.235 C 
HETATM    9  N2  UNL     1      24.512   2.799  53.040  1.00  0.00    -0.223 NA
HETATM   10  C10 UNL     1      23.854   3.896  52.417  1.00  0.00     0.144 C 
HETATM   11  C18 UNL     1      23.611   5.154  52.109  1.00  0.00     0.134 C 
HETATM   12  N5  UNL     1      23.066   6.340  51.566  1.00  0.00    -0.396 N 
HETATM   13  C19 UNL     1      24.009   7.084  50.772  1.00  0.00     0.123 C 
HETATM   14  C20 UNL     1      24.350   6.347  49.506  1.00  0.00     0.056 C 
HETATM   15  H21 UNL     1      22.190   6.060  52.048  1.00  0.00     0.159 HD
ENDROOT
BRANCH  10  16
HETATM   16  N3  UNL     1      22.795   3.479  51.619  1.00  0.00    -0.334 N 
HETATM   17  H13 UNL     1      22.480   3.705  50.622  1.00  0.00     0.168 HD
BRANCH  16  18
HETATM   18  C11 UNL     1      21.899   2.523  52.235  1.00  0.00     0.209 C 
HETATM   19  N4  UNL     1      21.838   1.321  51.735  1.00  0.00    -0.244 NA
BRANCH  19  20
HETATM   20  C12 UNL     1      20.945   0.416  52.373  1.00  0.00     0.058 A 
HETATM   21  C13 UNL     1      19.592   0.262  52.148  1.00  0.00     0.031 A 
HETATM   22  C14 UNL     1      18.877  -0.678  52.869  1.00  0.00     0.002 A 
HETATM   23  C15 UNL     1      19.483  -1.479  53.822  1.00  0.00     0.000 A 
HETATM   24  C16 UNL     1      20.840  -1.327  54.050  1.00  0.00     0.002 A 
HETATM   25  C17 UNL     1      21.558  -0.387  53.330  1.00  0.00     0.031 A 
ENDBRANCH  19  20
ENDBRANCH  16  18
ENDBRANCH  10  16
BRANCH   1  26
HETATM   26  C2  UNL     1      24.687   8.371  48.147  1.00  0.00     0.145 C 
HETATM   27  C3  UNL     1      25.687   9.087  47.233  1.00  0.00     0.044 C 
BRANCH  26  28
HETATM   28  O1  UNL     1      23.544   8.128  47.404  1.00  0.00    -0.387 OA
HETATM   29  C1  UNL     1      22.551   9.018  47.762  1.00  0.00     0.202 C 
ENDBRANCH  26  28
ENDBRANCH   1  26
TORSDOF 5
ENDMDL
MODEL 9
REMARK VINA RESULT:      -7.0      3.831      8.345
REMARK  5 active torsions:
REMARK  status: ('A' for Active; 'I' for Inactive)
REMARK    1  A    between atoms: O1_2  and  C2_3 
REMARK    2  A    between atoms: C2_3  and  C4_5 
REMARK    3  A    between atoms: C10_14  and  N3_15 
REMARK    4  A    between atoms: N3_15  and  C11_16 
REMARK    5  A    between atoms: N4_17  and  C12_18 
ROOT
HETATM    1  C4  UNL     1      24.765  -0.080  53.693  1.00  0.00    -0.050 C 
HETATM    2  C5  UNL     1      23.695  -0.638  54.265  1.00  0.00     0.005 C 
HETATM    3  C6  UNL     1      22.264  -0.585  54.329  1.00  0.00     0.000 C 
HETATM    4  C7  UNL     1      21.422   0.203  53.706  1.00  0.00     0.000 C 
HETATM    5  O2  UNL     1      20.630   1.082  52.999  1.00  0.00     0.000 OA
HETATM    6  C8  UNL     1      20.804   1.437  51.679  1.00  0.00     0.137 A 
HETATM    7  N1  UNL     1      20.413   2.378  52.459  1.00  0.00    -0.253 N 
HETATM    8  C9  UNL     1      20.194   3.676  51.934  1.00  0.00     0.235 C 
HETATM    9  N2  UNL     1      21.155   4.435  51.466  1.00  0.00    -0.223 NA
HETATM   10  C10 UNL     1      22.501   3.976  51.466  1.00  0.00     0.144 C 
HETATM   11  C18 UNL     1      23.700   3.721  51.950  1.00  0.00     0.134 C 
HETATM   12  N5  UNL     1      25.044   3.311  52.106  1.00  0.00    -0.396 N 
HETATM   13  C19 UNL     1      25.213   2.304  53.123  1.00  0.00     0.123 C 
HETATM   14  C20 UNL     1      24.587   1.003  52.705  1.00  0.00     0.056 C 
HETATM   15  H21 UNL     1      25.253   3.992  51.351  1.00  0.00     0.159 HD
ENDROOT
BRANCH  10  16
HETATM   16  N3  UNL     1      22.872   3.460  50.230  1.00  0.00    -0.334 N 
HETATM   17  H13 UNL     1      23.406   2.588  49.917  1.00  0.00     0.168 HD
BRANCH  16  18
HETATM   18  C11 UNL     1      22.460   4.246  49.086  1.00  0.00     0.209 C 
HETATM   19  N4  UNL     1      22.621   3.739  47.896  1.00  0.00    -0.244 NA
BRANCH  19  20
HETATM   20  C12 UNL     1      22.202   4.547  46.803  1.00  0.00     0.058 A 
HETATM   21  C13 UNL     1      22.350   5.910  46.651  1.00  0.00     0.031 A 
HETATM   22  C14 UNL     1      21.876   6.532  45.510  1.00  0.00     0.002 A 
HETATM   23  C15 UNL     1      21.249   5.820  44.501  1.00  0.00     0.000 A 
HETATM   24  C16 UNL     1      21.098   4.452  44.649  1.00  0.00     0.002 A 
HETATM   25  C17 UNL     1      21.572   3.827  45.792  1.00  0.00     0.031 A 
ENDBRANCH  19  20
ENDBRANCH  16  18
ENDBRANCH  10  16
BRANCH   1  26
HETATM   26  C2  UNL     1      26.215  -0.422  53.880  1.00  0.00     0.145 C 
HETATM   27  C3  UNL     1      26.939  -0.343  52.532  1.00  0.00     0.044 C 
BRANCH  26  28
HETATM   28  O1  UNL     1      26.822   0.485  54.733  1.00  0.00    -0.387 OA
HETATM   29  C1  UNL     1      28.177   0.231  54.805  1.00  0.00     0.202 C 
ENDBRANCH  26  28
ENDBRANCH   1  26
TORSDOF 5
ENDMDL
