MODEL 1
REMARK VINA RESULT:      -7.5      0.000      0.000
REMARK  2 active torsions:
REMARK  status: ('A' for Active; 'I' for Inactive)
REMARK    1  A    between atoms: C2_2  and  C3_3 
REMARK    2  A    between atoms: C8_8  and  N1_9 
ROOT
HETATM    1  C3  UNL     1      23.664   2.135  50.670  1.00  0.00     0.022 A 
HETATM    2  C4  UNL     1      24.070   3.440  50.173  1.00  0.00     0.036 A 
HETATM    3  C5  UNL     1      23.482   4.575  51.159  1.00  0.00    -0.011 C 
HETATM    4  C6  UNL     1      23.474   4.324  52.772  1.00  0.00    -0.001 C 
HETATM    5  C7  UNL     1      24.338   3.318  53.339  1.00  0.00     0.029 C 
HETATM    6  C8  UNL     1      25.392   2.781  52.207  1.00  0.00     0.065 C 
HETATM    7  C15 UNL     1      24.966   2.976  50.778  1.00  0.00     0.094 A 
HETATM    8  N3  UNL     1      25.933   4.161  50.526  1.00  0.00    -0.405 N 
HETATM    9  C16 UNL     1      24.915   4.365  49.325  1.00  0.00     0.132 C 
HETATM   10  H14 UNL     1      26.750   4.464  50.970  1.00  0.00     0.154 HD
ENDROOT
BRANCH   6  11
HETATM   11  N1  UNL     1      26.583   2.285  52.770  1.00  0.00    -0.251 NA
HETATM   12  C9  UNL     1      26.960   1.061  52.824  1.00  0.00     0.081 A 
HETATM   13  C10 UNL     1      28.252   0.830  53.471  1.00  0.00     0.056 A 
HETATM   14  C14 UNL     1      26.092  -0.010  52.250  1.00  0.00     0.160 A 
HETATM   15  C11 UNL     1      29.043   1.980  54.013  1.00  0.00     0.072 C 
HETATM   16  N2  UNL     1      28.774  -0.344  53.608  1.00  0.00    -0.264 NA
HETATM   17  C12 UNL     1      28.001  -1.428  53.082  1.00  0.00     0.115 A 
HETATM   18  C13 UNL     1      26.819  -1.301  52.481  1.00  0.00     0.019 A 
HETATM   19 CL1  UNL     1      24.586  -0.090  53.188  1.00  0.00    -0.114 Cl
ENDBRANCH   6  11
BRANCH   1  20
HETATM   20  C2  UNL     1      22.576   1.744  49.990  1.00  0.00    -0.001 C 
HETATM   21  C1  UNL     1      21.383   0.881  49.985  1.00  0.00     0.011 C 
ENDBRANCH   1  20
TORSDOF 2
ENDMDL
MODEL 2
REMARK VINA RESULT:      -6.7      2.226      3.839
REMARK  2 active torsions:
REMARK  status: ('A' for Active; 'I' for Inactive)
REMARK    1  A    between atoms: C2_2  and  C3_3 
REMARK    2  A    between atoms: C8_8  and  N1_9 
ROOT
HETATM    1  C3  UNL     1      25.505   4.374  49.928  1.00  0.00     0.022 A 
HETATM    2  C4  UNL     1      24.436   5.283  50.312  1.00  0.00     0.036 A 
HETATM    3  C5  UNL     1      23.260   5.193  49.210  1.00  0.00    -0.011 C 
HETATM    4  C6  UNL     1      22.860   3.748  48.565  1.00  0.00    -0.001 C 
HETATM    5  C7  UNL     1      23.239   2.535  49.247  1.00  0.00     0.029 C 
HETATM    6  C8  UNL     1      23.804   2.887  50.743  1.00  0.00     0.065 C 
HETATM    7  C15 UNL     1      24.321   4.288  50.929  1.00  0.00     0.094 A 
HETATM    8  N3  UNL     1      23.084   4.765  51.732  1.00  0.00    -0.405 N 
HETATM    9  C16 UNL     1      23.692   6.163  51.291  1.00  0.00     0.132 C 
HETATM   10  H14 UNL     1      22.390   4.294  52.237  1.00  0.00     0.154 HD
ENDROOT
BRANCH   6  11
HETATM   11  N1  UNL     1      23.639   1.822  51.648  1.00  0.00    -0.251 NA
HETATM   12  C9  UNL     1      24.501   1.380  52.486  1.00  0.00     0.081 A 
HETATM   13  C10 UNL     1      24.058   0.253  53.307  1.00  0.00     0.056 A 
HETATM   14  C14 UNL     1      25.852   2.013  52.566  1.00  0.00     0.160 A 
HETATM   15  C11 UNL     1      22.679  -0.305  53.146  1.00  0.00     0.072 C 
HETATM   16  N2  UNL     1      24.807  -0.310  54.198  1.00  0.00    -0.264 NA
HETATM   17  C12 UNL     1      26.121   0.241  54.337  1.00  0.00     0.115 A 
HETATM   18  C13 UNL     1      26.599   1.263  53.628  1.00  0.00     0.019 A 
HETATM   19 CL1  UNL     1      26.708   1.731  51.035  1.00  0.00    -0.114 Cl
ENDBRANCH   6  11
BRANCH   1  20
HETATM   20  C2  UNL     1      26.452   5.080  49.292  1.00  0.00    -0.001 C 
HETATM   21  C1  UNL     1      27.742   5.034  48.584  1.00  0.00     0.011 C 
ENDBRANCH   1  20
TORSDOF 2
ENDMDL
MODEL 3
REMARK VINA RESULT:      -6.4      2.397      3.354
REMARK  2 active torsions:
REMARK  status: ('A' for Active; 'I' for Inactive)
REMARK    1  A    between atoms: C2_2  and  C3_3 
REMARK    2  A    between atoms: C8_8  and  N1_9 
ROOT
HETATM    1  C3  UNL     1      23.620   4.030  49.331  1.00  0.00     0.022 A 
HETATM    2  C4  UNL     1      24.934   4.653  49.333  1.00  0.00     0.036 A 
HETATM    3  C5  UNL     1      24.877   5.978  50.254  1.00  0.00    -0.011 C 
HETATM    4  C6  UNL     1      24.020   5.964  51.643  1.00  0.00    -0.001 C 
HETATM    5  C7  UNL     1      23.669   4.704  52.250  1.00  0.00     0.029 C 
HETATM    6  C8  UNL     1      24.470   3.483  51.509  1.00  0.00     0.065 C 
HETATM    7  C15 UNL     1      24.939   3.769  50.109  1.00  0.00     0.094 A 
HETATM    8  N3  UNL     1      26.424   3.949  50.514  1.00  0.00    -0.405 N 
HETATM    9  C16 UNL     1      26.428   4.666  49.099  1.00  0.00     0.132 C 
HETATM   10  H14 UNL     1      26.946   3.660  51.290  1.00  0.00     0.154 HD
ENDROOT
BRANCH   6  11
HETATM   11  N1  UNL     1      24.659   2.371  52.351  1.00  0.00    -0.251 NA
HETATM   12  C9  UNL     1      23.878   1.365  52.488  1.00  0.00     0.081 A 
HETATM   13  C10 UNL     1      24.325   0.347  53.439  1.00  0.00     0.056 A 
HETATM   14  C14 UNL     1      22.609   1.296  51.702  1.00  0.00     0.160 A 
HETATM   15  C11 UNL     1      25.618   0.515  54.175  1.00  0.00     0.072 C 
HETATM   16  N2  UNL     1      23.652  -0.727  53.693  1.00  0.00    -0.264 NA
HETATM   17  C12 UNL     1      22.420  -0.868  52.978  1.00  0.00     0.115 A 
HETATM   18  C13 UNL     1      21.945   0.012  52.098  1.00  0.00     0.019 A 
HETATM   19 CL1  UNL     1      21.540   2.614  52.226  1.00  0.00    -0.114 Cl
ENDBRANCH   6  11
BRANCH   1  20
HETATM   20  C2  UNL     1      22.971   4.415  48.222  1.00  0.00    -0.001 C 
HETATM   21  C1  UNL     1      22.526   5.552  47.399  1.00  0.00     0.011 C 
ENDBRANCH   1  20
TORSDOF 2
ENDMDL
MODEL 4
REMARK VINA RESULT:      -6.4      3.629      6.394
REMARK  2 active torsions:
REMARK  status: ('A' for Active; 'I' for Inactive)
REMARK    1  A    between atoms: C2_2  and  C3_3 
REMARK    2  A    between atoms: C8_8  and  N1_9 
ROOT
HETATM    1  C3  UNL     1      23.095   2.747  52.299  1.00  0.00     0.022 A 
HETATM    2  C4  UNL     1      22.726   4.039  51.741  1.00  0.00     0.036 A 
HETATM    3  C5  UNL     1      23.301   4.135  50.235  1.00  0.00    -0.011 C 
HETATM    4  C6  UNL     1      23.253   2.825  49.263  1.00  0.00    -0.001 C 
HETATM    5  C7  UNL     1      22.355   1.739  49.575  1.00  0.00     0.029 C 
HETATM    6  C8  UNL     1      21.329   2.187  50.770  1.00  0.00     0.065 C 
HETATM    7  C15 UNL     1      21.805   3.314  51.646  1.00  0.00     0.094 A 
HETATM    8  N3  UNL     1      20.866   4.368  51.005  1.00  0.00    -0.405 N 
HETATM    9  C16 UNL     1      21.924   5.320  51.705  1.00  0.00     0.132 C 
HETATM   10  H14 UNL     1      20.039   4.300  50.486  1.00  0.00     0.154 HD
ENDROOT
BRANCH   6  11
HETATM   11  N1  UNL     1      20.113   1.480  50.731  1.00  0.00    -0.251 NA
HETATM   12  C9  UNL     1      19.675   0.649  51.603  1.00  0.00     0.081 A 
HETATM   13  C10 UNL     1      18.371   0.056  51.305  1.00  0.00     0.056 A 
HETATM   14  C14 UNL     1      20.491   0.346  52.817  1.00  0.00     0.160 A 
HETATM   15  C11 UNL     1      17.636   0.432  50.057  1.00  0.00     0.072 C 
HETATM   16  N2  UNL     1      17.790  -0.800  52.080  1.00  0.00    -0.264 NA
HETATM   17  C12 UNL     1      18.510  -1.144  53.269  1.00  0.00     0.115 A 
HETATM   18  C13 UNL     1      19.700  -0.650  53.610  1.00  0.00     0.019 A 
HETATM   19 CL1  UNL     1      21.987  -0.466  52.312  1.00  0.00    -0.114 Cl
ENDBRANCH   6  11
BRANCH   1  20
HETATM   20  C2  UNL     1      24.198   2.908  53.045  1.00  0.00    -0.001 C 
HETATM   21  C1  UNL     1      25.481   2.325  53.471  1.00  0.00     0.011 C 
ENDBRANCH   1  20
TORSDOF 2
ENDMDL
MODEL 5
REMARK VINA RESULT:      -6.3      5.862      8.587
REMARK  2 active torsions:
REMARK  status: ('A' for Active; 'I' for Inactive)
REMARK    1  A    between atoms: C2_2  and  C3_3 
REMARK    2  A    between atoms: C8_8  and  N1_9 
ROOT
HETATM    1  C3  UNL     1      25.149   7.190  47.963  1.00  0.00     0.022 A 
HETATM    2  C4  UNL     1      24.997   6.806  49.357  1.00  0.00     0.036 A 
HETATM    3  C5  UNL     1      25.658   5.348  49.566  1.00  0.00    -0.011 C 
HETATM    4  C6  UNL     1      27.050   4.970  48.802  1.00  0.00    -0.001 C 
HETATM    5  C7  UNL     1      27.890   6.025  48.291  1.00  0.00     0.029 C 
HETATM    6  C8  UNL     1      27.365   7.475  48.842  1.00  0.00     0.065 C 
HETATM    7  C15 UNL     1      25.923   7.525  49.267  1.00  0.00     0.094 A 
HETATM    8  N3  UNL     1      26.245   7.528  50.783  1.00  0.00    -0.405 N 
HETATM    9  C16 UNL     1      24.722   7.085  50.818  1.00  0.00     0.132 C 
HETATM   10  H14 UNL     1      27.045   7.758  51.297  1.00  0.00     0.154 HD
ENDROOT
BRANCH   6  11
HETATM   11  N1  UNL     1      28.393   8.435  48.900  1.00  0.00    -0.251 NA
HETATM   12  C9  UNL     1      28.537   9.459  48.144  1.00  0.00     0.081 A 
HETATM   13  C10 UNL     1      29.705  10.292  48.430  1.00  0.00     0.056 A 
HETATM   14  C14 UNL     1      27.546   9.726  47.058  1.00  0.00     0.160 A 
HETATM   15  C11 UNL     1      30.635   9.933  49.546  1.00  0.00     0.072 C 
HETATM   16  N2  UNL     1      29.993  11.359  47.760  1.00  0.00    -0.264 NA
HETATM   17  C12 UNL     1      29.090  11.685  46.698  1.00  0.00     0.115 A 
HETATM   18  C13 UNL     1      28.007  10.978  46.375  1.00  0.00     0.019 A 
HETATM   19 CL1  UNL     1      27.643   8.418  45.861  1.00  0.00    -0.114 Cl
ENDBRANCH   6  11
BRANCH   1  20
HETATM   20  C2  UNL     1      24.007   6.905  47.319  1.00  0.00    -0.001 C 
HETATM   21  C1  UNL     1      22.688   6.255  47.399  1.00  0.00     0.011 C 
ENDBRANCH   1  20
TORSDOF 2
ENDMDL
MODEL 6
REMARK VINA RESULT:      -6.1      2.108      3.057
REMARK  2 active torsions:
REMARK  status: ('A' for Active; 'I' for Inactive)
REMARK    1  A    between atoms: C2_2  and  C3_3 
REMARK    2  A    between atoms: C8_8  and  N1_9 
ROOT
HETATM    1  C3  UNL     1      20.834   0.846  51.302  1.00  0.00     0.022 A 
HETATM    2  C4  UNL     1      20.781   1.472  49.991  1.00  0.00     0.036 A 
HETATM    3  C5  UNL     1      20.366   3.022  50.174  1.00  0.00    -0.011 C 
HETATM    4  C6  UNL     1      20.968   3.881  51.424  1.00  0.00    -0.001 C 
HETATM    5  C7  UNL     1      22.153   3.415  52.102  1.00  0.00     0.029 C 
HETATM    6  C8  UNL     1      22.829   2.182  51.264  1.00  0.00     0.065 C 
HETATM    7  C15 UNL     1      21.903   1.437  50.342  1.00  0.00     0.094 A 
HETATM    8  N3  UNL     1      22.473   2.083  49.054  1.00  0.00    -0.405 N 
HETATM    9  C16 UNL     1      21.082   1.546  48.510  1.00  0.00     0.132 C 
HETATM   10  H14 UNL     1      23.319   2.528  48.846  1.00  0.00     0.154 HD
ENDROOT
BRANCH   6  11
HETATM   11  N1  UNL     1      24.213   2.069  51.493  1.00  0.00    -0.251 NA
HETATM   12  C9  UNL     1      24.819   1.128  52.118  1.00  0.00     0.081 A 
HETATM   13  C10 UNL     1      26.272   1.267  52.207  1.00  0.00     0.056 A 
HETATM   14  C14 UNL     1      24.035  -0.004  52.696  1.00  0.00     0.160 A 
HETATM   15  C11 UNL     1      26.959   2.445  51.588  1.00  0.00     0.072 C 
HETATM   16  N2  UNL     1      27.030   0.406  52.804  1.00  0.00    -0.264 NA
HETATM   17  C12 UNL     1      26.352  -0.712  53.387  1.00  0.00     0.115 A 
HETATM   18  C13 UNL     1      25.035  -0.910  53.349  1.00  0.00     0.019 A 
HETATM   19 CL1  UNL     1      22.988   0.624  53.985  1.00  0.00    -0.114 Cl
ENDBRANCH   6  11
BRANCH   1  20
HETATM   20  C2  UNL     1      19.675   0.204  51.511  1.00  0.00    -0.001 C 
HETATM   21  C1  UNL     1      18.286   0.011  51.061  1.00  0.00     0.011 C 
ENDBRANCH   1  20
TORSDOF 2
ENDMDL
MODEL 7
REMARK VINA RESULT:      -6.1      3.846      5.728
REMARK  2 active torsions:
REMARK  status: ('A' for Active; 'I' for Inactive)
REMARK    1  A    between atoms: C2_2  and  C3_3 
REMARK    2  A    between atoms: C8_8  and  N1_9 
ROOT
HETATM    1  C3  UNL     1      21.184   3.053  51.292  1.00  0.00     0.022 A 
HETATM    2  C4  UNL     1      21.734   1.749  51.630  1.00  0.00     0.036 A 
HETATM    3  C5  UNL     1      21.503   0.752  50.382  1.00  0.00    -0.011 C 
HETATM    4  C6  UNL     1      21.686   1.303  48.857  1.00  0.00    -0.001 C 
HETATM    5  C7  UNL     1      22.434   2.514  48.623  1.00  0.00     0.029 C 
HETATM    6  C8  UNL     1      23.203   2.970  49.995  1.00  0.00     0.065 C 
HETATM    7  C15 UNL     1      22.613   2.446  51.275  1.00  0.00     0.094 A 
HETATM    8  N3  UNL     1      23.725   1.387  51.493  1.00  0.00    -0.405 N 
HETATM    9  C16 UNL     1      22.595   0.812  52.447  1.00  0.00     0.132 C 
HETATM   10  H14 UNL     1      24.638   1.297  51.155  1.00  0.00     0.154 HD
ENDROOT
BRANCH   6  11
HETATM   11  N1  UNL     1      24.358   3.732  49.738  1.00  0.00    -0.251 NA
HETATM   12  C9  UNL     1      24.519   4.986  49.950  1.00  0.00     0.081 A 
HETATM   13  C10 UNL     1      25.831   5.521  49.586  1.00  0.00     0.056 A 
HETATM   14  C14 UNL     1      23.401   5.792  50.526  1.00  0.00     0.160 A 
HETATM   15  C11 UNL     1      26.883   4.622  49.016  1.00  0.00     0.072 C 
HETATM   16  N2  UNL     1      26.154   6.764  49.735  1.00  0.00    -0.264 NA
HETATM   17  C12 UNL     1      25.134   7.605  50.284  1.00  0.00     0.115 A 
HETATM   18  C13 UNL     1      23.916   7.195  50.638  1.00  0.00     0.019 A 
HETATM   19 CL1  UNL     1      22.060   5.825  49.362  1.00  0.00    -0.114 Cl
ENDBRANCH   6  11
BRANCH   1  20
HETATM   20  C2  UNL     1      19.957   3.145  51.827  1.00  0.00    -0.001 C 
HETATM   21  C1  UNL     1      18.514   3.275  51.561  1.00  0.00     0.011 C 
ENDBRANCH   1  20
TORSDOF 2
ENDMDL
MODEL 8
REMARK VINA RESULT:      -6.0      3.939      6.498
REMARK  2 active torsions:
REMARK  status: ('A' for Active; 'I' for Inactive)
REMARK    1  A    between atoms: C2_2  and  C3_3 
REMARK    2  A    between atoms: C8_8  and  N1_9 
ROOT
HETATM    1  C3  UNL     1      22.821   1.908  51.481  1.00  0.00     0.022 A 
HETATM    2  C4  UNL     1      21.950   1.293  50.492  1.00  0.00     0.036 A 
HETATM    3  C5  UNL     1      20.550   0.913  51.201  1.00  0.00    -0.011 C 
HETATM    4  C6  UNL     1      19.892   1.930  52.294  1.00  0.00    -0.001 C 
HETATM    5  C7  UNL     1      20.311   3.310  52.326  1.00  0.00     0.029 C 
HETATM    6  C8  UNL     1      21.231   3.645  51.013  1.00  0.00     0.065 C 
HETATM    7  C15 UNL     1      21.894   2.461  50.364  1.00  0.00     0.094 A 
HETATM    8  N3  UNL     1      20.918   2.422  49.161  1.00  0.00    -0.405 N 
HETATM    9  C16 UNL     1      21.527   0.959  49.079  1.00  0.00     0.132 C 
HETATM   10  H14 UNL     1      20.321   3.087  48.762  1.00  0.00     0.154 HD
ENDROOT
BRANCH   6  11
HETATM   11  N1  UNL     1      21.186   5.006  50.656  1.00  0.00    -0.251 NA
HETATM   12  C9  UNL     1      22.148   5.850  50.709  1.00  0.00     0.081 A 
HETATM   13  C10 UNL     1      21.818   7.207  50.274  1.00  0.00     0.056 A 
HETATM   14  C14 UNL     1      23.492   5.416  51.196  1.00  0.00     0.160 A 
HETATM   15  C11 UNL     1      20.436   7.535  49.801  1.00  0.00     0.072 C 
HETATM   16  N2  UNL     1      22.673   8.176  50.268  1.00  0.00    -0.264 NA
HETATM   17  C12 UNL     1      23.989   7.841  50.723  1.00  0.00     0.115 A 
HETATM   18  C13 UNL     1      24.368   6.632  51.135  1.00  0.00     0.019 A 
HETATM   19 CL1  UNL     1      23.360   4.961  52.908  1.00  0.00    -0.114 Cl
ENDBRANCH   6  11
BRANCH   1  20
HETATM   20  C2  UNL     1      23.655   0.968  51.952  1.00  0.00    -0.001 C 
HETATM   21  C1  UNL     1      24.044   0.151  53.114  1.00  0.00     0.011 C 
ENDBRANCH   1  20
TORSDOF 2
ENDMDL
MODEL 9
REMARK VINA RESULT:      -6.0      7.579      8.990
REMARK  2 active torsions:
REMARK  status: ('A' for Active; 'I' for Inactive)
REMARK    1  A    between atoms: C2_2  and  C3_3 
REMARK    2  A    between atoms: C8_8  and  N1_9 
ROOT
HETATM    1  C3  UNL     1      29.046   6.593  48.000  1.00  0.00     0.022 A 
HETATM    2  C4  UNL     1      28.603   7.557  47.005  1.00  0.00     0.036 A 
HETATM    3  C5  UNL     1      28.044   8.866  47.768  1.00  0.00    -0.011 C 
HETATM    4  C6  UNL     1      28.808   9.417  49.101  1.00  0.00    -0.001 C 
HETATM    5  C7  UNL     1      30.170   9.016  49.357  1.00  0.00     0.029 C 
HETATM    6  C8  UNL     1      30.784   8.249  48.047  1.00  0.00     0.065 C 
HETATM    7  C15 UNL     1      29.771   7.643  47.115  1.00  0.00     0.094 A 
HETATM    8  N3  UNL     1      29.930   8.743  46.034  1.00  0.00    -0.405 N 
HETATM    9  C16 UNL     1      28.533   8.126  45.606  1.00  0.00     0.132 C 
HETATM   10  H14 UNL     1      30.638   9.390  45.837  1.00  0.00     0.154 HD
ENDROOT
BRANCH   6  11
HETATM   11  N1  UNL     1      32.185   8.352  47.969  1.00  0.00    -0.251 NA
HETATM   12  C9  UNL     1      33.040   7.417  48.161  1.00  0.00     0.081 A 
HETATM   13  C10 UNL     1      34.442   7.808  48.014  1.00  0.00     0.056 A 
HETATM   14  C14 UNL     1      32.572   6.043  48.511  1.00  0.00     0.160 A 
HETATM   15  C11 UNL     1      34.802   9.216  47.657  1.00  0.00     0.072 C 
HETATM   16  N2  UNL     1      35.426   6.985  48.175  1.00  0.00    -0.264 NA
HETATM   17  C12 UNL     1      35.060   5.643  48.514  1.00  0.00     0.115 A 
HETATM   18  C13 UNL     1      33.809   5.210  48.667  1.00  0.00     0.019 A 
HETATM   19 CL1  UNL     1      31.782   6.096  50.102  1.00  0.00    -0.114 Cl
ENDBRANCH   6  11
BRANCH   1  20
HETATM   20  C2  UNL     1      28.063   5.699  48.190  1.00  0.00    -0.001 C 
HETATM   21  C1  UNL     1      26.798   5.404  48.883  1.00  0.00     0.011 C 
ENDBRANCH   1  20
TORSDOF 2
ENDMDL
