MODEL 1
REMARK VINA RESULT:      -8.0      0.000      0.000
REMARK  6 active torsions:
REMARK  status: ('A' for Active; 'I' for Inactive)
REMARK    1  A    between atoms: O1_2  and  C2_3 
REMARK    2  A    between atoms: C5_7  and  N2_8 
REMARK    3  A    between atoms: C13_17  and  N3_18 
REMARK       I    between atoms: N3_18  and  C14_19 
REMARK    4  A    between atoms: C14_19  and  C15_21 
REMARK    5  A    between atoms: C16_22  and  C17_23 
REMARK    6  A    between atoms: C17_23  and  N4_24 
ROOT
HETATM    1  C2  UNL     1      27.906   0.036  54.126  1.00  0.00     0.078 C 
HETATM    2  C3  UNL     1      27.491   0.745  53.034  1.00  0.00     0.085 C 
HETATM    3  N1  UNL     1      26.808  -0.383  52.104  1.00  0.00    -0.380 N 
HETATM    4  C4  UNL     1      25.365  -0.741  52.475  1.00  0.00     0.177 C 
HETATM    5  C5  UNL     1      24.776   0.315  53.448  1.00  0.00     0.036 C 
HETATM    6  C11 UNL     1      25.802   1.032  54.052  1.00  0.00    -0.025 C 
HETATM    7  C12 UNL     1      26.525   2.486  53.920  1.00  0.00     0.041 C 
HETATM    8  C13 UNL     1      26.811   2.053  52.628  1.00  0.00     0.064 C 
HETATM    9  C20 UNL     1      26.611   0.089  54.971  1.00  0.00     0.107 C 
HETATM   10  H4  UNL     1      26.762  -1.127  51.275  1.00  0.00     0.160 HD
ENDROOT
BRANCH   8  11
HETATM   11  N3  UNL     1      26.571   3.098  51.578  1.00  0.00    -0.322 N 
HETATM   12  C14 UNL     1      25.561   3.076  50.636  1.00  0.00     0.245 C 
HETATM   13  O2  UNL     1      24.707   2.166  50.553  1.00  0.00    -0.268 OA
HETATM   14  H13 UNL     1      27.336   3.833  51.718  1.00  0.00     0.169 HD
BRANCH  12  15
HETATM   15  C15 UNL     1      25.660   4.240  49.798  1.00  0.00     0.072 C 
HETATM   16  C16 UNL     1      26.737   4.818  49.320  1.00  0.00     0.008 C 
BRANCH  16  17
HETATM   17  C17 UNL     1      26.665   6.019  48.464  1.00  0.00     0.299 C 
BRANCH  17  18
HETATM   18  N4  UNL     1      27.978   6.422  47.994  1.00  0.00     0.083 N 
HETATM   19  C18 UNL     1      29.003   5.475  48.332  1.00  0.00     0.309 C 
HETATM   20  C19 UNL     1      28.363   7.712  48.495  1.00  0.00     0.309 C 
ENDBRANCH  17  18
ENDBRANCH  16  17
ENDBRANCH  12  15
ENDBRANCH   8  11
BRANCH   1  21
HETATM   21  O1  UNL     1      29.140  -0.547  54.415  1.00  0.00    -0.358 OA
HETATM   22  C1  UNL     1      30.183  -0.693  53.504  1.00  0.00     0.209 C 
ENDBRANCH   1  21
BRANCH   5  23
HETATM   23  N2  UNL     1      23.315   0.349  53.483  1.00  0.00    -0.354 N 
HETATM   24  C6  UNL     1      22.813  -0.740  54.240  1.00  0.00     0.091 A 
HETATM   25  C7  UNL     1      21.482  -0.801  54.339  1.00  0.00     0.018 A 
HETATM   26  C8  UNL     1      20.603   0.200  53.706  1.00  0.00     0.018 A 
HETATM   27  C9  UNL     1      21.109   1.223  52.994  1.00  0.00     0.007 A 
HETATM   28 BR1  UNL     1      19.963   2.502  52.184  1.00  0.00    -0.054 Br
HETATM   29  C10 UNL     1      22.551   1.387  52.819  1.00  0.00     0.174 A 
ENDBRANCH   5  23
TORSDOF 6
ENDMDL
MODEL 2
REMARK VINA RESULT:      -7.8      1.430      1.669
REMARK  6 active torsions:
REMARK  status: ('A' for Active; 'I' for Inactive)
REMARK    1  A    between atoms: O1_2  and  C2_3 
REMARK    2  A    between atoms: C5_7  and  N2_8 
REMARK    3  A    between atoms: C13_17  and  N3_18 
REMARK       I    between atoms: N3_18  and  C14_19 
REMARK    4  A    between atoms: C14_19  and  C15_21 
REMARK    5  A    between atoms: C16_22  and  C17_23 
REMARK    6  A    between atoms: C17_23  and  N4_24 
ROOT
HETATM    1  C2  UNL     1      27.916   0.438  54.001  1.00  0.00     0.078 C 
HETATM    2  C3  UNL     1      27.309   1.074  52.955  1.00  0.00     0.085 C 
HETATM    3  N1  UNL     1      26.859  -0.145  51.998  1.00  0.00    -0.380 N 
HETATM    4  C4  UNL     1      25.549  -0.831  52.397  1.00  0.00     0.177 C 
HETATM    5  C5  UNL     1      24.778   0.030  53.434  1.00  0.00     0.036 C 
HETATM    6  C11 UNL     1      25.641   0.937  54.037  1.00  0.00    -0.025 C 
HETATM    7  C12 UNL     1      26.015   2.520  53.947  1.00  0.00     0.041 C 
HETATM    8  C13 UNL     1      26.339   2.209  52.628  1.00  0.00     0.064 C 
HETATM    9  C20 UNL     1      26.677   0.167  54.887  1.00  0.00     0.107 C 
HETATM   10  H4  UNL     1      26.946  -0.850  51.139  1.00  0.00     0.160 HD
ENDROOT
BRANCH   8  11
HETATM   11  N3  UNL     1      25.829   3.210  51.634  1.00  0.00    -0.322 N 
HETATM   12  C14 UNL     1      26.151   3.249  50.291  1.00  0.00     0.245 C 
HETATM   13  O2  UNL     1      26.918   2.431  49.737  1.00  0.00    -0.268 OA
HETATM   14  H13 UNL     1      25.185   3.866  52.184  1.00  0.00     0.169 HD
BRANCH  12  15
HETATM   15  C15 UNL     1      25.478   4.355  49.667  1.00  0.00     0.072 C 
HETATM   16  C16 UNL     1      25.933   5.562  49.422  1.00  0.00     0.008 C 
BRANCH  16  17
HETATM   17  C17 UNL     1      25.103   6.591  48.766  1.00  0.00     0.299 C 
BRANCH  17  18
HETATM   18  N4  UNL     1      25.107   7.838  49.510  1.00  0.00     0.083 N 
HETATM   19  C18 UNL     1      26.395   8.150  50.062  1.00  0.00     0.309 C 
HETATM   20  C19 UNL     1      24.141   7.839  50.573  1.00  0.00     0.309 C 
ENDBRANCH  17  18
ENDBRANCH  16  17
ENDBRANCH  12  15
ENDBRANCH   8  11
BRANCH   1  21
HETATM   21  O1  UNL     1      29.260   0.137  54.226  1.00  0.00    -0.358 OA
HETATM   22  C1  UNL     1      29.952  -0.909  53.622  1.00  0.00     0.209 C 
ENDBRANCH   1  21
BRANCH   5  23
HETATM   23  N2  UNL     1      23.349  -0.267  53.516  1.00  0.00    -0.354 N 
HETATM   24  C6  UNL     1      23.077  -1.081  54.645  1.00  0.00     0.091 A 
HETATM   25  C7  UNL     1      21.793  -1.409  54.816  1.00  0.00     0.018 A 
HETATM   26  C8  UNL     1      20.738  -0.950  53.894  1.00  0.00     0.018 A 
HETATM   27  C9  UNL     1      21.027  -0.177  52.832  1.00  0.00     0.007 A 
HETATM   28 BR1  UNL     1      19.657   0.405  51.653  1.00  0.00    -0.054 Br
HETATM   29  C10 UNL     1      22.399   0.242  52.547  1.00  0.00     0.174 A 
ENDBRANCH   5  23
TORSDOF 6
ENDMDL
MODEL 3
REMARK VINA RESULT:      -7.6      3.179      5.675
REMARK  6 active torsions:
REMARK  status: ('A' for Active; 'I' for Inactive)
REMARK    1  A    between atoms: O1_2  and  C2_3 
REMARK    2  A    between atoms: C5_7  and  N2_8 
REMARK    3  A    between atoms: C13_17  and  N3_18 
REMARK       I    between atoms: N3_18  and  C14_19 
REMARK    4  A    between atoms: C14_19  and  C15_21 
REMARK    5  A    between atoms: C16_22  and  C17_23 
REMARK    6  A    between atoms: C17_23  and  N4_24 
ROOT
HETATM    1  C2  UNL     1      22.231   6.128  50.925  1.00  0.00     0.078 C 
HETATM    2  C3  UNL     1      23.580   5.918  50.844  1.00  0.00     0.085 C 
HETATM    3  N1  UNL     1      24.032   5.847  52.391  1.00  0.00    -0.380 N 
HETATM    4  C4  UNL     1      23.817   4.490  53.067  1.00  0.00     0.177 C 
HETATM    5  C5  UNL     1      23.531   3.393  52.005  1.00  0.00     0.036 C 
HETATM    6  C11 UNL     1      23.122   3.978  50.813  1.00  0.00    -0.025 C 
HETATM    7  C12 UNL     1      23.738   4.339  49.350  1.00  0.00     0.041 C 
HETATM    8  C13 UNL     1      24.634   5.108  50.089  1.00  0.00     0.064 C 
HETATM    9  C20 UNL     1      21.751   4.661  51.024  1.00  0.00     0.107 C 
HETATM   10  H4  UNL     1      24.446   6.240  53.349  1.00  0.00     0.160 HD
ENDROOT
BRANCH   8  11
HETATM   11  N3  UNL     1      26.059   4.966  49.641  1.00  0.00    -0.322 N 
HETATM   12  C14 UNL     1      26.696   5.765  48.711  1.00  0.00     0.245 C 
HETATM   13  O2  UNL     1      26.146   6.726  48.128  1.00  0.00    -0.268 OA
HETATM   14  H13 UNL     1      26.453   4.131  50.183  1.00  0.00     0.169 HD
BRANCH  12  15
HETATM   15  C15 UNL     1      28.049   5.315  48.536  1.00  0.00     0.072 C 
HETATM   16  C16 UNL     1      29.100   6.001  48.152  1.00  0.00     0.008 C 
BRANCH  16  17
HETATM   17  C17 UNL     1      30.434   5.382  48.023  1.00  0.00     0.299 C 
BRANCH  17  18
HETATM   18  N4  UNL     1      31.385   5.957  48.956  1.00  0.00     0.083 N 
HETATM   19  C18 UNL     1      31.194   7.367  49.145  1.00  0.00     0.309 C 
HETATM   20  C19 UNL     1      32.746   5.729  48.556  1.00  0.00     0.309 C 
ENDBRANCH  17  18
ENDBRANCH  16  17
ENDBRANCH  12  15
ENDBRANCH   8  11
BRANCH   1  21
HETATM   21  O1  UNL     1      21.494   7.312  50.901  1.00  0.00    -0.358 OA
HETATM   22  C1  UNL     1      21.216   8.053  49.756  1.00  0.00     0.209 C 
ENDBRANCH   1  21
BRANCH   5  23
HETATM   23  N2  UNL     1      23.786   2.030  52.468  1.00  0.00    -0.354 N 
HETATM   24  C6  UNL     1      25.126   1.656  52.190  1.00  0.00     0.091 A 
HETATM   25  C7  UNL     1      25.466   0.424  52.578  1.00  0.00     0.018 A 
HETATM   26  C8  UNL     1      24.512  -0.477  53.250  1.00  0.00     0.018 A 
HETATM   27  C9  UNL     1      23.247  -0.095  53.500  1.00  0.00     0.007 A 
HETATM   28 BR1  UNL     1      22.030  -1.268  54.366  1.00  0.00    -0.054 Br
HETATM   29  C10 UNL     1      22.765   1.232  53.119  1.00  0.00     0.174 A 
ENDBRANCH   5  23
TORSDOF 6
ENDMDL
MODEL 4
REMARK VINA RESULT:      -7.5      3.280      5.547
REMARK  6 active torsions:
REMARK  status: ('A' for Active; 'I' for Inactive)
REMARK    1  A    between atoms: O1_2  and  C2_3 
REMARK    2  A    between atoms: C5_7  and  N2_8 
REMARK    3  A    between atoms: C13_17  and  N3_18 
REMARK       I    between atoms: N3_18  and  C14_19 
REMARK    4  A    between atoms: C14_19  and  C15_21 
REMARK    5  A    between atoms: C16_22  and  C17_23 
REMARK    6  A    between atoms: C17_23  and  N4_24 
ROOT
HETATM    1  C2  UNL     1      22.084   4.812  50.732  1.00  0.00     0.078 C 
HETATM    2  C3  UNL     1      23.443   4.909  50.617  1.00  0.00     0.085 C 
HETATM    3  N1  UNL     1      23.911   5.273  52.117  1.00  0.00    -0.380 N 
HETATM    4  C4  UNL     1      24.034   4.077  53.066  1.00  0.00     0.177 C 
HETATM    5  C5  UNL     1      24.009   2.746  52.268  1.00  0.00     0.036 C 
HETATM    6  C11 UNL     1      23.463   2.954  51.008  1.00  0.00    -0.025 C 
HETATM    7  C12 UNL     1      23.963   3.132  49.468  1.00  0.00     0.041 C 
HETATM    8  C13 UNL     1      24.654   4.226  49.982  1.00  0.00     0.064 C 
HETATM    9  C20 UNL     1      21.970   3.328  51.155  1.00  0.00     0.107 C 
HETATM   10  H4  UNL     1      24.227   5.945  52.950  1.00  0.00     0.160 HD
ENDROOT
BRANCH   8  11
HETATM   11  N3  UNL     1      26.068   4.328  49.490  1.00  0.00    -0.322 N 
HETATM   12  C14 UNL     1      26.627   5.424  48.862  1.00  0.00     0.245 C 
HETATM   13  O2  UNL     1      26.005   6.486  48.635  1.00  0.00    -0.268 OA
HETATM   14  H13 UNL     1      26.526   3.388  49.723  1.00  0.00     0.169 HD
BRANCH  12  15
HETATM   15  C15 UNL     1      27.996   5.142  48.529  1.00  0.00     0.072 C 
HETATM   16  C16 UNL     1      28.945   5.978  48.179  1.00  0.00     0.008 C 
BRANCH  16  17
HETATM   17  C17 UNL     1      30.314   5.521  47.866  1.00  0.00     0.299 C 
BRANCH  17  18
HETATM   18  N4  UNL     1      31.256   5.901  48.903  1.00  0.00     0.083 N 
HETATM   19  C18 UNL     1      31.284   7.317  49.136  1.00  0.00     0.309 C 
HETATM   20  C19 UNL     1      32.591   5.458  48.613  1.00  0.00     0.309 C 
ENDBRANCH  17  18
ENDBRANCH  16  17
ENDBRANCH  12  15
ENDBRANCH   8  11
BRANCH   1  21
HETATM   21  O1  UNL     1      21.084   5.759  50.512  1.00  0.00    -0.358 OA
HETATM   22  C1  UNL     1      21.302   7.128  50.377  1.00  0.00     0.209 C 
ENDBRANCH   1  21
BRANCH   5  23
HETATM   23  N2  UNL     1      24.587   1.608  52.982  1.00  0.00    -0.354 N 
HETATM   24  C6  UNL     1      23.615   0.592  53.163  1.00  0.00     0.091 A 
HETATM   25  C7  UNL     1      24.043  -0.500  53.804  1.00  0.00     0.018 A 
HETATM   26  C8  UNL     1      25.430  -0.632  54.283  1.00  0.00     0.018 A 
HETATM   27  C9  UNL     1      26.331   0.349  54.097  1.00  0.00     0.007 A 
HETATM   28 BR1  UNL     1      28.114   0.162  54.722  1.00  0.00    -0.054 Br
HETATM   29  C10 UNL     1      25.973   1.588  53.408  1.00  0.00     0.174 A 
ENDBRANCH   5  23
TORSDOF 6
ENDMDL
MODEL 5
REMARK VINA RESULT:      -7.2      3.183      7.076
REMARK  6 active torsions:
REMARK  status: ('A' for Active; 'I' for Inactive)
REMARK    1  A    between atoms: O1_2  and  C2_3 
REMARK    2  A    between atoms: C5_7  and  N2_8 
REMARK    3  A    between atoms: C13_17  and  N3_18 
REMARK       I    between atoms: N3_18  and  C14_19 
REMARK    4  A    between atoms: C14_19  and  C15_21 
REMARK    5  A    between atoms: C16_22  and  C17_23 
REMARK    6  A    between atoms: C17_23  and  N4_24 
ROOT
HETATM    1  C2  UNL     1      26.488   2.325  53.251  1.00  0.00     0.078 C 
HETATM    2  C3  UNL     1      25.181   1.994  53.476  1.00  0.00     0.085 C 
HETATM    3  N1  UNL     1      24.441   3.427  53.507  1.00  0.00    -0.380 N 
HETATM    4  C4  UNL     1      24.103   4.012  52.132  1.00  0.00     0.177 C 
HETATM    5  C5  UNL     1      24.243   2.926  51.030  1.00  0.00     0.036 C 
HETATM    6  C11 UNL     1      25.029   1.877  51.491  1.00  0.00    -0.025 C 
HETATM    7  C12 UNL     1      24.842   0.365  52.068  1.00  0.00     0.041 C 
HETATM    8  C13 UNL     1      24.096   1.001  53.057  1.00  0.00     0.064 C 
HETATM    9  C20 UNL     1      26.475   2.379  51.706  1.00  0.00     0.107 C 
HETATM   10  H4  UNL     1      23.990   4.329  53.982  1.00  0.00     0.160 HD
ENDROOT
BRANCH   8  11
HETATM   11  N3  UNL     1      22.808   0.302  53.380  1.00  0.00    -0.322 N 
HETATM   12  C14 UNL     1      22.648  -0.707  54.310  1.00  0.00     0.245 C 
HETATM   13  O2  UNL     1      23.580  -1.158  55.012  1.00  0.00    -0.268 OA
HETATM   14  H13 UNL     1      22.069   0.745  52.743  1.00  0.00     0.169 HD
BRANCH  12  15
HETATM   15  C15 UNL     1      21.276  -1.131  54.329  1.00  0.00     0.072 C 
HETATM   16  C16 UNL     1      20.300  -0.791  53.519  1.00  0.00     0.008 C 
BRANCH  16  17
HETATM   17  C17 UNL     1      18.932  -1.324  53.678  1.00  0.00     0.299 C 
BRANCH  17  18
HETATM   18  N4  UNL     1      17.974  -0.591  52.868  1.00  0.00     0.083 N 
HETATM   19  C18 UNL     1      16.776  -1.339  52.614  1.00  0.00     0.309 C 
HETATM   20  C19 UNL     1      18.531  -0.176  51.611  1.00  0.00     0.309 C 
ENDBRANCH  17  18
ENDBRANCH  16  17
ENDBRANCH  12  15
ENDBRANCH   8  11
BRANCH   1  21
HETATM   21  O1  UNL     1      27.539   2.531  54.146  1.00  0.00    -0.358 OA
HETATM   22  C1  UNL     1      28.863   2.168  53.914  1.00  0.00     0.209 C 
ENDBRANCH   1  21
BRANCH   5  23
HETATM   23  N2  UNL     1      23.505   3.218  49.803  1.00  0.00    -0.354 N 
HETATM   24  C6  UNL     1      22.785   2.074  49.373  1.00  0.00     0.091 A 
HETATM   25  C7  UNL     1      22.070   2.236  48.257  1.00  0.00     0.018 A 
HETATM   26  C8  UNL     1      22.033   3.517  47.529  1.00  0.00     0.018 A 
HETATM   27  C9  UNL     1      22.726   4.586  47.961  1.00  0.00     0.007 A 
HETATM   28 BR1  UNL     1      22.668   6.230  47.012  1.00  0.00    -0.054 Br
HETATM   29  C10 UNL     1      23.544   4.523  49.172  1.00  0.00     0.174 A 
ENDBRANCH   5  23
TORSDOF 6
ENDMDL
MODEL 6
REMARK VINA RESULT:      -7.2      3.525      7.577
REMARK  6 active torsions:
REMARK  status: ('A' for Active; 'I' for Inactive)
REMARK    1  A    between atoms: O1_2  and  C2_3 
REMARK    2  A    between atoms: C5_7  and  N2_8 
REMARK    3  A    between atoms: C13_17  and  N3_18 
REMARK       I    between atoms: N3_18  and  C14_19 
REMARK    4  A    between atoms: C14_19  and  C15_21 
REMARK    5  A    between atoms: C16_22  and  C17_23 
REMARK    6  A    between atoms: C17_23  and  N4_24 
ROOT
HETATM    1  C2  UNL     1      21.190   3.851  52.020  1.00  0.00     0.078 C 
HETATM    2  C3  UNL     1      22.450   3.335  51.901  1.00  0.00     0.085 C 
HETATM    3  N1  UNL     1      22.571   3.024  50.323  1.00  0.00    -0.380 N 
HETATM    4  C4  UNL     1      22.935   4.230  49.451  1.00  0.00     0.177 C 
HETATM    5  C5  UNL     1      23.443   5.404  50.332  1.00  0.00     0.036 C 
HETATM    6  C11 UNL     1      23.035   5.224  51.648  1.00  0.00    -0.025 C 
HETATM    7  C12 UNL     1      23.658   4.724  53.068  1.00  0.00     0.041 C 
HETATM    8  C13 UNL     1      23.890   3.540  52.372  1.00  0.00     0.064 C 
HETATM    9  C20 UNL     1      21.496   5.339  51.725  1.00  0.00     0.107 C 
HETATM   10  H4  UNL     1      22.541   2.392  49.405  1.00  0.00     0.160 HD
ENDROOT
BRANCH   8  11
HETATM   11  N3  UNL     1      25.252   2.959  52.615  1.00  0.00    -0.322 N 
HETATM   12  C14 UNL     1      26.167   2.614  51.640  1.00  0.00     0.245 C 
HETATM   13  O2  UNL     1      25.963   2.758  50.414  1.00  0.00    -0.268 OA
HETATM   14  H13 UNL     1      25.346   2.871  53.678  1.00  0.00     0.169 HD
BRANCH  12  15
HETATM   15  C15 UNL     1      27.350   2.081  52.257  1.00  0.00     0.072 C 
HETATM   16  C16 UNL     1      27.753   2.200  53.501  1.00  0.00     0.008 C 
BRANCH  16  17
HETATM   17  C17 UNL     1      29.006   1.583  53.979  1.00  0.00     0.299 C 
BRANCH  17  18
HETATM   18  N4  UNL     1      28.763   0.303  54.621  1.00  0.00     0.083 N 
HETATM   19  C18 UNL     1      29.213  -0.808  53.832  1.00  0.00     0.309 C 
HETATM   20  C19 UNL     1      27.375   0.109  54.937  1.00  0.00     0.309 C 
ENDBRANCH  17  18
ENDBRANCH  16  17
ENDBRANCH  12  15
ENDBRANCH   8  11
BRANCH   1  21
HETATM   21  O1  UNL     1      19.981   3.232  52.337  1.00  0.00    -0.358 OA
HETATM   22  C1  UNL     1      18.814   3.335  51.585  1.00  0.00     0.209 C 
ENDBRANCH   1  21
BRANCH   5  23
HETATM   23  N2  UNL     1      24.249   6.388  49.612  1.00  0.00    -0.354 N 
HETATM   24  C6  UNL     1      23.862   6.443  48.249  1.00  0.00     0.091 A 
HETATM   25  C7  UNL     1      24.537   7.319  47.499  1.00  0.00     0.018 A 
HETATM   26  C8  UNL     1      25.605   8.168  48.057  1.00  0.00     0.018 A 
HETATM   27  C9  UNL     1      25.950   8.094  49.354  1.00  0.00     0.007 A 
HETATM   28 BR1  UNL     1      27.330   9.194  50.057  1.00  0.00    -0.054 Br
HETATM   29  C10 UNL     1      25.279   7.170  50.268  1.00  0.00     0.174 A 
ENDBRANCH   5  23
TORSDOF 6
ENDMDL
MODEL 7
REMARK VINA RESULT:      -7.1      2.691      6.351
REMARK  6 active torsions:
REMARK  status: ('A' for Active; 'I' for Inactive)
REMARK    1  A    between atoms: O1_2  and  C2_3 
REMARK    2  A    between atoms: C5_7  and  N2_8 
REMARK    3  A    between atoms: C13_17  and  N3_18 
REMARK       I    between atoms: N3_18  and  C14_19 
REMARK    4  A    between atoms: C14_19  and  C15_21 
REMARK    5  A    between atoms: C16_22  and  C17_23 
REMARK    6  A    between atoms: C17_23  and  N4_24 
ROOT
HETATM    1  C2  UNL     1      23.680   6.662  49.904  1.00  0.00     0.078 C 
HETATM    2  C3  UNL     1      24.440   5.806  50.650  1.00  0.00     0.085 C 
HETATM    3  N1  UNL     1      23.673   5.777  52.068  1.00  0.00    -0.380 N 
HETATM    4  C4  UNL     1      22.468   4.834  52.134  1.00  0.00     0.177 C 
HETATM    5  C5  UNL     1      22.471   3.863  50.922  1.00  0.00     0.036 C 
HETATM    6  C11 UNL     1      23.275   4.368  49.908  1.00  0.00    -0.025 C 
HETATM    7  C12 UNL     1      24.764   4.132  49.291  1.00  0.00     0.041 C 
HETATM    8  C13 UNL     1      25.181   4.470  50.577  1.00  0.00     0.064 C 
HETATM    9  C20 UNL     1      22.639   5.661  49.349  1.00  0.00     0.107 C 
HETATM   10  H4  UNL     1      23.482   6.067  53.129  1.00  0.00     0.160 HD
ENDROOT
BRANCH   8  11
HETATM   11  N3  UNL     1      26.258   3.573  51.114  1.00  0.00    -0.322 N 
HETATM   12  C14 UNL     1      26.105   2.648  52.128  1.00  0.00     0.245 C 
HETATM   13  O2  UNL     1      25.024   2.443  52.723  1.00  0.00    -0.268 OA
HETATM   14  H13 UNL     1      27.140   3.810  50.555  1.00  0.00     0.169 HD
BRANCH  12  15
HETATM   15  C15 UNL     1      27.359   1.989  52.371  1.00  0.00     0.072 C 
HETATM   16  C16 UNL     1      28.082   1.978  53.466  1.00  0.00     0.008 C 
BRANCH  16  17
HETATM   17  C17 UNL     1      29.360   1.243  53.551  1.00  0.00     0.299 C 
BRANCH  17  18
HETATM   18  N4  UNL     1      29.215  -0.001  54.286  1.00  0.00     0.083 N 
HETATM   19  C18 UNL     1      29.333  -1.158  53.445  1.00  0.00     0.309 C 
HETATM   20  C19 UNL     1      27.966  -0.073  54.991  1.00  0.00     0.309 C 
ENDBRANCH  17  18
ENDBRANCH  16  17
ENDBRANCH  12  15
ENDBRANCH   8  11
BRANCH   1  21
HETATM   21  O1  UNL     1      23.810   8.033  49.682  1.00  0.00    -0.358 OA
HETATM   22  C1  UNL     1      25.021   8.707  49.553  1.00  0.00     0.209 C 
ENDBRANCH   1  21
BRANCH   5  23
HETATM   23  N2  UNL     1      21.683   2.648  51.125  1.00  0.00    -0.354 N 
HETATM   24  C6  UNL     1      21.061   2.254  49.913  1.00  0.00     0.091 A 
HETATM   25  C7  UNL     1      20.317   1.146  49.988  1.00  0.00     0.018 A 
HETATM   26  C8  UNL     1      20.161   0.392  51.244  1.00  0.00     0.018 A 
HETATM   27  C9  UNL     1      20.763   0.790  52.378  1.00  0.00     0.007 A 
HETATM   28 BR1  UNL     1      20.551  -0.193  53.989  1.00  0.00    -0.054 Br
HETATM   29  C10 UNL     1      21.601   1.988  52.414  1.00  0.00     0.174 A 
ENDBRANCH   5  23
TORSDOF 6
ENDMDL
MODEL 8
REMARK VINA RESULT:      -6.8      3.394      6.022
REMARK  6 active torsions:
REMARK  status: ('A' for Active; 'I' for Inactive)
REMARK    1  A    between atoms: O1_2  and  C2_3 
REMARK    2  A    between atoms: C5_7  and  N2_8 
REMARK    3  A    between atoms: C13_17  and  N3_18 
REMARK       I    between atoms: N3_18  and  C14_19 
REMARK    4  A    between atoms: C14_19  and  C15_21 
REMARK    5  A    between atoms: C16_22  and  C17_23 
REMARK    6  A    between atoms: C17_23  and  N4_24 
ROOT
HETATM    1  C2  UNL     1      18.989   2.244  49.513  1.00  0.00     0.078 C 
HETATM    2  C3  UNL     1      20.228   2.793  49.691  1.00  0.00     0.085 C 
HETATM    3  N1  UNL     1      20.134   3.436  51.167  1.00  0.00    -0.380 N 
HETATM    4  C4  UNL     1      20.357   2.451  52.319  1.00  0.00     0.177 C 
HETATM    5  C5  UNL     1      20.964   1.124  51.788  1.00  0.00     0.036 C 
HETATM    6  C11 UNL     1      20.745   1.011  50.421  1.00  0.00    -0.025 C 
HETATM    7  C12 UNL     1      21.565   1.205  49.027  1.00  0.00     0.041 C 
HETATM    8  C13 UNL     1      21.716   2.514  49.478  1.00  0.00     0.064 C 
HETATM    9  C20 UNL     1      19.229   0.859  50.158  1.00  0.00     0.107 C 
HETATM   10  H4  UNL     1      19.987   4.250  51.915  1.00  0.00     0.160 HD
ENDROOT
BRANCH   8  11
HETATM   11  N3  UNL     1      23.107   3.051  49.306  1.00  0.00    -0.322 N 
HETATM   12  C14 UNL     1      23.893   3.588  50.307  1.00  0.00     0.245 C 
HETATM   13  O2  UNL     1      23.529   3.683  51.500  1.00  0.00    -0.268 OA
HETATM   14  H13 UNL     1      23.339   2.931  48.268  1.00  0.00     0.169 HD
BRANCH  12  15
HETATM   15  C15 UNL     1      25.154   4.003  49.758  1.00  0.00     0.072 C 
HETATM   16  C16 UNL     1      25.465   5.143  49.185  1.00  0.00     0.008 C 
BRANCH  16  17
HETATM   17  C17 UNL     1      26.821   5.413  48.668  1.00  0.00     0.299 C 
BRANCH  17  18
HETATM   18  N4  UNL     1      27.189   6.808  48.833  1.00  0.00     0.083 N 
HETATM   19  C18 UNL     1      26.199   7.562  49.548  1.00  0.00     0.309 C 
HETATM   20  C19 UNL     1      27.439   7.456  47.576  1.00  0.00     0.309 C 
ENDBRANCH  17  18
ENDBRANCH  16  17
ENDBRANCH  12  15
ENDBRANCH   8  11
BRANCH   1  21
HETATM   21  O1  UNL     1      17.844   2.763  48.906  1.00  0.00    -0.358 OA
HETATM   22  C1  UNL     1      17.843   3.583  47.781  1.00  0.00     0.209 C 
ENDBRANCH   1  21
BRANCH   5  23
HETATM   23  N2  UNL     1      21.649   0.329  52.806  1.00  0.00    -0.354 N 
HETATM   24  C6  UNL     1      20.708  -0.388  53.589  1.00  0.00     0.091 A 
HETATM   25  C7  UNL     1      21.232  -1.154  54.551  1.00  0.00     0.018 A 
HETATM   26  C8  UNL     1      22.686  -1.245  54.774  1.00  0.00     0.018 A 
HETATM   27  C9  UNL     1      23.554  -0.553  54.015  1.00  0.00     0.007 A 
HETATM   28 BR1  UNL     1      25.424  -0.681  54.317  1.00  0.00    -0.054 Br
HETATM   29  C10 UNL     1      23.093   0.317  52.934  1.00  0.00     0.174 A 
ENDBRANCH   5  23
TORSDOF 6
ENDMDL
MODEL 9
REMARK VINA RESULT:      -6.7      5.995      9.647
REMARK  6 active torsions:
REMARK  status: ('A' for Active; 'I' for Inactive)
REMARK    1  A    between atoms: O1_2  and  C2_3 
REMARK    2  A    between atoms: C5_7  and  N2_8 
REMARK    3  A    between atoms: C13_17  and  N3_18 
REMARK       I    between atoms: N3_18  and  C14_19 
REMARK    4  A    between atoms: C14_19  and  C15_21 
REMARK    5  A    between atoms: C16_22  and  C17_23 
REMARK    6  A    between atoms: C17_23  and  N4_24 
ROOT
HETATM    1  C2  UNL     1      28.222  11.080  47.472  1.00  0.00     0.078 C 
HETATM    2  C3  UNL     1      29.234  10.258  47.883  1.00  0.00     0.085 C 
HETATM    3  N1  UNL     1      28.971  10.118  49.468  1.00  0.00    -0.380 N 
HETATM    4  C4  UNL     1      27.912   9.082  49.860  1.00  0.00     0.177 C 
HETATM    5  C5  UNL     1      27.582   8.160  48.655  1.00  0.00     0.036 C 
HETATM    6  C11 UNL     1      27.983   8.763  47.469  1.00  0.00    -0.025 C 
HETATM    7  C12 UNL     1      29.203   8.665  46.394  1.00  0.00     0.041 C 
HETATM    8  C13 UNL     1      29.992   8.987  47.496  1.00  0.00     0.064 C 
HETATM    9  C20 UNL     1      27.122  10.022  47.221  1.00  0.00     0.107 C 
HETATM   10  H4  UNL     1      29.116  10.353  50.548  1.00  0.00     0.160 HD
ENDROOT
BRANCH   8  11
HETATM   11  N3  UNL     1      31.237   8.157  47.606  1.00  0.00    -0.322 N 
HETATM   12  C14 UNL     1      31.989   7.977  48.751  1.00  0.00     0.245 C 
HETATM   13  O2  UNL     1      31.706   8.492  49.855  1.00  0.00    -0.268 OA
HETATM   14  H13 UNL     1      31.406   7.755  46.628  1.00  0.00     0.169 HD
BRANCH  12  15
HETATM   15  C15 UNL     1      33.111   7.128  48.462  1.00  0.00     0.072 C 
HETATM   16  C16 UNL     1      33.392   6.488  47.350  1.00  0.00     0.008 C 
BRANCH  16  17
HETATM   17  C17 UNL     1      34.598   5.647  47.216  1.00  0.00     0.299 C 
BRANCH  17  18
HETATM   18  N4  UNL     1      34.266   4.293  46.811  1.00  0.00     0.083 N 
HETATM   19  C18 UNL     1      34.460   3.336  47.863  1.00  0.00     0.309 C 
HETATM   20  C19 UNL     1      35.017   3.870  45.662  1.00  0.00     0.309 C 
ENDBRANCH  17  18
ENDBRANCH  16  17
ENDBRANCH  12  15
ENDBRANCH   8  11
BRANCH   1  21
HETATM   21  O1  UNL     1      28.189  12.464  47.302  1.00  0.00    -0.358 OA
HETATM   22  C1  UNL     1      28.125  13.391  48.339  1.00  0.00     0.209 C 
ENDBRANCH   1  21
BRANCH   5  23
HETATM   23  N2  UNL     1      26.978   6.881  49.027  1.00  0.00    -0.354 N 
HETATM   24  C6  UNL     1      27.740   5.804  48.504  1.00  0.00     0.091 A 
HETATM   25  C7  UNL     1      27.275   4.585  48.791  1.00  0.00     0.018 A 
HETATM   26  C8  UNL     1      26.057   4.381  49.597  1.00  0.00     0.018 A 
HETATM   27  C9  UNL     1      25.356   5.422  50.079  1.00  0.00     0.007 A 
HETATM   28 BR1  UNL     1      23.789   5.142  51.115  1.00  0.00    -0.054 Br
HETATM   29  C10 UNL     1      25.772   6.802  49.827  1.00  0.00     0.174 A 
ENDBRANCH   5  23
TORSDOF 6
ENDMDL
