MODEL 1
REMARK VINA RESULT:      -8.9      0.000      0.000
REMARK  2 active torsions:
REMARK  status: ('A' for Active; 'I' for Inactive)
REMARK    1  A    between atoms: N2_17  and  S1_18 
REMARK    2  A    between atoms: C15_20  and  O1_21 
ROOT
HETATM    1  C1  UNL     1      20.627   0.728  54.341  1.00  0.00     0.018 C 
HETATM    2  C2  UNL     1      21.264  -0.470  53.765  1.00  0.00     0.028 C 
HETATM    3  C3  UNL     1      21.879  -0.203  52.482  1.00  0.00    -0.018 C 
HETATM    4  C4  UNL     1      22.203   1.051  52.375  1.00  0.00     0.009 C 
HETATM    5  C5  UNL     1      22.841   1.969  51.451  1.00  0.00    -0.027 A 
HETATM    6  C6  UNL     1      22.682   2.868  50.471  1.00  0.00     0.031 A 
HETATM    7  C7  UNL     1      23.768   3.470  49.871  1.00  0.00     0.011 A 
HETATM    8 BR1  UNL     1      23.108   4.668  48.545  1.00  0.00    -0.051 Br
HETATM    9  C8  UNL     1      25.031   3.147  50.281  1.00  0.00     0.020 A 
HETATM   10  C9  UNL     1      25.229   2.236  51.279  1.00  0.00     0.011 A 
HETATM   11  C10 UNL     1      24.215   1.599  51.920  1.00  0.00    -0.027 A 
HETATM   12  C11 UNL     1      24.447   0.685  52.987  1.00  0.00     0.133 C 
HETATM   13  C12 UNL     1      24.284  -0.789  52.696  1.00  0.00     0.085 C 
HETATM   14  C13 UNL     1      23.385  -0.934  53.873  1.00  0.00     0.020 C 
HETATM   15  C14 UNL     1      22.319  -0.968  54.736  1.00  0.00     0.007 C 
HETATM   16  N1  UNL     1      24.613  -0.530  54.704  1.00  0.00    -0.312 N 
HETATM   17  N2  UNL     1      25.417   0.516  53.953  1.00  0.00    -0.141 NA
HETATM   18  H14 UNL     1      25.012  -0.790  55.707  1.00  0.00     0.181 HD
ENDROOT
BRANCH  17  19
HETATM   19  S1  UNL     1      26.977   0.040  53.806  1.00  0.00     0.063 SA
HETATM   20  N3  UNL     1      27.607  -1.524  53.531  1.00  0.00    -0.175 NA
HETATM   21  C15 UNL     1      29.069  -1.434  53.477  1.00  0.00     0.177 A 
HETATM   22  C16 UNL     1      29.874  -0.399  53.601  1.00  0.00     0.117 A 
HETATM   23  S2  UNL     1      28.962   1.104  53.879  1.00  0.00    -0.036 SA
BRANCH  21  24
HETATM   24  O1  UNL     1      29.519  -2.764  53.248  1.00  0.00    -0.344 OA
HETATM   25  H15 UNL     1      28.938  -3.564  53.400  1.00  0.00     0.219 HD
ENDBRANCH  21  24
ENDBRANCH  17  19
TORSDOF 2
ENDMDL
MODEL 2
REMARK VINA RESULT:      -8.9      2.655      4.573
REMARK  2 active torsions:
REMARK  status: ('A' for Active; 'I' for Inactive)
REMARK    1  A    between atoms: N2_17  and  S1_18 
REMARK    2  A    between atoms: C15_20  and  O1_21 
ROOT
HETATM    1  C1  UNL     1      22.784   3.422  48.387  1.00  0.00     0.018 C 
HETATM    2  C2  UNL     1      23.355   4.217  49.488  1.00  0.00     0.028 C 
HETATM    3  C3  UNL     1      22.900   3.764  50.787  1.00  0.00    -0.018 C 
HETATM    4  C4  UNL     1      22.561   2.510  50.747  1.00  0.00     0.009 C 
HETATM    5  C5  UNL     1      22.080   1.451  51.613  1.00  0.00    -0.027 A 
HETATM    6  C6  UNL     1      21.021   0.781  52.087  1.00  0.00     0.031 A 
HETATM    7  C7  UNL     1      21.171  -0.222  53.021  1.00  0.00     0.011 A 
HETATM    8 BR1  UNL     1      19.439  -0.906  53.421  1.00  0.00    -0.051 Br
HETATM    9  C8  UNL     1      22.420  -0.543  53.473  1.00  0.00     0.020 A 
HETATM   10  C9  UNL     1      23.521   0.118  53.009  1.00  0.00     0.011 A 
HETATM   11  C10 UNL     1      23.460   1.117  52.091  1.00  0.00    -0.027 A 
HETATM   12  C11 UNL     1      24.627   1.762  51.592  1.00  0.00     0.133 C 
HETATM   13  C12 UNL     1      24.926   3.157  52.090  1.00  0.00     0.085 C 
HETATM   14  C13 UNL     1      25.072   3.640  50.690  1.00  0.00     0.020 C 
HETATM   15  C14 UNL     1      24.868   4.117  49.421  1.00  0.00     0.007 C 
HETATM   16  N1  UNL     1      26.260   2.670  50.612  1.00  0.00    -0.312 N 
HETATM   17  N2  UNL     1      25.948   1.411  51.401  1.00  0.00    -0.141 NA
HETATM   18  H14 UNL     1      27.245   2.662  50.097  1.00  0.00     0.181 HD
ENDROOT
BRANCH  17  19
HETATM   19  S1  UNL     1      27.127   1.118  52.499  1.00  0.00     0.063 SA
HETATM   20  N3  UNL     1      28.137   2.224  53.321  1.00  0.00    -0.175 NA
HETATM   21  C15 UNL     1      29.033   1.471  54.201  1.00  0.00     0.177 A 
HETATM   22  C16 UNL     1      29.144   0.175  54.415  1.00  0.00     0.117 A 
HETATM   23  S2  UNL     1      27.978  -0.747  53.435  1.00  0.00    -0.036 SA
BRANCH  21  24
HETATM   24  O1  UNL     1      29.838   2.450  54.847  1.00  0.00    -0.344 OA
HETATM   25  H15 UNL     1      29.516   3.381  55.024  1.00  0.00     0.219 HD
ENDBRANCH  21  24
ENDBRANCH  17  19
TORSDOF 2
ENDMDL
MODEL 3
REMARK VINA RESULT:      -8.4      4.268      6.108
REMARK  2 active torsions:
REMARK  status: ('A' for Active; 'I' for Inactive)
REMARK    1  A    between atoms: N2_17  and  S1_18 
REMARK    2  A    between atoms: C15_20  and  O1_21 
ROOT
HETATM    1  C1  UNL     1      26.788  -1.021  52.410  1.00  0.00     0.018 C 
HETATM    2  C2  UNL     1      26.062  -0.274  53.452  1.00  0.00     0.028 C 
HETATM    3  C3  UNL     1      25.999   1.145  53.168  1.00  0.00    -0.018 C 
HETATM    4  C4  UNL     1      26.094   1.367  51.891  1.00  0.00     0.009 C 
HETATM    5  C5  UNL     1      26.077   2.460  50.939  1.00  0.00    -0.027 A 
HETATM    6  C6  UNL     1      26.792   3.335  50.220  1.00  0.00     0.031 A 
HETATM    7  C7  UNL     1      26.176   4.275  49.421  1.00  0.00     0.011 A 
HETATM    8 BR1  UNL     1      27.540   5.308  48.582  1.00  0.00    -0.051 Br
HETATM    9  C8  UNL     1      24.812   4.317  49.357  1.00  0.00     0.020 A 
HETATM   10  C9  UNL     1      24.052   3.439  50.075  1.00  0.00     0.011 A 
HETATM   11  C10 UNL     1      24.580   2.484  50.885  1.00  0.00    -0.027 A 
HETATM   12  C11 UNL     1      23.767   1.553  51.590  1.00  0.00     0.133 C 
HETATM   13  C12 UNL     1      23.593   1.757  53.078  1.00  0.00     0.085 C 
HETATM   14  C13 UNL     1      23.981   0.343  53.330  1.00  0.00     0.020 C 
HETATM   15  C14 UNL     1      24.654  -0.831  53.552  1.00  0.00     0.007 C 
HETATM   16  N1  UNL     1      22.717  -0.015  52.534  1.00  0.00    -0.312 N 
HETATM   17  N2  UNL     1      22.529   0.973  51.398  1.00  0.00    -0.141 NA
HETATM   18  H14 UNL     1      21.958  -0.825  52.575  1.00  0.00     0.181 HD
ENDROOT
BRANCH  17  19
HETATM   19  S1  UNL     1      21.035   1.639  51.461  1.00  0.00     0.063 SA
HETATM   20  N3  UNL     1      19.510   0.870  51.480  1.00  0.00    -0.175 NA
HETATM   21  C15 UNL     1      18.469   1.900  51.543  1.00  0.00     0.177 A 
HETATM   22  C16 UNL     1      18.558   3.214  51.582  1.00  0.00     0.117 A 
HETATM   23  S2  UNL     1      20.254   3.752  51.552  1.00  0.00    -0.036 SA
BRANCH  21  24
HETATM   24  O1  UNL     1      17.237   1.189  51.554  1.00  0.00    -0.344 OA
HETATM   25  H15 UNL     1      16.693   1.040  50.728  1.00  0.00     0.219 HD
ENDBRANCH  21  24
ENDBRANCH  17  19
TORSDOF 2
ENDMDL
MODEL 4
REMARK VINA RESULT:      -8.4      4.346      6.224
REMARK  2 active torsions:
REMARK  status: ('A' for Active; 'I' for Inactive)
REMARK    1  A    between atoms: N2_17  and  S1_18 
REMARK    2  A    between atoms: C15_20  and  O1_21 
ROOT
HETATM    1  C1  UNL     1      25.648  -0.622  55.483  1.00  0.00     0.018 C 
HETATM    2  C2  UNL     1      25.999  -0.463  54.061  1.00  0.00     0.028 C 
HETATM    3  C3  UNL     1      24.857  -0.645  53.189  1.00  0.00    -0.018 C 
HETATM    4  C4  UNL     1      23.749  -0.377  53.814  1.00  0.00     0.009 C 
HETATM    5  C5  UNL     1      22.319  -0.312  53.583  1.00  0.00    -0.027 A 
HETATM    6  C6  UNL     1      21.140  -0.944  53.653  1.00  0.00     0.031 A 
HETATM    7  C7  UNL     1      19.980  -0.342  53.212  1.00  0.00     0.011 A 
HETATM    8 BR1  UNL     1      18.549  -1.567  53.490  1.00  0.00    -0.051 Br
HETATM    9  C8  UNL     1      20.030   0.922  52.695  1.00  0.00     0.020 A 
HETATM   10  C9  UNL     1      21.215   1.595  52.610  1.00  0.00     0.011 A 
HETATM   11  C10 UNL     1      22.400   1.075  53.021  1.00  0.00    -0.027 A 
HETATM   12  C11 UNL     1      23.615   1.814  52.961  1.00  0.00     0.133 C 
HETATM   13  C12 UNL     1      24.606   1.450  51.879  1.00  0.00     0.085 C 
HETATM   14  C13 UNL     1      25.692   1.343  52.891  1.00  0.00     0.020 C 
HETATM   15  C14 UNL     1      26.570   0.929  53.859  1.00  0.00     0.007 C 
HETATM   16  N1  UNL     1      25.451   2.842  53.126  1.00  0.00    -0.312 N 
HETATM   17  N2  UNL     1      23.968   3.147  53.011  1.00  0.00    -0.141 NA
HETATM   18  H14 UNL     1      26.085   3.716  53.388  1.00  0.00     0.181 HD
ENDROOT
BRANCH  17  19
HETATM   19  S1  UNL     1      23.713   4.344  51.924  1.00  0.00     0.063 SA
HETATM   20  N3  UNL     1      22.451   5.494  51.860  1.00  0.00    -0.175 NA
HETATM   21  C15 UNL     1      22.665   6.355  50.694  1.00  0.00     0.177 A 
HETATM   22  C16 UNL     1      23.616   6.352  49.782  1.00  0.00     0.117 A 
HETATM   23  S2  UNL     1      24.801   5.057  50.083  1.00  0.00    -0.036 SA
BRANCH  21  24
HETATM   24  O1  UNL     1      21.584   7.280  50.705  1.00  0.00    -0.344 OA
HETATM   25  H15 UNL     1      21.624   8.150  51.197  1.00  0.00     0.219 HD
ENDBRANCH  21  24
ENDBRANCH  17  19
TORSDOF 2
ENDMDL
MODEL 5
REMARK VINA RESULT:      -8.4      2.629      4.377
REMARK  2 active torsions:
REMARK  status: ('A' for Active; 'I' for Inactive)
REMARK    1  A    between atoms: N2_17  and  S1_18 
REMARK    2  A    between atoms: C15_20  and  O1_21 
ROOT
HETATM    1  C1  UNL     1      21.623   5.040  50.011  1.00  0.00     0.018 C 
HETATM    2  C2  UNL     1      22.349   5.331  51.261  1.00  0.00     0.028 C 
HETATM    3  C3  UNL     1      22.029   4.390  52.314  1.00  0.00    -0.018 C 
HETATM    4  C4  UNL     1      21.639   3.254  51.818  1.00  0.00     0.009 C 
HETATM    5  C5  UNL     1      21.220   1.931  52.239  1.00  0.00    -0.027 A 
HETATM    6  C6  UNL     1      20.198   1.116  52.530  1.00  0.00     0.031 A 
HETATM    7  C7  UNL     1      20.415  -0.176  52.959  1.00  0.00     0.011 A 
HETATM    8 BR1  UNL     1      18.715  -0.982  53.259  1.00  0.00    -0.051 Br
HETATM    9  C8  UNL     1      21.694  -0.639  53.089  1.00  0.00     0.020 A 
HETATM   10  C9  UNL     1      22.759   0.165  52.799  1.00  0.00     0.011 A 
HETATM   11  C10 UNL     1      22.632   1.448  52.372  1.00  0.00    -0.027 A 
HETATM   12  C11 UNL     1      23.758   2.251  52.035  1.00  0.00     0.133 C 
HETATM   13  C12 UNL     1      24.167   3.332  53.009  1.00  0.00     0.085 C 
HETATM   14  C13 UNL     1      24.168   4.338  51.913  1.00  0.00     0.020 C 
HETATM   15  C14 UNL     1      23.838   5.283  50.975  1.00  0.00     0.007 C 
HETATM   16  N1  UNL     1      25.301   3.494  51.309  1.00  0.00    -0.312 N 
HETATM   17  N2  UNL     1      25.033   2.021  51.561  1.00  0.00    -0.141 NA
HETATM   18  H14 UNL     1      26.218   3.704  50.718  1.00  0.00     0.181 HD
ENDROOT
BRANCH  17  19
HETATM   19  S1  UNL     1      26.319   1.324  52.297  1.00  0.00     0.063 SA
HETATM   20  N3  UNL     1      26.695  -0.333  52.472  1.00  0.00    -0.175 NA
HETATM   21  C15 UNL     1      27.956  -0.449  53.209  1.00  0.00     0.177 A 
HETATM   22  C16 UNL     1      28.755   0.476  53.703  1.00  0.00     0.117 A 
HETATM   23  S2  UNL     1      28.131   2.112  53.380  1.00  0.00    -0.036 SA
BRANCH  21  24
HETATM   24  O1  UNL     1      28.203  -1.845  53.317  1.00  0.00    -0.344 OA
HETATM   25  H15 UNL     1      28.007  -2.486  52.574  1.00  0.00     0.219 HD
ENDBRANCH  21  24
ENDBRANCH  17  19
TORSDOF 2
ENDMDL
MODEL 6
REMARK VINA RESULT:      -8.3      4.431      6.757
REMARK  2 active torsions:
REMARK  status: ('A' for Active; 'I' for Inactive)
REMARK    1  A    between atoms: N2_17  and  S1_18 
REMARK    2  A    between atoms: C15_20  and  O1_21 
ROOT
HETATM    1  C1  UNL     1      25.031   5.377  50.371  1.00  0.00     0.018 C 
HETATM    2  C2  UNL     1      24.317   4.484  49.440  1.00  0.00     0.028 C 
HETATM    3  C3  UNL     1      24.702   3.098  49.604  1.00  0.00    -0.018 C 
HETATM    4  C4  UNL     1      25.138   2.877  50.809  1.00  0.00     0.009 C 
HETATM    5  C5  UNL     1      25.629   1.797  51.643  1.00  0.00    -0.027 A 
HETATM    6  C6  UNL     1      26.695   1.139  52.116  1.00  0.00     0.031 A 
HETATM    7  C7  UNL     1      26.549   0.042  52.940  1.00  0.00     0.011 A 
HETATM    8 BR1  UNL     1      28.291  -0.587  53.382  1.00  0.00    -0.051 Br
HETATM    9  C8  UNL     1      25.297  -0.383  53.282  1.00  0.00     0.020 A 
HETATM   10  C9  UNL     1      24.188   0.265  52.819  1.00  0.00     0.011 A 
HETATM   11  C10 UNL     1      24.245   1.351  52.004  1.00  0.00    -0.027 A 
HETATM   12  C11 UNL     1      23.075   2.035  51.569  1.00  0.00     0.133 C 
HETATM   13  C12 UNL     1      22.633   1.831  50.138  1.00  0.00     0.085 C 
HETATM   14  C13 UNL     1      22.561   3.304  49.937  1.00  0.00     0.020 C 
HETATM   15  C14 UNL     1      22.827   4.626  49.685  1.00  0.00     0.007 C 
HETATM   16  N1  UNL     1      21.459   3.271  51.006  1.00  0.00    -0.312 N 
HETATM   17  N2  UNL     1      21.803   2.238  52.065  1.00  0.00    -0.141 NA
HETATM   18  H14 UNL     1      20.521   3.835  51.197  1.00  0.00     0.181 HD
ENDROOT
BRANCH  17  19
HETATM   19  S1  UNL     1      20.567   1.181  52.255  1.00  0.00     0.063 SA
HETATM   20  N3  UNL     1      20.409  -0.106  53.367  1.00  0.00    -0.175 NA
HETATM   21  C15 UNL     1      19.117  -0.760  53.141  1.00  0.00     0.177 A 
HETATM   22  C16 UNL     1      18.160  -0.502  52.272  1.00  0.00     0.117 A 
HETATM   23  S2  UNL     1      18.578   0.884  51.237  1.00  0.00    -0.036 SA
BRANCH  21  24
HETATM   24  O1  UNL     1      19.057  -1.813  54.095  1.00  0.00    -0.344 OA
HETATM   25  H15 UNL     1      19.219  -1.667  55.071  1.00  0.00     0.219 HD
ENDBRANCH  21  24
ENDBRANCH  17  19
TORSDOF 2
ENDMDL
MODEL 7
REMARK VINA RESULT:      -8.1      7.925     10.366
REMARK  2 active torsions:
REMARK  status: ('A' for Active; 'I' for Inactive)
REMARK    1  A    between atoms: N2_17  and  S1_18 
REMARK    2  A    between atoms: C15_20  and  O1_21 
ROOT
HETATM    1  C1  UNL     1      29.351  11.036  47.577  1.00  0.00     0.018 C 
HETATM    2  C2  UNL     1      30.317  10.545  48.575  1.00  0.00     0.028 C 
HETATM    3  C3  UNL     1      29.807   9.417  49.326  1.00  0.00    -0.018 C 
HETATM    4  C4  UNL     1      28.909   8.772  48.642  1.00  0.00     0.009 C 
HETATM    5  C5  UNL     1      28.052   7.606  48.735  1.00  0.00    -0.027 A 
HETATM    6  C6  UNL     1      26.844   7.122  49.051  1.00  0.00     0.031 A 
HETATM    7  C7  UNL     1      26.572   5.773  48.968  1.00  0.00     0.011 A 
HETATM    8 BR1  UNL     1      24.761   5.512  49.499  1.00  0.00    -0.051 Br
HETATM    9  C8  UNL     1      27.549   4.911  48.555  1.00  0.00     0.020 A 
HETATM   10  C9  UNL     1      28.791   5.371  48.224  1.00  0.00     0.011 A 
HETATM   11  C10 UNL     1      29.140   6.682  48.278  1.00  0.00    -0.027 A 
HETATM   12  C11 UNL     1      30.429   7.141  47.886  1.00  0.00     0.133 C 
HETATM   13  C12 UNL     1      31.395   7.539  48.978  1.00  0.00     0.085 C 
HETATM   14  C13 UNL     1      31.641   8.843  48.304  1.00  0.00     0.020 C 
HETATM   15  C14 UNL     1      31.589  10.137  47.854  1.00  0.00     0.007 C 
HETATM   16  N1  UNL     1      32.213   7.999  47.155  1.00  0.00    -0.312 N 
HETATM   17  N2  UNL     1      31.404   6.724  47.003  1.00  0.00    -0.141 NA
HETATM   18  H14 UNL     1      33.031   8.121  46.413  1.00  0.00     0.181 HD
ENDROOT
BRANCH  17  19
HETATM   19  S1  UNL     1      32.384   5.414  47.061  1.00  0.00     0.063 SA
HETATM   20  N3  UNL     1      32.300   4.046  48.082  1.00  0.00    -0.175 NA
HETATM   21  C15 UNL     1      33.406   3.146  47.746  1.00  0.00     0.177 A 
HETATM   22  C16 UNL     1      34.361   3.252  46.844  1.00  0.00     0.117 A 
HETATM   23  S2  UNL     1      34.216   4.766  45.919  1.00  0.00    -0.036 SA
BRANCH  21  24
HETATM   24  O1  UNL     1      33.272   2.039  48.629  1.00  0.00    -0.344 OA
HETATM   25  H15 UNL     1      33.937   1.842  49.351  1.00  0.00     0.219 HD
ENDBRANCH  21  24
ENDBRANCH  17  19
TORSDOF 2
ENDMDL
MODEL 8
REMARK VINA RESULT:      -7.8      1.903      2.151
REMARK  2 active torsions:
REMARK  status: ('A' for Active; 'I' for Inactive)
REMARK    1  A    between atoms: N2_17  and  S1_18 
REMARK    2  A    between atoms: C15_20  and  O1_21 
ROOT
HETATM    1  C1  UNL     1      19.808   1.387  52.581  1.00  0.00     0.018 C 
HETATM    2  C2  UNL     1      20.674   0.280  52.138  1.00  0.00     0.028 C 
HETATM    3  C3  UNL     1      21.537   0.662  51.040  1.00  0.00    -0.018 C 
HETATM    4  C4  UNL     1      21.753   1.944  51.044  1.00  0.00     0.009 C 
HETATM    5  C5  UNL     1      22.492   2.959  50.318  1.00  0.00    -0.027 A 
HETATM    6  C6  UNL     1      22.474   3.886  49.352  1.00  0.00     0.031 A 
HETATM    7  C7  UNL     1      23.604   4.610  49.036  1.00  0.00     0.011 A 
HETATM    8 BR1  UNL     1      23.151   5.806  47.625  1.00  0.00    -0.051 Br
HETATM    9  C8  UNL     1      24.765   4.381  49.719  1.00  0.00     0.020 A 
HETATM   10  C9  UNL     1      24.818   3.445  50.712  1.00  0.00     0.011 A 
HETATM   11  C10 UNL     1      23.752   2.690  51.083  1.00  0.00    -0.027 A 
HETATM   12  C11 UNL     1      23.822   1.750  52.150  1.00  0.00     0.133 C 
HETATM   13  C12 UNL     1      23.874   0.283  51.791  1.00  0.00     0.085 C 
HETATM   14  C13 UNL     1      22.749   0.002  52.723  1.00  0.00     0.020 C 
HETATM   15  C14 UNL     1      21.523  -0.168  53.314  1.00  0.00     0.007 C 
HETATM   16  N1  UNL     1      23.709   0.473  53.826  1.00  0.00    -0.312 N 
HETATM   17  N2  UNL     1      24.557   1.622  53.311  1.00  0.00    -0.141 NA
HETATM   18  H14 UNL     1      23.891   0.202  54.888  1.00  0.00     0.181 HD
ENDROOT
BRANCH  17  19
HETATM   19  S1  UNL     1      26.148   1.294  53.517  1.00  0.00     0.063 SA
HETATM   20  N3  UNL     1      27.391   2.305  54.110  1.00  0.00    -0.175 NA
HETATM   21  C15 UNL     1      28.647   1.551  54.105  1.00  0.00     0.177 A 
HETATM   22  C16 UNL     1      28.909   0.313  53.736  1.00  0.00     0.117 A 
HETATM   23  S2  UNL     1      27.442  -0.517  53.161  1.00  0.00    -0.036 SA
BRANCH  21  24
HETATM   24  O1  UNL     1      29.628   2.450  54.606  1.00  0.00    -0.344 OA
HETATM   25  H15 UNL     1      29.810   2.560  55.584  1.00  0.00     0.219 HD
ENDBRANCH  21  24
ENDBRANCH  17  19
TORSDOF 2
ENDMDL
MODEL 9
REMARK VINA RESULT:      -7.6      5.006      7.348
REMARK  2 active torsions:
REMARK  status: ('A' for Active; 'I' for Inactive)
REMARK    1  A    between atoms: N2_17  and  S1_18 
REMARK    2  A    between atoms: C15_20  and  O1_21 
ROOT
HETATM    1  C1  UNL     1      25.711   6.242  50.033  1.00  0.00     0.018 C 
HETATM    2  C2  UNL     1      25.159   5.393  48.963  1.00  0.00     0.028 C 
HETATM    3  C3  UNL     1      25.473   3.992  49.155  1.00  0.00    -0.018 C 
HETATM    4  C4  UNL     1      25.674   3.730  50.412  1.00  0.00     0.009 C 
HETATM    5  C5  UNL     1      25.977   2.617  51.291  1.00  0.00    -0.027 A 
HETATM    6  C6  UNL     1      26.921   1.917  51.932  1.00  0.00     0.031 A 
HETATM    7  C7  UNL     1      26.599   0.807  52.684  1.00  0.00     0.011 A 
HETATM    8 BR1  UNL     1      28.215   0.116  53.419  1.00  0.00    -0.051 Br
HETATM    9  C8  UNL     1      25.295   0.410  52.779  1.00  0.00     0.020 A 
HETATM   10  C9  UNL     1      24.307   1.102  52.139  1.00  0.00     0.011 A 
HETATM   11  C10 UNL     1      24.539   2.204  51.380  1.00  0.00    -0.027 A 
HETATM   12  C11 UNL     1      23.486   2.932  50.757  1.00  0.00     0.133 C 
HETATM   13  C12 UNL     1      23.310   2.775  49.264  1.00  0.00     0.085 C 
HETATM   14  C13 UNL     1      23.313   4.254  49.095  1.00  0.00     0.020 C 
HETATM   15  C14 UNL     1      23.652   5.573  48.934  1.00  0.00     0.007 C 
HETATM   16  N1  UNL     1      22.032   4.228  49.944  1.00  0.00    -0.312 N 
HETATM   17  N2  UNL     1      22.150   3.161  51.017  1.00  0.00    -0.141 NA
HETATM   18  H14 UNL     1      21.090   4.815  49.975  1.00  0.00     0.181 HD
ENDROOT
BRANCH  17  19
HETATM   19  S1  UNL     1      20.875   2.136  50.948  1.00  0.00     0.063 SA
HETATM   20  N3  UNL     1      19.623   2.048  49.788  1.00  0.00    -0.175 NA
HETATM   21  C15 UNL     1      18.716   0.960  50.165  1.00  0.00     0.177 A 
HETATM   22  C16 UNL     1      18.746   0.127  51.185  1.00  0.00     0.117 A 
HETATM   23  S2  UNL     1      20.150   0.435  52.236  1.00  0.00    -0.036 SA
BRANCH  21  24
HETATM   24  O1  UNL     1      17.708   0.947  49.162  1.00  0.00    -0.344 OA
HETATM   25  H15 UNL     1      16.892   1.524  49.210  1.00  0.00     0.219 HD
ENDBRANCH  21  24
ENDBRANCH  17  19
TORSDOF 2
ENDMDL
