MODEL 1
REMARK VINA RESULT:      -7.8      0.000      0.000
REMARK  7 active torsions:
REMARK  status: ('A' for Active; 'I' for Inactive)
REMARK    1  A    between atoms: C2_2  and  C3_3 
REMARK    2  A    between atoms: C3_3  and  C4_4 
REMARK    3  A    between atoms: C4_4  and  N1_5 
REMARK    4  A    between atoms: N1_5  and  C5_6 
REMARK       I    between atoms: N1_5  and  C12_16 
REMARK    5  A    between atoms: C5_6  and  C6_7 
REMARK    6  A    between atoms: C11_14  and  O1_15 
REMARK    7  A    between atoms: C12_16  and  C13_18 
ROOT
HETATM    1  N1  UNL     1      24.579   0.421  53.203  1.00  0.00    -0.344 N 
HETATM    2  C12 UNL     1      26.022   0.492  53.109  1.00  0.00     0.254 C 
HETATM    3  O2  UNL     1      26.657   1.597  52.945  1.00  0.00    -0.267 OA
ENDROOT
BRANCH   1   4
HETATM    4  C4  UNL     1      23.913  -0.846  53.419  1.00  0.00     0.126 C 
BRANCH   4   5
HETATM    5  C3  UNL     1      23.043  -0.797  54.678  1.00  0.00     0.020 C 
BRANCH   5   6
HETATM    6  C2  UNL     1      21.595  -1.105  54.353  1.00  0.00    -0.003 C 
HETATM    7  C1  UNL     1      20.815   0.213  54.330  1.00  0.00     0.005 C 
ENDBRANCH   5   6
ENDBRANCH   4   5
ENDBRANCH   1   4
BRANCH   1   8
HETATM    8  C5  UNL     1      23.946   1.719  53.069  1.00  0.00     0.167 C 
BRANCH   8   9
HETATM    9  C6  UNL     1      23.713   2.188  51.714  1.00  0.00    -0.004 A 
HETATM   10  C7  UNL     1      22.714   1.514  50.991  1.00  0.00     0.035 A 
HETATM   11  C8  UNL     1      22.397   1.867  49.691  1.00  0.00     0.036 A 
HETATM   12 CL1  UNL     1      21.166   1.074  48.727  1.00  0.00    -0.084 Cl
HETATM   13  C9  UNL     1      23.032   2.889  49.024  1.00  0.00     0.050 A 
HETATM   14  C10 UNL     1      24.033   3.589  49.702  1.00  0.00     0.069 A 
HETATM   15 CL2  UNL     1      24.895   4.907  48.945  1.00  0.00    -0.081 Cl
HETATM   16  C11 UNL     1      24.303   3.193  50.991  1.00  0.00     0.095 A 
BRANCH  16  17
HETATM   17  O1  UNL     1      25.304   3.907  51.631  1.00  0.00    -0.358 OA
HETATM   18  H14 UNL     1      25.905   4.559  51.122  1.00  0.00     0.217 HD
ENDBRANCH  16  17
ENDBRANCH   8   9
ENDBRANCH   1   8
BRANCH   2  19
HETATM   19  C13 UNL     1      27.108  -0.472  53.149  1.00  0.00     0.032 A 
HETATM   20  C14 UNL     1      28.340  -0.023  53.662  1.00  0.00     0.017 A 
HETATM   21  C15 UNL     1      29.497  -0.809  53.762  1.00  0.00     0.001 A 
HETATM   22  C16 UNL     1      29.370  -2.110  53.314  1.00  0.00     0.000 A 
HETATM   23  C17 UNL     1      28.204  -2.639  52.795  1.00  0.00     0.001 A 
HETATM   24  C18 UNL     1      27.144  -1.780  52.747  1.00  0.00     0.017 A 
ENDBRANCH   2  19
TORSDOF 7
ENDMDL
MODEL 2
REMARK VINA RESULT:      -7.6      2.065      4.139
REMARK  7 active torsions:
REMARK  status: ('A' for Active; 'I' for Inactive)
REMARK    1  A    between atoms: C2_2  and  C3_3 
REMARK    2  A    between atoms: C3_3  and  C4_4 
REMARK    3  A    between atoms: C4_4  and  N1_5 
REMARK    4  A    between atoms: N1_5  and  C5_6 
REMARK       I    between atoms: N1_5  and  C12_16 
REMARK    5  A    between atoms: C5_6  and  C6_7 
REMARK    6  A    between atoms: C11_14  and  O1_15 
REMARK    7  A    between atoms: C12_16  and  C13_18 
ROOT
HETATM    1  N1  UNL     1      25.813   1.413  52.366  1.00  0.00    -0.344 N 
HETATM    2  C12 UNL     1      26.441   0.536  53.330  1.00  0.00     0.254 C 
HETATM    3  O2  UNL     1      25.936   0.296  54.487  1.00  0.00    -0.267 OA
ENDROOT
BRANCH   1   4
HETATM    4  C4  UNL     1      26.407   1.627  51.063  1.00  0.00     0.126 C 
BRANCH   4   5
HETATM    5  C3  UNL     1      26.627   3.120  50.801  1.00  0.00     0.020 C 
BRANCH   5   6
HETATM    6  C2  UNL     1      26.357   3.465  49.350  1.00  0.00    -0.003 C 
HETATM    7  C1  UNL     1      27.316   4.585  48.935  1.00  0.00     0.005 C 
ENDBRANCH   5   6
ENDBRANCH   4   5
ENDBRANCH   1   4
BRANCH   1   8
HETATM    8  C5  UNL     1      24.581   1.997  52.859  1.00  0.00     0.167 C 
BRANCH   8   9
HETATM    9  C6  UNL     1      23.347   1.370  52.419  1.00  0.00    -0.004 A 
HETATM   10  C7  UNL     1      22.752   0.475  53.325  1.00  0.00     0.035 A 
HETATM   11  C8  UNL     1      21.573  -0.185  53.023  1.00  0.00     0.036 A 
HETATM   12 CL1  UNL     1      20.773  -1.314  54.099  1.00  0.00    -0.084 Cl
HETATM   13  C9  UNL     1      20.912  -0.014  51.828  1.00  0.00     0.050 A 
HETATM   14  C10 UNL     1      21.466   0.867  50.896  1.00  0.00     0.069 A 
HETATM   15 CL2  UNL     1      20.700   1.157  49.352  1.00  0.00    -0.081 Cl
HETATM   16  C11 UNL     1      22.637   1.493  51.252  1.00  0.00     0.095 A 
BRANCH  16  17
HETATM   17  O1  UNL     1      23.158   2.356  50.301  1.00  0.00    -0.358 OA
HETATM   18  H14 UNL     1      22.767   2.412  49.357  1.00  0.00     0.217 HD
ENDBRANCH  16  17
ENDBRANCH   8   9
ENDBRANCH   1   8
BRANCH   2  19
HETATM   19  C13 UNL     1      27.656  -0.260  53.366  1.00  0.00     0.032 A 
HETATM   20  C14 UNL     1      27.545  -1.609  52.981  1.00  0.00     0.017 A 
HETATM   21  C15 UNL     1      28.608  -2.525  52.969  1.00  0.00     0.001 A 
HETATM   22  C16 UNL     1      29.830  -2.020  53.369  1.00  0.00     0.000 A 
HETATM   23  C17 UNL     1      30.036  -0.712  53.762  1.00  0.00     0.001 A 
HETATM   24  C18 UNL     1      28.928   0.087  53.735  1.00  0.00     0.017 A 
ENDBRANCH   2  19
TORSDOF 7
ENDMDL
MODEL 3
REMARK VINA RESULT:      -7.4      2.520      3.566
REMARK  7 active torsions:
REMARK  status: ('A' for Active; 'I' for Inactive)
REMARK    1  A    between atoms: C2_2  and  C3_3 
REMARK    2  A    between atoms: C3_3  and  C4_4 
REMARK    3  A    between atoms: C4_4  and  N1_5 
REMARK    4  A    between atoms: N1_5  and  C5_6 
REMARK       I    between atoms: N1_5  and  C12_16 
REMARK    5  A    between atoms: C5_6  and  C6_7 
REMARK    6  A    between atoms: C11_14  and  O1_15 
REMARK    7  A    between atoms: C12_16  and  C13_18 
ROOT
HETATM    1  N1  UNL     1      24.826   2.878  51.588  1.00  0.00    -0.344 N 
HETATM    2  C12 UNL     1      26.183   2.388  51.466  1.00  0.00     0.254 C 
HETATM    3  O2  UNL     1      26.882   2.529  50.397  1.00  0.00    -0.267 OA
ENDROOT
BRANCH   1   4
HETATM    4  C4  UNL     1      24.091   2.721  52.825  1.00  0.00     0.126 C 
BRANCH   4   5
HETATM    5  C3  UNL     1      22.996   1.660  52.679  1.00  0.00     0.020 C 
BRANCH   5   6
HETATM    6  C2  UNL     1      23.500   0.294  53.100  1.00  0.00    -0.003 C 
HETATM    7  C1  UNL     1      22.370  -0.428  53.842  1.00  0.00     0.005 C 
ENDBRANCH   5   6
ENDBRANCH   4   5
ENDBRANCH   1   4
BRANCH   1   8
HETATM    8  C5  UNL     1      24.350   3.516  50.375  1.00  0.00     0.167 C 
BRANCH   8   9
HETATM    9  C6  UNL     1      24.283   4.967  50.392  1.00  0.00    -0.004 A 
HETATM   10  C7  UNL     1      23.007   5.522  50.594  1.00  0.00     0.035 A 
HETATM   11  C8  UNL     1      22.812   6.892  50.632  1.00  0.00     0.036 A 
HETATM   12 CL1  UNL     1      21.254   7.658  50.879  1.00  0.00    -0.084 Cl
HETATM   13  C9  UNL     1      23.840   7.793  50.475  1.00  0.00     0.050 A 
HETATM   14  C10 UNL     1      25.126   7.287  50.272  1.00  0.00     0.069 A 
HETATM   15 CL2  UNL     1      26.499   8.349  50.068  1.00  0.00    -0.081 Cl
HETATM   16  C11 UNL     1      25.259   5.919  50.244  1.00  0.00     0.095 A 
BRANCH  16  17
HETATM   17  O1  UNL     1      26.547   5.454  50.037  1.00  0.00    -0.358 OA
HETATM   18  H14 UNL     1      27.232   5.419  50.796  1.00  0.00     0.217 HD
ENDBRANCH  16  17
ENDBRANCH   8   9
ENDBRANCH   1   8
BRANCH   2  19
HETATM   19  C13 UNL     1      27.105   1.676  52.333  1.00  0.00     0.032 A 
HETATM   20  C14 UNL     1      27.038   0.270  52.317  1.00  0.00     0.017 A 
HETATM   21  C15 UNL     1      27.839  -0.576  53.097  1.00  0.00     0.001 A 
HETATM   22  C16 UNL     1      28.745   0.061  53.924  1.00  0.00     0.000 A 
HETATM   23  C17 UNL     1      28.884   1.433  54.008  1.00  0.00     0.001 A 
HETATM   24  C18 UNL     1      28.050   2.154  53.202  1.00  0.00     0.017 A 
ENDBRANCH   2  19
TORSDOF 7
ENDMDL
MODEL 4
REMARK VINA RESULT:      -7.4      2.599      5.231
REMARK  7 active torsions:
REMARK  status: ('A' for Active; 'I' for Inactive)
REMARK    1  A    between atoms: C2_2  and  C3_3 
REMARK    2  A    between atoms: C3_3  and  C4_4 
REMARK    3  A    between atoms: C4_4  and  N1_5 
REMARK    4  A    between atoms: N1_5  and  C5_6 
REMARK       I    between atoms: N1_5  and  C12_16 
REMARK    5  A    between atoms: C5_6  and  C6_7 
REMARK    6  A    between atoms: C11_14  and  O1_15 
REMARK    7  A    between atoms: C12_16  and  C13_18 
ROOT
HETATM    1  N1  UNL     1      24.324   2.192  51.201  1.00  0.00    -0.344 N 
HETATM    2  C12 UNL     1      23.128   1.442  51.520  1.00  0.00     0.254 C 
HETATM    3  O2  UNL     1      22.130   1.346  50.717  1.00  0.00    -0.267 OA
ENDROOT
BRANCH   1   4
HETATM    4  C4  UNL     1      25.435   2.243  52.128  1.00  0.00     0.126 C 
BRANCH   4   5
HETATM    5  C3  UNL     1      26.539   1.267  51.712  1.00  0.00     0.020 C 
BRANCH   5   6
HETATM    6  C2  UNL     1      26.941   0.372  52.867  1.00  0.00    -0.003 C 
HETATM    7  C1  UNL     1      26.769  -1.086  52.429  1.00  0.00     0.005 C 
ENDBRANCH   5   6
ENDBRANCH   4   5
ENDBRANCH   1   4
BRANCH   1   8
HETATM    8  C5  UNL     1      24.254   2.830  49.901  1.00  0.00     0.167 C 
BRANCH   8   9
HETATM    9  C6  UNL     1      24.813   4.168  49.807  1.00  0.00    -0.004 A 
HETATM   10  C7  UNL     1      26.064   4.270  49.175  1.00  0.00     0.035 A 
HETATM   11  C8  UNL     1      26.701   5.490  49.022  1.00  0.00     0.036 A 
HETATM   12 CL1  UNL     1      28.260   5.697  48.247  1.00  0.00    -0.084 Cl
HETATM   13  C9  UNL     1      26.160   6.671  49.474  1.00  0.00     0.050 A 
HETATM   14  C10 UNL     1      24.916   6.619  50.109  1.00  0.00     0.069 A 
HETATM   15 CL2  UNL     1      24.142   8.064  50.713  1.00  0.00    -0.081 Cl
HETATM   16  C11 UNL     1      24.332   5.380  50.231  1.00  0.00     0.095 A 
BRANCH  16  17
HETATM   17  O1  UNL     1      23.103   5.367  50.869  1.00  0.00    -0.358 OA
HETATM   18  H14 UNL     1      22.277   4.952  50.430  1.00  0.00     0.217 HD
ENDBRANCH  16  17
ENDBRANCH   8   9
ENDBRANCH   1   8
BRANCH   2  19
HETATM   19  C13 UNL     1      22.672   0.659  52.656  1.00  0.00     0.032 A 
HETATM   20  C14 UNL     1      21.384   0.943  53.148  1.00  0.00     0.017 A 
HETATM   21  C15 UNL     1      20.789   0.300  54.243  1.00  0.00     0.001 A 
HETATM   22  C16 UNL     1      21.559  -0.675  54.848  1.00  0.00     0.000 A 
HETATM   23  C17 UNL     1      22.831  -1.023  54.437  1.00  0.00     0.001 A 
HETATM   24  C18 UNL     1      23.306  -0.328  53.361  1.00  0.00     0.017 A 
ENDBRANCH   2  19
TORSDOF 7
ENDMDL
MODEL 5
REMARK VINA RESULT:      -7.2      1.795      2.712
REMARK  7 active torsions:
REMARK  status: ('A' for Active; 'I' for Inactive)
REMARK    1  A    between atoms: C2_2  and  C3_3 
REMARK    2  A    between atoms: C3_3  and  C4_4 
REMARK    3  A    between atoms: C4_4  and  N1_5 
REMARK    4  A    between atoms: N1_5  and  C5_6 
REMARK       I    between atoms: N1_5  and  C12_16 
REMARK    5  A    between atoms: C5_6  and  C6_7 
REMARK    6  A    between atoms: C11_14  and  O1_15 
REMARK    7  A    between atoms: C12_16  and  C13_18 
ROOT
HETATM    1  N1  UNL     1      24.109   0.721  52.946  1.00  0.00    -0.344 N 
HETATM    2  C12 UNL     1      25.498   1.127  52.976  1.00  0.00     0.254 C 
HETATM    3  O2  UNL     1      25.875   2.338  52.770  1.00  0.00    -0.267 OA
ENDROOT
BRANCH   1   4
HETATM    4  C4  UNL     1      23.733  -0.651  53.216  1.00  0.00     0.126 C 
BRANCH   4   5
HETATM    5  C3  UNL     1      23.574  -0.888  54.720  1.00  0.00     0.020 C 
BRANCH   5   6
HETATM    6  C2  UNL     1      22.114  -0.851  55.127  1.00  0.00    -0.003 C 
HETATM    7  C1  UNL     1      21.355  -1.886  54.291  1.00  0.00     0.005 C 
ENDBRANCH   5   6
ENDBRANCH   4   5
ENDBRANCH   1   4
BRANCH   1   8
HETATM    8  C5  UNL     1      23.211   1.818  52.640  1.00  0.00     0.167 C 
BRANCH   8   9
HETATM    9  C6  UNL     1      22.297   1.614  51.530  1.00  0.00    -0.004 A 
HETATM   10  C7  UNL     1      22.821   1.849  50.247  1.00  0.00     0.035 A 
HETATM   11  C8  UNL     1      22.050   1.687  49.109  1.00  0.00     0.036 A 
HETATM   12 CL1  UNL     1      22.632   1.961  47.478  1.00  0.00    -0.084 Cl
HETATM   13  C9  UNL     1      20.733   1.292  49.154  1.00  0.00     0.050 A 
HETATM   14  C10 UNL     1      20.168   1.046  50.408  1.00  0.00     0.069 A 
HETATM   15 CL2  UNL     1      18.505   0.535  50.572  1.00  0.00    -0.081 Cl
HETATM   16  C11 UNL     1      20.982   1.223  51.502  1.00  0.00     0.095 A 
BRANCH  16  17
HETATM   17  O1  UNL     1      20.387   0.974  52.728  1.00  0.00    -0.358 OA
HETATM   18  H14 UNL     1      20.251   1.717  53.418  1.00  0.00     0.217 HD
ENDBRANCH  16  17
ENDBRANCH   8   9
ENDBRANCH   1   8
BRANCH   2  19
HETATM   19  C13 UNL     1      26.766   0.455  53.200  1.00  0.00     0.032 A 
HETATM   20  C14 UNL     1      27.759   1.180  53.885  1.00  0.00     0.017 A 
HETATM   21  C15 UNL     1      29.043   0.697  54.174  1.00  0.00     0.001 A 
HETATM   22  C16 UNL     1      29.305  -0.588  53.739  1.00  0.00     0.000 A 
HETATM   23  C17 UNL     1      28.395  -1.376  53.061  1.00  0.00     0.001 A 
HETATM   24  C18 UNL     1      27.178  -0.799  52.835  1.00  0.00     0.017 A 
ENDBRANCH   2  19
TORSDOF 7
ENDMDL
MODEL 6
REMARK VINA RESULT:      -7.2      2.033      4.196
REMARK  7 active torsions:
REMARK  status: ('A' for Active; 'I' for Inactive)
REMARK    1  A    between atoms: C2_2  and  C3_3 
REMARK    2  A    between atoms: C3_3  and  C4_4 
REMARK    3  A    between atoms: C4_4  and  N1_5 
REMARK    4  A    between atoms: N1_5  and  C5_6 
REMARK       I    between atoms: N1_5  and  C12_16 
REMARK    5  A    between atoms: C5_6  and  C6_7 
REMARK    6  A    between atoms: C11_14  and  O1_15 
REMARK    7  A    between atoms: C12_16  and  C13_18 
ROOT
HETATM    1  N1  UNL     1      25.692   1.623  52.022  1.00  0.00    -0.344 N 
HETATM    2  C12 UNL     1      26.142   0.647  52.991  1.00  0.00     0.254 C 
HETATM    3  O2  UNL     1      25.499   0.391  54.074  1.00  0.00    -0.267 OA
ENDROOT
BRANCH   1   4
HETATM    4  C4  UNL     1      26.438   1.853  50.802  1.00  0.00     0.126 C 
BRANCH   4   5
HETATM    5  C3  UNL     1      26.935   3.300  50.731  1.00  0.00     0.020 C 
BRANCH   5   6
HETATM    6  C2  UNL     1      26.365   4.014  49.522  1.00  0.00    -0.003 C 
HETATM    7  C1  UNL     1      27.526   4.637  48.739  1.00  0.00     0.005 C 
ENDBRANCH   5   6
ENDBRANCH   4   5
ENDBRANCH   1   4
BRANCH   1   8
HETATM    8  C5  UNL     1      24.464   2.282  52.421  1.00  0.00     0.167 C 
BRANCH   8   9
HETATM    9  C6  UNL     1      23.235   1.761  51.846  1.00  0.00    -0.004 A 
HETATM   10  C7  UNL     1      23.022   2.045  50.486  1.00  0.00     0.035 A 
HETATM   11  C8  UNL     1      21.890   1.603  49.823  1.00  0.00     0.036 A 
HETATM   12 CL1  UNL     1      21.554   1.916  48.131  1.00  0.00    -0.084 Cl
HETATM   13  C9  UNL     1      20.908   0.865  50.443  1.00  0.00     0.050 A 
HETATM   14  C10 UNL     1      21.076   0.558  51.795  1.00  0.00     0.069 A 
HETATM   15 CL2  UNL     1      19.889  -0.377  52.671  1.00  0.00    -0.081 Cl
HETATM   16  C11 UNL     1      22.220   1.024  52.400  1.00  0.00     0.095 A 
BRANCH  16  17
HETATM   17  O1  UNL     1      22.351   0.704  53.742  1.00  0.00    -0.358 OA
HETATM   18  H14 UNL     1      21.547   0.420  54.305  1.00  0.00     0.217 HD
ENDBRANCH  16  17
ENDBRANCH   8   9
ENDBRANCH   1   8
BRANCH   2  19
HETATM   19  C13 UNL     1      27.281  -0.249  53.104  1.00  0.00     0.032 A 
HETATM   20  C14 UNL     1      27.081  -1.585  52.709  1.00  0.00     0.017 A 
HETATM   21  C15 UNL     1      28.060  -2.588  52.763  1.00  0.00     0.001 A 
HETATM   22  C16 UNL     1      29.293  -2.187  53.243  1.00  0.00     0.000 A 
HETATM   23  C17 UNL     1      29.583  -0.900  53.653  1.00  0.00     0.001 A 
HETATM   24  C18 UNL     1      28.551  -0.010  53.555  1.00  0.00     0.017 A 
ENDBRANCH   2  19
TORSDOF 7
ENDMDL
MODEL 7
REMARK VINA RESULT:      -7.1      3.096      7.272
REMARK  7 active torsions:
REMARK  status: ('A' for Active; 'I' for Inactive)
REMARK    1  A    between atoms: C2_2  and  C3_3 
REMARK    2  A    between atoms: C3_3  and  C4_4 
REMARK    3  A    between atoms: C4_4  and  N1_5 
REMARK    4  A    between atoms: N1_5  and  C5_6 
REMARK       I    between atoms: N1_5  and  C12_16 
REMARK    5  A    between atoms: C5_6  and  C6_7 
REMARK    6  A    between atoms: C11_14  and  O1_15 
REMARK    7  A    between atoms: C12_16  and  C13_18 
ROOT
HETATM    1  N1  UNL     1      24.571   3.568  50.893  1.00  0.00    -0.344 N 
HETATM    2  C12 UNL     1      23.302   3.829  50.247  1.00  0.00     0.254 C 
HETATM    3  O2  UNL     1      22.209   4.000  50.901  1.00  0.00    -0.267 OA
ENDROOT
BRANCH   1   4
HETATM    4  C4  UNL     1      25.781   3.414  50.112  1.00  0.00     0.126 C 
BRANCH   4   5
HETATM    5  C3  UNL     1      26.254   4.764  49.566  1.00  0.00     0.020 C 
BRANCH   5   6
HETATM    6  C2  UNL     1      27.509   4.605  48.732  1.00  0.00    -0.003 C 
HETATM    7  C1  UNL     1      27.987   5.999  48.312  1.00  0.00     0.005 C 
ENDBRANCH   5   6
ENDBRANCH   4   5
ENDBRANCH   1   4
BRANCH   1   8
HETATM    8  C5  UNL     1      24.461   3.502  52.338  1.00  0.00     0.167 C 
BRANCH   8   9
HETATM    9  C6  UNL     1      24.740   2.214  52.948  1.00  0.00    -0.004 A 
HETATM   10  C7  UNL     1      23.728   1.245  52.835  1.00  0.00     0.035 A 
HETATM   11  C8  UNL     1      23.874  -0.022  53.374  1.00  0.00     0.036 A 
HETATM   12 CL1  UNL     1      22.658  -1.281  53.275  1.00  0.00    -0.084 Cl
HETATM   13  C9  UNL     1      25.007  -0.415  54.049  1.00  0.00     0.050 A 
HETATM   14  C10 UNL     1      26.041   0.515  54.186  1.00  0.00     0.069 A 
HETATM   15 CL2  UNL     1      27.521   0.111  55.022  1.00  0.00    -0.081 Cl
HETATM   16  C11 UNL     1      25.838   1.756  53.631  1.00  0.00     0.095 A 
BRANCH  16  17
HETATM   17  O1  UNL     1      26.883   2.652  53.790  1.00  0.00    -0.358 OA
HETATM   18  H14 UNL     1      26.817   3.441  54.437  1.00  0.00     0.217 HD
ENDBRANCH  16  17
ENDBRANCH   8   9
ENDBRANCH   1   8
BRANCH   2  19
HETATM   19  C13 UNL     1      22.851   3.966  48.873  1.00  0.00     0.032 A 
HETATM   20  C14 UNL     1      22.847   5.265  48.331  1.00  0.00     0.017 A 
HETATM   21  C15 UNL     1      22.431   5.586  47.031  1.00  0.00     0.001 A 
HETATM   22  C16 UNL     1      22.005   4.518  46.264  1.00  0.00     0.000 A 
HETATM   23  C17 UNL     1      21.974   3.210  46.709  1.00  0.00     0.001 A 
HETATM   24  C18 UNL     1      22.402   3.020  47.992  1.00  0.00     0.017 A 
ENDBRANCH   2  19
TORSDOF 7
ENDMDL
MODEL 8
REMARK VINA RESULT:      -7.0      2.582      3.954
REMARK  7 active torsions:
REMARK  status: ('A' for Active; 'I' for Inactive)
REMARK    1  A    between atoms: C2_2  and  C3_3 
REMARK    2  A    between atoms: C3_3  and  C4_4 
REMARK    3  A    between atoms: C4_4  and  N1_5 
REMARK    4  A    between atoms: N1_5  and  C5_6 
REMARK       I    between atoms: N1_5  and  C12_16 
REMARK    5  A    between atoms: C5_6  and  C6_7 
REMARK    6  A    between atoms: C11_14  and  O1_15 
REMARK    7  A    between atoms: C12_16  and  C13_18 
ROOT
HETATM    1  N1  UNL     1      24.886   2.886  51.609  1.00  0.00    -0.344 N 
HETATM    2  C12 UNL     1      26.239   2.386  51.495  1.00  0.00     0.254 C 
HETATM    3  O2  UNL     1      26.933   2.491  50.419  1.00  0.00    -0.267 OA
ENDROOT
BRANCH   1   4
HETATM    4  C4  UNL     1      24.157   2.771  52.854  1.00  0.00     0.126 C 
BRANCH   4   5
HETATM    5  C3  UNL     1      23.036   1.733  52.736  1.00  0.00     0.020 C 
BRANCH   5   6
HETATM    6  C2  UNL     1      23.528   0.353  53.122  1.00  0.00    -0.003 C 
HETATM    7  C1  UNL     1      22.337  -0.451  53.654  1.00  0.00     0.005 C 
ENDBRANCH   5   6
ENDBRANCH   4   5
ENDBRANCH   1   4
BRANCH   1   8
HETATM    8  C5  UNL     1      24.407   3.490  50.380  1.00  0.00     0.167 C 
BRANCH   8   9
HETATM    9  C6  UNL     1      24.153   4.920  50.419  1.00  0.00    -0.004 A 
HETATM   10  C7  UNL     1      25.281   5.749  50.292  1.00  0.00     0.035 A 
HETATM   11  C8  UNL     1      25.171   7.129  50.313  1.00  0.00     0.036 A 
HETATM   12 CL1  UNL     1      26.529   8.228  50.162  1.00  0.00    -0.084 Cl
HETATM   13  C9  UNL     1      23.965   7.775  50.457  1.00  0.00     0.050 A 
HETATM   14  C10 UNL     1      22.815   6.992  50.586  1.00  0.00     0.069 A 
HETATM   15 CL2  UNL     1      21.236   7.716  50.769  1.00  0.00    -0.081 Cl
HETATM   16  C11 UNL     1      22.987   5.627  50.558  1.00  0.00     0.095 A 
BRANCH  16  17
HETATM   17  O1  UNL     1      21.826   4.883  50.693  1.00  0.00    -0.358 OA
HETATM   18  H14 UNL     1      21.125   4.847  49.949  1.00  0.00     0.217 HD
ENDBRANCH  16  17
ENDBRANCH   8   9
ENDBRANCH   1   8
BRANCH   2  19
HETATM   19  C13 UNL     1      27.163   1.695  52.378  1.00  0.00     0.032 A 
HETATM   20  C14 UNL     1      27.098   0.289  52.394  1.00  0.00     0.017 A 
HETATM   21  C15 UNL     1      27.900  -0.538  53.194  1.00  0.00     0.001 A 
HETATM   22  C16 UNL     1      28.805   0.120  54.005  1.00  0.00     0.000 A 
HETATM   23  C17 UNL     1      28.942   1.493  54.058  1.00  0.00     0.001 A 
HETATM   24  C18 UNL     1      28.107   2.195  53.235  1.00  0.00     0.017 A 
ENDBRANCH   2  19
TORSDOF 7
ENDMDL
MODEL 9
REMARK VINA RESULT:      -6.9      1.908      2.661
REMARK  7 active torsions:
REMARK  status: ('A' for Active; 'I' for Inactive)
REMARK    1  A    between atoms: C2_2  and  C3_3 
REMARK    2  A    between atoms: C3_3  and  C4_4 
REMARK    3  A    between atoms: C4_4  and  N1_5 
REMARK    4  A    between atoms: N1_5  and  C5_6 
REMARK       I    between atoms: N1_5  and  C12_16 
REMARK    5  A    between atoms: C5_6  and  C6_7 
REMARK    6  A    between atoms: C11_14  and  O1_15 
REMARK    7  A    between atoms: C12_16  and  C13_18 
ROOT
HETATM    1  N1  UNL     1      25.072   2.665  52.335  1.00  0.00    -0.344 N 
HETATM    2  C12 UNL     1      26.416   2.201  52.060  1.00  0.00     0.254 C 
HETATM    3  O2  UNL     1      27.185   2.763  51.199  1.00  0.00    -0.267 OA
ENDROOT
BRANCH   1   4
HETATM    4  C4  UNL     1      24.256   2.016  53.339  1.00  0.00     0.126 C 
BRANCH   4   5
HETATM    5  C3  UNL     1      23.567   0.775  52.763  1.00  0.00     0.020 C 
BRANCH   5   6
HETATM    6  C2  UNL     1      22.058   0.914  52.818  1.00  0.00    -0.003 C 
HETATM    7  C1  UNL     1      21.479   0.407  51.493  1.00  0.00     0.005 C 
ENDBRANCH   5   6
ENDBRANCH   4   5
ENDBRANCH   1   4
BRANCH   1   8
HETATM    8  C5  UNL     1      24.697   3.805  51.520  1.00  0.00     0.167 C 
BRANCH   8   9
HETATM    9  C6  UNL     1      23.475   3.670  50.746  1.00  0.00    -0.004 A 
HETATM   10  C7  UNL     1      23.588   2.972  49.531  1.00  0.00     0.035 A 
HETATM   11  C8  UNL     1      22.496   2.776  48.704  1.00  0.00     0.036 A 
HETATM   12 CL1  UNL     1      22.559   1.918  47.176  1.00  0.00    -0.084 Cl
HETATM   13  C9  UNL     1      21.239   3.246  49.010  1.00  0.00     0.050 A 
HETATM   14  C10 UNL     1      21.078   3.945  50.208  1.00  0.00     0.069 A 
HETATM   15 CL2  UNL     1      19.522   4.578  50.690  1.00  0.00    -0.081 Cl
HETATM   16  C11 UNL     1      22.198   4.109  50.988  1.00  0.00     0.095 A 
BRANCH  16  17
HETATM   17  O1  UNL     1      22.001   4.811  52.166  1.00  0.00    -0.358 OA
HETATM   18  H14 UNL     1      21.183   4.644  52.758  1.00  0.00     0.217 HD
ENDBRANCH  16  17
ENDBRANCH   8   9
ENDBRANCH   1   8
BRANCH   2  19
HETATM   19  C13 UNL     1      27.257   1.123  52.551  1.00  0.00     0.032 A 
HETATM   20  C14 UNL     1      26.859  -0.189  52.233  1.00  0.00     0.017 A 
HETATM   21  C15 UNL     1      27.539  -1.349  52.635  1.00  0.00     0.001 A 
HETATM   22  C16 UNL     1      28.675  -1.137  53.393  1.00  0.00     0.000 A 
HETATM   23  C17 UNL     1      29.143   0.112  53.754  1.00  0.00     0.001 A 
HETATM   24  C18 UNL     1      28.398   1.166  53.306  1.00  0.00     0.017 A 
ENDBRANCH   2  19
TORSDOF 7
ENDMDL
