MODEL 1
REMARK VINA RESULT:      -7.3      0.000      0.000
REMARK  7 active torsions:
REMARK  status: ('A' for Active; 'I' for Inactive)
REMARK    1  A    between atoms: C2_2  and  C3_3 
REMARK    2  A    between atoms: C6_6  and  O1_7 
REMARK    3  A    between atoms: O1_7  and  C7_8 
REMARK    4  A    between atoms: C7_8  and  C8_9 
REMARK    5  A    between atoms: C8_9  and  O2_10 
REMARK    6  A    between atoms: C10_12  and  C11_13 
REMARK    7  A    between atoms: C11_13  and  O3_14 
ROOT
HETATM    1  C3  UNL     1      21.364   0.406  52.727  1.00  0.00    -0.028 A 
HETATM    2  C4  UNL     1      22.253   1.415  52.778  1.00  0.00     0.004 A 
HETATM    3  C5  UNL     1      23.605   1.025  53.169  1.00  0.00     0.110 C 
HETATM    4  C6  UNL     1      24.730   1.520  52.343  1.00  0.00     0.082 C 
HETATM    5  C10 UNL     1      25.238   2.211  51.311  1.00  0.00     0.099 C 
HETATM    6  O4  UNL     1      24.417   2.917  50.409  1.00  0.00    -0.347 OA
HETATM    7  C12 UNL     1      24.857   3.642  49.312  1.00  0.00     0.202 C 
HETATM    8  C13 UNL     1      23.878   4.500  48.647  1.00  0.00    -0.002 C 
HETATM    9  C14 UNL     1      22.612   4.850  48.739  1.00  0.00    -0.002 C 
HETATM   10  C15 UNL     1      21.683   4.327  49.785  1.00  0.00     0.128 C 
HETATM   11  C16 UNL     1      20.394   3.991  49.067  1.00  0.00     0.039 C 
HETATM   12  N1  UNL     1      21.402   5.262  50.836  1.00  0.00    -0.274 NA
HETATM   13  C17 UNL     1      21.671   5.032  52.077  1.00  0.00     0.229 C 
HETATM   14  N2  UNL     1      22.264   3.814  52.407  1.00  0.00    -0.224 NA
HETATM   15  C18 UNL     1      21.653   2.693  52.440  1.00  0.00     0.136 A 
HETATM   16  N3  UNL     1      20.271   2.737  52.112  1.00  0.00    -0.350 N 
HETATM   17  C19 UNL     1      19.407   1.610  52.084  1.00  0.00     0.090 A 
HETATM   18  C20 UNL     1      19.947   0.444  52.390  1.00  0.00     0.029 A 
HETATM   19  H25 UNL     1      19.807   3.643  51.870  1.00  0.00     0.166 HD
ENDROOT
BRANCH   4  20
HETATM   20  O1  UNL     1      25.902   0.987  52.961  1.00  0.00    -0.350 OA
BRANCH  20  21
HETATM   21  C7  UNL     1      25.888   0.117  54.048  1.00  0.00     0.201 C 
BRANCH  21  22
HETATM   22  C8  UNL     1      27.151   0.274  54.849  1.00  0.00     0.193 C 
BRANCH  22  23
HETATM   23  O2  UNL     1      27.962   1.307  54.440  1.00  0.00    -0.394 OA
HETATM   24  C9  UNL     1      29.243   0.919  54.136  1.00  0.00     0.201 C 
ENDBRANCH  22  23
ENDBRANCH  21  22
ENDBRANCH  20  21
ENDBRANCH   4  20
BRANCH   5  25
HETATM   25  C11 UNL     1      26.691   2.372  50.916  1.00  0.00     0.231 C 
BRANCH  25  26
HETATM   26  O3  UNL     1      27.432   2.965  51.928  1.00  0.00    -0.394 OA
HETATM   27  H15 UNL     1      27.397   2.385  52.716  1.00  0.00     0.209 HD
ENDBRANCH  25  26
ENDBRANCH   5  25
BRANCH   1  28
HETATM   28  C2  UNL     1      21.812  -0.960  53.056  1.00  0.00    -0.014 C 
HETATM   29  C1  UNL     1      21.521  -1.673  54.127  1.00  0.00     0.032 C 
ENDBRANCH   1  28
TORSDOF 7
ENDMDL
MODEL 2
REMARK VINA RESULT:      -7.1      1.507      1.913
REMARK  7 active torsions:
REMARK  status: ('A' for Active; 'I' for Inactive)
REMARK    1  A    between atoms: C2_2  and  C3_3 
REMARK    2  A    between atoms: C6_6  and  O1_7 
REMARK    3  A    between atoms: O1_7  and  C7_8 
REMARK    4  A    between atoms: C7_8  and  C8_9 
REMARK    5  A    between atoms: C8_9  and  O2_10 
REMARK    6  A    between atoms: C10_12  and  C11_13 
REMARK    7  A    between atoms: C11_13  and  O3_14 
ROOT
HETATM    1  C3  UNL     1      22.804   0.053  53.582  1.00  0.00    -0.028 A 
HETATM    2  C4  UNL     1      23.055   1.294  53.124  1.00  0.00     0.004 A 
HETATM    3  C5  UNL     1      24.463   1.681  53.135  1.00  0.00     0.110 C 
HETATM    4  C6  UNL     1      25.019   2.289  51.904  1.00  0.00     0.082 C 
HETATM    5  C10 UNL     1      24.918   2.726  50.640  1.00  0.00     0.099 C 
HETATM    6  O4  UNL     1      23.709   2.653  49.918  1.00  0.00    -0.347 OA
HETATM    7  C12 UNL     1      23.523   3.067  48.608  1.00  0.00     0.202 C 
HETATM    8  C13 UNL     1      22.146   3.134  48.123  1.00  0.00    -0.002 C 
HETATM    9  C14 UNL     1      20.915   2.917  48.539  1.00  0.00    -0.002 C 
HETATM   10  C15 UNL     1      20.578   2.446  49.914  1.00  0.00     0.128 C 
HETATM   11  C16 UNL     1      19.532   1.365  49.740  1.00  0.00     0.039 C 
HETATM   12  N1  UNL     1      20.052   3.471  50.770  1.00  0.00    -0.274 NA
HETATM   13  C17 UNL     1      20.613   3.823  51.877  1.00  0.00     0.229 C 
HETATM   14  N2  UNL     1      21.787   3.173  52.256  1.00  0.00    -0.224 NA
HETATM   15  C18 UNL     1      21.843   1.987  52.727  1.00  0.00     0.136 A 
HETATM   16  N3  UNL     1      20.595   1.320  52.859  1.00  0.00    -0.350 N 
HETATM   17  C19 UNL     1      20.430  -0.001  53.356  1.00  0.00     0.090 A 
HETATM   18  C20 UNL     1      21.529  -0.638  53.718  1.00  0.00     0.029 A 
HETATM   19  H25 UNL     1      19.703   1.794  52.587  1.00  0.00     0.166 HD
ENDROOT
BRANCH   4  20
HETATM   20  O1  UNL     1      26.387   2.559  52.214  1.00  0.00    -0.350 OA
BRANCH  20  21
HETATM   21  C7  UNL     1      27.238   1.661  52.852  1.00  0.00     0.201 C 
BRANCH  21  22
HETATM   22  C8  UNL     1      28.386   2.399  53.483  1.00  0.00     0.193 C 
BRANCH  22  23
HETATM   23  O2  UNL     1      28.868   1.825  54.637  1.00  0.00    -0.394 OA
HETATM   24  C9  UNL     1      28.675   0.467  54.702  1.00  0.00     0.201 C 
ENDBRANCH  22  23
ENDBRANCH  21  22
ENDBRANCH  20  21
ENDBRANCH   4  20
BRANCH   5  25
HETATM   25  C11 UNL     1      25.996   3.346  49.774  1.00  0.00     0.231 C 
BRANCH  25  26
HETATM   26  O3  UNL     1      26.409   4.572  50.274  1.00  0.00    -0.394 OA
HETATM   27  H15 UNL     1      26.220   4.593  51.234  1.00  0.00     0.209 HD
ENDBRANCH  25  26
ENDBRANCH   5  25
BRANCH   1  28
HETATM   28  C2  UNL     1      23.931  -0.782  54.039  1.00  0.00    -0.014 C 
HETATM   29  C1  UNL     1      24.175  -1.217  55.260  1.00  0.00     0.032 C 
ENDBRANCH   1  28
TORSDOF 7
ENDMDL
MODEL 3
REMARK VINA RESULT:      -6.7      2.901      6.944
REMARK  7 active torsions:
REMARK  status: ('A' for Active; 'I' for Inactive)
REMARK    1  A    between atoms: C2_2  and  C3_3 
REMARK    2  A    between atoms: C6_6  and  O1_7 
REMARK    3  A    between atoms: O1_7  and  C7_8 
REMARK    4  A    between atoms: C7_8  and  C8_9 
REMARK    5  A    between atoms: C8_9  and  O2_10 
REMARK    6  A    between atoms: C10_12  and  C11_13 
REMARK    7  A    between atoms: C11_13  and  O3_14 
ROOT
HETATM    1  C3  UNL     1      23.741   3.107  49.791  1.00  0.00    -0.028 A 
HETATM    2  C4  UNL     1      23.378   2.984  51.081  1.00  0.00     0.004 A 
HETATM    3  C5  UNL     1      21.941   2.845  51.305  1.00  0.00     0.110 C 
HETATM    4  C6  UNL     1      21.487   1.759  52.203  1.00  0.00     0.082 C 
HETATM    5  C10 UNL     1      21.705   0.713  53.015  1.00  0.00     0.099 C 
HETATM    6  O4  UNL     1      23.004   0.237  53.287  1.00  0.00    -0.347 OA
HETATM    7  C12 UNL     1      23.316  -0.843  54.099  1.00  0.00     0.202 C 
HETATM    8  C13 UNL     1      24.723  -1.026  54.448  1.00  0.00    -0.002 C 
HETATM    9  C14 UNL     1      25.898  -0.470  54.237  1.00  0.00    -0.002 C 
HETATM   10  C15 UNL     1      26.098   0.752  53.401  1.00  0.00     0.128 C 
HETATM   11  C16 UNL     1      27.307   0.472  52.535  1.00  0.00     0.039 C 
HETATM   12  N1  UNL     1      26.333   1.946  54.161  1.00  0.00    -0.274 NA
HETATM   13  C17 UNL     1      25.570   2.984  54.099  1.00  0.00     0.229 C 
HETATM   14  N2  UNL     1      24.463   2.939  53.251  1.00  0.00    -0.224 NA
HETATM   15  C18 UNL     1      24.517   3.033  51.979  1.00  0.00     0.136 A 
HETATM   16  N3  UNL     1      25.818   3.196  51.430  1.00  0.00    -0.350 N 
HETATM   17  C19 UNL     1      26.104   3.317  50.044  1.00  0.00     0.090 A 
HETATM   18  C20 UNL     1      25.071   3.272  49.221  1.00  0.00     0.029 A 
HETATM   19  H25 UNL     1      26.659   3.240  52.051  1.00  0.00     0.166 HD
ENDROOT
BRANCH   4  20
HETATM   20  O1  UNL     1      20.064   1.875  52.229  1.00  0.00    -0.350 OA
BRANCH  20  21
HETATM   21  C7  UNL     1      19.310   2.492  51.234  1.00  0.00     0.201 C 
BRANCH  21  22
HETATM   22  C8  UNL     1      17.881   2.630  51.682  1.00  0.00     0.193 C 
BRANCH  22  23
HETATM   23  O2  UNL     1      17.537   3.891  52.111  1.00  0.00    -0.394 OA
HETATM   24  C9  UNL     1      16.220   4.211  51.888  1.00  0.00     0.201 C 
ENDBRANCH  22  23
ENDBRANCH  21  22
ENDBRANCH  20  21
ENDBRANCH   4  20
BRANCH   5  25
HETATM   25  C11 UNL     1      20.685  -0.122  53.761  1.00  0.00     0.231 C 
BRANCH  25  26
HETATM   26  O3  UNL     1      20.322   0.468  54.962  1.00  0.00    -0.394 OA
HETATM   27  H15 UNL     1      20.979   1.161  55.176  1.00  0.00     0.209 HD
ENDBRANCH  25  26
ENDBRANCH   5  25
BRANCH   1  28
HETATM   28  C2  UNL     1      22.698   3.090  48.749  1.00  0.00    -0.014 C 
HETATM   29  C1  UNL     1      22.548   2.224  47.765  1.00  0.00     0.032 C 
ENDBRANCH   1  28
TORSDOF 7
ENDMDL
MODEL 4
REMARK VINA RESULT:      -6.6      1.856      2.710
REMARK  7 active torsions:
REMARK  status: ('A' for Active; 'I' for Inactive)
REMARK    1  A    between atoms: C2_2  and  C3_3 
REMARK    2  A    between atoms: C6_6  and  O1_7 
REMARK    3  A    between atoms: O1_7  and  C7_8 
REMARK    4  A    between atoms: C7_8  and  C8_9 
REMARK    5  A    between atoms: C8_9  and  O2_10 
REMARK    6  A    between atoms: C10_12  and  C11_13 
REMARK    7  A    between atoms: C11_13  and  O3_14 
ROOT
HETATM    1  C3  UNL     1      21.290   3.143  51.543  1.00  0.00    -0.028 A 
HETATM    2  C4  UNL     1      22.484   3.608  51.959  1.00  0.00     0.004 A 
HETATM    3  C5  UNL     1      23.276   2.659  52.738  1.00  0.00     0.110 C 
HETATM    4  C6  UNL     1      24.697   2.479  52.364  1.00  0.00     0.082 C 
HETATM    5  C10 UNL     1      25.775   2.746  51.610  1.00  0.00     0.099 C 
HETATM    6  O4  UNL     1      25.733   3.671  50.547  1.00  0.00    -0.347 OA
HETATM    7  C12 UNL     1      26.792   3.992  49.712  1.00  0.00     0.202 C 
HETATM    8  C13 UNL     1      26.617   5.146  48.832  1.00  0.00    -0.002 C 
HETATM    9  C14 UNL     1      25.720   6.064  48.534  1.00  0.00    -0.002 C 
HETATM   10  C15 UNL     1      24.375   6.146  49.176  1.00  0.00     0.128 C 
HETATM   11  C16 UNL     1      23.392   6.399  48.053  1.00  0.00     0.039 C 
HETATM   12  N1  UNL     1      24.256   7.196  50.147  1.00  0.00    -0.274 NA
HETATM   13  C17 UNL     1      23.966   6.982  51.386  1.00  0.00     0.229 C 
HETATM   14  N2  UNL     1      23.760   5.665  51.796  1.00  0.00    -0.224 NA
HETATM   15  C18 UNL     1      22.714   4.979  51.543  1.00  0.00     0.136 A 
HETATM   16  N3  UNL     1      21.711   5.645  50.786  1.00  0.00    -0.350 N 
HETATM   17  C19 UNL     1      20.475   5.067  50.392  1.00  0.00     0.090 A 
HETATM   18  C20 UNL     1      20.260   3.819  50.767  1.00  0.00     0.029 A 
HETATM   19  H25 UNL     1      21.845   6.635  50.476  1.00  0.00     0.166 HD
ENDROOT
BRANCH   4  20
HETATM   20  O1  UNL     1      25.200   1.514  53.288  1.00  0.00    -0.350 OA
BRANCH  20  21
HETATM   21  C7  UNL     1      24.703   0.220  53.418  1.00  0.00     0.201 C 
BRANCH  21  22
HETATM   22  C8  UNL     1      25.657  -0.620  54.220  1.00  0.00     0.193 C 
BRANCH  22  23
HETATM   23  O2  UNL     1      26.516  -1.386  53.466  1.00  0.00    -0.394 OA
HETATM   24  C9  UNL     1      27.800  -0.903  53.428  1.00  0.00     0.201 C 
ENDBRANCH  22  23
ENDBRANCH  21  22
ENDBRANCH  20  21
ENDBRANCH   4  20
BRANCH   5  25
HETATM   25  C11 UNL     1      27.166   2.159  51.725  1.00  0.00     0.231 C 
BRANCH  25  26
HETATM   26  O3  UNL     1      27.908   2.792  52.711  1.00  0.00    -0.394 OA
HETATM   27  H15 UNL     1      27.963   2.196  53.486  1.00  0.00     0.209 HD
ENDBRANCH  25  26
ENDBRANCH   5  25
BRANCH   1  28
HETATM   28  C2  UNL     1      20.897   1.766  51.894  1.00  0.00    -0.014 C 
HETATM   29  C1  UNL     1      20.696   0.748  51.080  1.00  0.00     0.032 C 
ENDBRANCH   1  28
TORSDOF 7
ENDMDL
MODEL 5
REMARK VINA RESULT:      -6.6      2.234      5.382
REMARK  7 active torsions:
REMARK  status: ('A' for Active; 'I' for Inactive)
REMARK    1  A    between atoms: C2_2  and  C3_3 
REMARK    2  A    between atoms: C6_6  and  O1_7 
REMARK    3  A    between atoms: O1_7  and  C7_8 
REMARK    4  A    between atoms: C7_8  and  C8_9 
REMARK    5  A    between atoms: C8_9  and  O2_10 
REMARK    6  A    between atoms: C10_12  and  C11_13 
REMARK    7  A    between atoms: C11_13  and  O3_14 
ROOT
HETATM    1  C3  UNL     1      22.091   5.234  50.445  1.00  0.00    -0.028 A 
HETATM    2  C4  UNL     1      22.751   4.106  50.120  1.00  0.00     0.004 A 
HETATM    3  C5  UNL     1      24.155   4.296  49.763  1.00  0.00     0.110 C 
HETATM    4  C6  UNL     1      25.153   3.405  50.398  1.00  0.00     0.082 C 
HETATM    5  C10 UNL     1      25.506   2.403  51.218  1.00  0.00     0.099 C 
HETATM    6  O4  UNL     1      24.557   1.686  51.973  1.00  0.00    -0.347 OA
HETATM    7  C12 UNL     1      24.838   0.650  52.852  1.00  0.00     0.202 C 
HETATM    8  C13 UNL     1      23.702  -0.123  53.350  1.00  0.00    -0.002 C 
HETATM    9  C14 UNL     1      22.391  -0.179  53.242  1.00  0.00    -0.002 C 
HETATM   10  C15 UNL     1      21.590   0.751  52.391  1.00  0.00     0.128 C 
HETATM   11  C16 UNL     1      20.400   1.163  53.230  1.00  0.00     0.039 C 
HETATM   12  N1  UNL     1      21.121   0.164  51.169  1.00  0.00    -0.274 NA
HETATM   13  C17 UNL     1      21.431   0.620  50.002  1.00  0.00     0.229 C 
HETATM   14  N2  UNL     1      22.264   1.736  49.931  1.00  0.00    -0.224 NA
HETATM   15  C18 UNL     1      21.899   2.934  50.186  1.00  0.00     0.136 A 
HETATM   16  N3  UNL     1      20.538   3.093  50.563  1.00  0.00    -0.350 N 
HETATM   17  C19 UNL     1      19.927   4.333  50.891  1.00  0.00     0.090 A 
HETATM   18  C20 UNL     1      20.698   5.405  50.834  1.00  0.00     0.029 A 
HETATM   19  H25 UNL     1      19.896   2.268  50.614  1.00  0.00     0.166 HD
ENDROOT
BRANCH   4  20
HETATM   20  O1  UNL     1      26.409   3.820  49.861  1.00  0.00    -0.350 OA
BRANCH  20  21
HETATM   21  C7  UNL     1      26.610   5.008  49.163  1.00  0.00     0.201 C 
BRANCH  21  22
HETATM   22  C8  UNL     1      27.968   5.003  48.518  1.00  0.00     0.193 C 
BRANCH  22  23
HETATM   23  O2  UNL     1      28.418   6.243  48.127  1.00  0.00    -0.394 OA
HETATM   24  C9  UNL     1      27.423   7.185  48.022  1.00  0.00     0.201 C 
ENDBRANCH  22  23
ENDBRANCH  21  22
ENDBRANCH  20  21
ENDBRANCH   4  20
BRANCH   5  25
HETATM   25  C11 UNL     1      26.895   1.864  51.492  1.00  0.00     0.231 C 
BRANCH  25  26
HETATM   26  O3  UNL     1      27.692   2.804  52.128  1.00  0.00    -0.394 OA
HETATM   27  H15 UNL     1      28.291   3.201  51.462  1.00  0.00     0.209 HD
ENDBRANCH  25  26
ENDBRANCH   5  25
BRANCH   1  28
HETATM   28  C2  UNL     1      22.814   6.519  50.416  1.00  0.00    -0.014 C 
HETATM   29  C1  UNL     1      22.367   7.691  50.007  1.00  0.00     0.032 C 
ENDBRANCH   1  28
TORSDOF 7
ENDMDL
MODEL 6
REMARK VINA RESULT:      -6.5      1.778      4.604
REMARK  7 active torsions:
REMARK  status: ('A' for Active; 'I' for Inactive)
REMARK    1  A    between atoms: C2_2  and  C3_3 
REMARK    2  A    between atoms: C6_6  and  O1_7 
REMARK    3  A    between atoms: O1_7  and  C7_8 
REMARK    4  A    between atoms: C7_8  and  C8_9 
REMARK    5  A    between atoms: C8_9  and  O2_10 
REMARK    6  A    between atoms: C10_12  and  C11_13 
REMARK    7  A    between atoms: C11_13  and  O3_14 
ROOT
HETATM    1  C3  UNL     1      23.679   4.612  50.266  1.00  0.00    -0.028 A 
HETATM    2  C4  UNL     1      23.732   3.269  50.335  1.00  0.00     0.004 A 
HETATM    3  C5  UNL     1      25.013   2.725  50.780  1.00  0.00     0.110 C 
HETATM    4  C6  UNL     1      24.990   1.693  51.842  1.00  0.00     0.082 C 
HETATM    5  C10 UNL     1      24.357   0.897  52.718  1.00  0.00     0.099 C 
HETATM    6  O4  UNL     1      22.954   0.895  52.847  1.00  0.00    -0.347 OA
HETATM    7  C12 UNL     1      22.224   0.117  53.733  1.00  0.00     0.202 C 
HETATM    8  C13 UNL     1      20.775   0.079  53.545  1.00  0.00    -0.002 C 
HETATM    9  C14 UNL     1      19.844   0.574  52.756  1.00  0.00    -0.002 C 
HETATM   10  C15 UNL     1      20.130   1.495  51.616  1.00  0.00     0.128 C 
HETATM   11  C16 UNL     1      19.090   2.592  51.695  1.00  0.00     0.039 C 
HETATM   12  N1  UNL     1      20.053   0.870  50.327  1.00  0.00    -0.274 NA
HETATM   13  C17 UNL     1      21.048   0.815  49.508  1.00  0.00     0.229 C 
HETATM   14  N2  UNL     1      22.255   1.393  49.898  1.00  0.00    -0.224 NA
HETATM   15  C18 UNL     1      22.485   2.649  49.928  1.00  0.00     0.136 A 
HETATM   16  N3  UNL     1      21.404   3.480  49.524  1.00  0.00    -0.350 N 
HETATM   17  C19 UNL     1      21.443   4.900  49.486  1.00  0.00     0.090 A 
HETATM   18  C20 UNL     1      22.576   5.470  49.856  1.00  0.00     0.029 A 
HETATM   19  H25 UNL     1      20.494   3.064  49.220  1.00  0.00     0.166 HD
ENDROOT
BRANCH   4  20
HETATM   20  O1  UNL     1      26.361   1.360  52.059  1.00  0.00    -0.350 OA
BRANCH  20  21
HETATM   21  C7  UNL     1      27.388   2.293  52.164  1.00  0.00     0.201 C 
BRANCH  21  22
HETATM   22  C8  UNL     1      28.066   2.166  53.500  1.00  0.00     0.193 C 
BRANCH  22  23
HETATM   23  O2  UNL     1      28.923   1.095  53.606  1.00  0.00    -0.394 OA
HETATM   24  C9  UNL     1      28.657   0.277  54.676  1.00  0.00     0.201 C 
ENDBRANCH  22  23
ENDBRANCH  21  22
ENDBRANCH  20  21
ENDBRANCH   4  20
BRANCH   5  25
HETATM   25  C11 UNL     1      24.963  -0.099  53.685  1.00  0.00     0.231 C 
BRANCH  25  26
HETATM   26  O3  UNL     1      25.685  -1.080  53.023  1.00  0.00    -0.394 OA
HETATM   27  H15 UNL     1      26.636  -0.945  53.212  1.00  0.00     0.209 HD
ENDBRANCH  25  26
ENDBRANCH   5  25
BRANCH   1  28
HETATM   28  C2  UNL     1      24.874   5.395  50.635  1.00  0.00    -0.014 C 
HETATM   29  C1  UNL     1      25.388   6.434  50.007  1.00  0.00     0.032 C 
ENDBRANCH   1  28
TORSDOF 7
ENDMDL
MODEL 7
REMARK VINA RESULT:      -6.4      9.018     12.518
REMARK  7 active torsions:
REMARK  status: ('A' for Active; 'I' for Inactive)
REMARK    1  A    between atoms: C2_2  and  C3_3 
REMARK    2  A    between atoms: C6_6  and  O1_7 
REMARK    3  A    between atoms: O1_7  and  C7_8 
REMARK    4  A    between atoms: C7_8  and  C8_9 
REMARK    5  A    between atoms: C8_9  and  O2_10 
REMARK    6  A    between atoms: C10_12  and  C11_13 
REMARK    7  A    between atoms: C11_13  and  O3_14 
ROOT
HETATM    1  C3  UNL     1      32.679  10.087  47.115  1.00  0.00    -0.028 A 
HETATM    2  C4  UNL     1      31.926   9.736  48.175  1.00  0.00     0.004 A 
HETATM    3  C5  UNL     1      31.017  10.774  48.654  1.00  0.00     0.110 C 
HETATM    4  C6  UNL     1      29.608  10.393  48.903  1.00  0.00     0.082 C 
HETATM    5  C10 UNL     1      28.598   9.509  48.928  1.00  0.00     0.099 C 
HETATM    6  O4  UNL     1      28.774   8.163  48.547  1.00  0.00    -0.347 OA
HETATM    7  C12 UNL     1      27.784   7.192  48.530  1.00  0.00     0.202 C 
HETATM    8  C13 UNL     1      28.216   5.808  48.341  1.00  0.00    -0.002 C 
HETATM    9  C14 UNL     1      29.317   5.107  48.166  1.00  0.00    -0.002 C 
HETATM   10  C15 UNL     1      30.681   5.710  48.108  1.00  0.00     0.128 C 
HETATM   11  C16 UNL     1      31.385   5.039  46.948  1.00  0.00     0.039 C 
HETATM   12  N1  UNL     1      31.456   5.516  49.300  1.00  0.00    -0.274 NA
HETATM   13  C17 UNL     1      31.912   6.491  50.013  1.00  0.00     0.229 C 
HETATM   14  N2  UNL     1      31.635   7.794  49.600  1.00  0.00    -0.224 NA
HETATM   15  C18 UNL     1      32.203   8.383  48.620  1.00  0.00     0.136 A 
HETATM   16  N3  UNL     1      33.184   7.620  47.930  1.00  0.00    -0.350 N 
HETATM   17  C19 UNL     1      33.931   8.079  46.812  1.00  0.00     0.090 A 
HETATM   18  C20 UNL     1      33.683   9.310  46.402  1.00  0.00     0.029 A 
HETATM   19  H25 UNL     1      33.410   6.643  48.230  1.00  0.00     0.166 HD
ENDROOT
BRANCH   4  20
HETATM   20  O1  UNL     1      28.979  11.591  49.358  1.00  0.00    -0.350 OA
BRANCH  20  21
HETATM   21  C7  UNL     1      29.233  12.857  48.838  1.00  0.00     0.201 C 
BRANCH  21  22
HETATM   22  C8  UNL     1      27.939  13.547  48.506  1.00  0.00     0.193 C 
BRANCH  22  23
HETATM   23  O2  UNL     1      27.900  14.113  47.253  1.00  0.00    -0.394 OA
HETATM   24  C9  UNL     1      28.947  14.963  46.995  1.00  0.00     0.201 C 
ENDBRANCH  22  23
ENDBRANCH  21  22
ENDBRANCH  20  21
ENDBRANCH   4  20
BRANCH   5  25
HETATM   25  C11 UNL     1      27.159   9.743  49.338  1.00  0.00     0.231 C 
BRANCH  25  26
HETATM   26  O3  UNL     1      27.031   9.845  50.715  1.00  0.00    -0.394 OA
HETATM   27  H15 UNL     1      26.276   9.288  50.997  1.00  0.00     0.209 HD
ENDBRANCH  25  26
ENDBRANCH   5  25
BRANCH   1  28
HETATM   28  C2  UNL     1      32.527  11.440  46.546  1.00  0.00    -0.014 C 
HETATM   29  C1  UNL     1      32.446  11.780  45.274  1.00  0.00     0.032 C 
ENDBRANCH   1  28
TORSDOF 7
ENDMDL
MODEL 8
REMARK VINA RESULT:      -6.4      3.486      6.378
REMARK  7 active torsions:
REMARK  status: ('A' for Active; 'I' for Inactive)
REMARK    1  A    between atoms: C2_2  and  C3_3 
REMARK    2  A    between atoms: C6_6  and  O1_7 
REMARK    3  A    between atoms: O1_7  and  C7_8 
REMARK    4  A    between atoms: C7_8  and  C8_9 
REMARK    5  A    between atoms: C8_9  and  O2_10 
REMARK    6  A    between atoms: C10_12  and  C11_13 
REMARK    7  A    between atoms: C11_13  and  O3_14 
ROOT
HETATM    1  C3  UNL     1      22.464   0.281  52.955  1.00  0.00    -0.028 A 
HETATM    2  C4  UNL     1      21.760   0.640  51.865  1.00  0.00     0.004 A 
HETATM    3  C5  UNL     1      20.361   0.222  51.869  1.00  0.00     0.110 C 
HETATM    4  C6  UNL     1      19.338   1.237  51.526  1.00  0.00     0.082 C 
HETATM    5  C10 UNL     1      18.958   2.475  51.174  1.00  0.00     0.099 C 
HETATM    6  O4  UNL     1      19.889   3.514  50.973  1.00  0.00    -0.347 OA
HETATM    7  C12 UNL     1      19.581   4.820  50.623  1.00  0.00     0.202 C 
HETATM    8  C13 UNL     1      20.694   5.680  50.225  1.00  0.00    -0.002 C 
HETATM    9  C14 UNL     1      22.001   5.637  50.073  1.00  0.00    -0.002 C 
HETATM   10  C15 UNL     1      22.825   4.420  50.333  1.00  0.00     0.128 C 
HETATM   11  C16 UNL     1      24.038   4.894  51.104  1.00  0.00     0.039 C 
HETATM   12  N1  UNL     1      23.261   3.746  49.144  1.00  0.00    -0.274 NA
HETATM   13  C17 UNL     1      22.955   2.522  48.874  1.00  0.00     0.229 C 
HETATM   14  N2  UNL     1      22.162   1.825  49.785  1.00  0.00    -0.224 NA
HETATM   15  C18 UNL     1      22.571   1.365  50.903  1.00  0.00     0.136 A 
HETATM   16  N3  UNL     1      23.941   1.602  51.200  1.00  0.00    -0.350 N 
HETATM   17  C19 UNL     1      24.599   1.181  52.387  1.00  0.00     0.090 A 
HETATM   18  C20 UNL     1      23.866   0.522  53.267  1.00  0.00     0.029 A 
HETATM   19  H25 UNL     1      24.554   2.116  50.525  1.00  0.00     0.166 HD
ENDROOT
BRANCH   4  20
HETATM   20  O1  UNL     1      18.092   0.545  51.611  1.00  0.00    -0.350 OA
BRANCH  20  21
HETATM   21  C7  UNL     1      17.866  -0.568  52.416  1.00  0.00     0.201 C 
BRANCH  21  22
HETATM   22  C8  UNL     1      16.404  -0.672  52.751  1.00  0.00     0.193 C 
BRANCH  22  23
HETATM   23  O2  UNL     1      15.745   0.534  52.814  1.00  0.00    -0.394 OA
HETATM   24  C9  UNL     1      14.418   0.424  53.144  1.00  0.00     0.201 C 
ENDBRANCH  22  23
ENDBRANCH  21  22
ENDBRANCH  20  21
ENDBRANCH   4  20
BRANCH   5  25
HETATM   25  C11 UNL     1      17.554   2.990  50.932  1.00  0.00     0.231 C 
BRANCH  25  26
HETATM   26  O3  UNL     1      16.872   3.190  52.122  1.00  0.00    -0.394 OA
HETATM   27  H15 UNL     1      17.486   3.012  52.863  1.00  0.00     0.209 HD
ENDBRANCH  25  26
ENDBRANCH   5  25
BRANCH   1  28
HETATM   28  C2  UNL     1      21.787  -0.475  54.026  1.00  0.00    -0.014 C 
HETATM   29  C1  UNL     1      22.335  -1.247  54.944  1.00  0.00     0.032 C 
ENDBRANCH   1  28
TORSDOF 7
ENDMDL
MODEL 9
REMARK VINA RESULT:      -6.3      2.268      4.541
REMARK  7 active torsions:
REMARK  status: ('A' for Active; 'I' for Inactive)
REMARK    1  A    between atoms: C2_2  and  C3_3 
REMARK    2  A    between atoms: C6_6  and  O1_7 
REMARK    3  A    between atoms: O1_7  and  C7_8 
REMARK    4  A    between atoms: C7_8  and  C8_9 
REMARK    5  A    between atoms: C8_9  and  O2_10 
REMARK    6  A    between atoms: C10_12  and  C11_13 
REMARK    7  A    between atoms: C11_13  and  O3_14 
ROOT
HETATM    1  C3  UNL     1      24.595   0.908  52.339  1.00  0.00    -0.028 A 
HETATM    2  C4  UNL     1      24.001   2.073  52.018  1.00  0.00     0.004 A 
HETATM    3  C5  UNL     1      24.855   3.023  51.308  1.00  0.00     0.110 C 
HETATM    4  C6  UNL     1      24.309   3.659  50.087  1.00  0.00     0.082 C 
HETATM    5  C10 UNL     1      23.344   3.857  49.175  1.00  0.00     0.099 C 
HETATM    6  O4  UNL     1      22.104   3.191  49.242  1.00  0.00    -0.347 OA
HETATM    7  C12 UNL     1      21.063   3.327  48.336  1.00  0.00     0.202 C 
HETATM    8  C13 UNL     1      19.777   2.742  48.711  1.00  0.00    -0.002 C 
HETATM    9  C14 UNL     1      19.220   2.072  49.699  1.00  0.00    -0.002 C 
HETATM   10  C15 UNL     1      19.947   1.668  50.939  1.00  0.00     0.128 C 
HETATM   11  C16 UNL     1      19.550   0.232  51.207  1.00  0.00     0.039 C 
HETATM   12  N1  UNL     1      19.627   2.464  52.088  1.00  0.00    -0.274 NA
HETATM   13  C17 UNL     1      20.504   3.151  52.739  1.00  0.00     0.229 C 
HETATM   14  N2  UNL     1      21.827   3.114  52.299  1.00  0.00    -0.224 NA
HETATM   15  C18 UNL     1      22.624   2.131  52.470  1.00  0.00     0.136 A 
HETATM   16  N3  UNL     1      22.082   1.015  53.165  1.00  0.00    -0.350 N 
HETATM   17  C19 UNL     1      22.791  -0.181  53.459  1.00  0.00     0.090 A 
HETATM   18  C20 UNL     1      24.045  -0.239  53.048  1.00  0.00     0.029 A 
HETATM   19  H25 UNL     1      21.094   1.028  53.509  1.00  0.00     0.166 HD
ENDROOT
BRANCH   4  20
HETATM   20  O1  UNL     1      25.349   4.521  49.626  1.00  0.00    -0.350 OA
BRANCH  20  21
HETATM   21  C7  UNL     1      26.653   4.108  49.366  1.00  0.00     0.201 C 
BRANCH  21  22
HETATM   22  C8  UNL     1      27.382   5.164  48.583  1.00  0.00     0.193 C 
BRANCH  22  23
HETATM   23  O2  UNL     1      28.751   5.031  48.583  1.00  0.00    -0.394 OA
HETATM   24  C9  UNL     1      29.413   6.123  48.080  1.00  0.00     0.201 C 
ENDBRANCH  22  23
ENDBRANCH  21  22
ENDBRANCH  20  21
ENDBRANCH   4  20
BRANCH   5  25
HETATM   25  C11 UNL     1      23.372   4.770  47.967  1.00  0.00     0.231 C 
BRANCH  25  26
HETATM   26  O3  UNL     1      23.542   6.097  48.333  1.00  0.00    -0.394 OA
HETATM   27  H15 UNL     1      23.172   6.662  47.625  1.00  0.00     0.209 HD
ENDBRANCH  25  26
ENDBRANCH   5  25
BRANCH   1  28
HETATM   28  C2  UNL     1      26.004   0.694  51.960  1.00  0.00    -0.014 C 
HETATM   29  C1  UNL     1      26.936   0.048  52.634  1.00  0.00     0.032 C 
ENDBRANCH   1  28
TORSDOF 7
ENDMDL
