MODEL 1
REMARK VINA RESULT:      -8.2      0.000      0.000
REMARK  5 active torsions:
REMARK  status: ('A' for Active; 'I' for Inactive)
REMARK    1  A    between atoms: C5_6  and  O1_7 
REMARK    2  A    between atoms: C6_8  and  O2_9 
REMARK    3  A    between atoms: C10_13  and  N2_14 
REMARK    4  A    between atoms: N2_14  and  C11_15 
REMARK    5  A    between atoms: C12_16  and  O3_17 
ROOT
HETATM    1  N1  UNL     1      24.928   3.199  50.211  1.00  0.00    -0.192 NA
HETATM    2  C1  UNL     1      24.291   2.452  50.890  1.00  0.00     0.097 C 
HETATM    3  C2  UNL     1      23.484   1.525  51.711  1.00  0.00     0.048 A 
HETATM    4  C3  UNL     1      22.166   1.406  51.533  1.00  0.00     0.023 A 
HETATM    5  C4  UNL     1      20.777   0.955  51.696  1.00  0.00     0.040 A 
HETATM    6  C5  UNL     1      20.239   0.082  52.518  1.00  0.00     0.098 A 
HETATM    7  C6  UNL     1      20.589  -0.845  53.617  1.00  0.00     0.098 A 
HETATM    8  C7  UNL     1      21.723  -1.172  54.253  1.00  0.00     0.039 A 
HETATM    9  C8  UNL     1      23.173  -0.889  54.301  1.00  0.00     0.001 A 
HETATM   10  C9  UNL     1      23.879  -0.050  53.536  1.00  0.00     0.004 A 
HETATM   11  C10 UNL     1      24.482   0.902  52.622  1.00  0.00     0.148 A 
ENDROOT
BRANCH  11  12
HETATM   12  N2  UNL     1      25.204   2.002  53.293  1.00  0.00    -0.378 N 
HETATM   13  H9  UNL     1      25.195   2.973  53.669  1.00  0.00     0.160 HD
BRANCH  12  14
HETATM   14  C11 UNL     1      26.529   1.641  53.613  1.00  0.00     0.043 C 
HETATM   15  C12 UNL     1      27.680   1.999  53.012  1.00  0.00     0.089 C 
HETATM   16  C13 UNL     1      28.972   1.502  53.508  1.00  0.00     0.050 C 
HETATM   17  C14 UNL     1      29.022   0.382  54.176  1.00  0.00    -0.027 C 
HETATM   18  C15 UNL     1      27.943   0.013  54.838  1.00  0.00    -0.008 C 
HETATM   19  C16 UNL     1      26.619   0.736  54.781  1.00  0.00     0.087 C 
BRANCH  15  20
HETATM   20  O3  UNL     1      27.458   2.853  51.928  1.00  0.00    -0.359 OA
HETATM   21  H10 UNL     1      26.846   2.529  51.193  1.00  0.00     0.217 HD
ENDBRANCH  15  20
ENDBRANCH  12  14
ENDBRANCH  11  12
BRANCH   6  22
HETATM   22  O1  UNL     1      18.843   0.010  52.264  1.00  0.00    -0.358 OA
HETATM   23  H3  UNL     1      18.467  -0.192  51.363  1.00  0.00     0.217 HD
ENDBRANCH   6  22
BRANCH   7  24
HETATM   24  O2  UNL     1      19.482  -1.569  54.135  1.00  0.00    -0.358 OA
HETATM   25  H4  UNL     1      19.040  -2.216  53.469  1.00  0.00     0.217 HD
ENDBRANCH   7  24
TORSDOF 5
ENDMDL
MODEL 2
REMARK VINA RESULT:      -8.0      2.000      7.229
REMARK  5 active torsions:
REMARK  status: ('A' for Active; 'I' for Inactive)
REMARK    1  A    between atoms: C5_6  and  O1_7 
REMARK    2  A    between atoms: C6_8  and  O2_9 
REMARK    3  A    between atoms: C10_13  and  N2_14 
REMARK    4  A    between atoms: N2_14  and  C11_15 
REMARK    5  A    between atoms: C12_16  and  O3_17 
ROOT
HETATM    1  N1  UNL     1      22.680  -1.672  55.334  1.00  0.00    -0.192 NA
HETATM    2  C1  UNL     1      23.155  -0.900  54.559  1.00  0.00     0.097 C 
HETATM    3  C2  UNL     1      23.768   0.047  53.604  1.00  0.00     0.048 A 
HETATM    4  C3  UNL     1      25.049   0.409  53.708  1.00  0.00     0.023 A 
HETATM    5  C4  UNL     1      26.336   1.063  53.430  1.00  0.00     0.040 A 
HETATM    6  C5  UNL     1      26.694   1.908  52.489  1.00  0.00     0.098 A 
HETATM    7  C6  UNL     1      26.159   2.633  51.316  1.00  0.00     0.098 A 
HETATM    8  C7  UNL     1      24.964   2.699  50.710  1.00  0.00     0.039 A 
HETATM    9  C8  UNL     1      23.579   2.188  50.774  1.00  0.00     0.001 A 
HETATM   10  C9  UNL     1      23.054   1.322  51.646  1.00  0.00     0.004 A 
HETATM   11  C10 UNL     1      22.655   0.378  52.674  1.00  0.00     0.148 A 
ENDROOT
BRANCH  11  12
HETATM   12  N2  UNL     1      21.520   0.837  53.500  1.00  0.00    -0.378 N 
HETATM   13  H9  UNL     1      21.183   1.324  54.356  1.00  0.00     0.160 HD
BRANCH  12  14
HETATM   14  C11 UNL     1      20.279   0.505  52.918  1.00  0.00     0.043 C 
HETATM   15  C12 UNL     1      19.450  -0.517  53.200  1.00  0.00     0.089 C 
HETATM   16  C13 UNL     1      18.190  -0.687  52.463  1.00  0.00     0.050 C 
HETATM   17  C14 UNL     1      18.071  -0.196  51.260  1.00  0.00    -0.027 C 
HETATM   18  C15 UNL     1      18.814   0.848  50.947  1.00  0.00    -0.008 C 
HETATM   19  C16 UNL     1      19.873   1.440  51.845  1.00  0.00     0.087 C 
BRANCH  15  20
HETATM   20  O3  UNL     1      19.949  -1.323  54.228  1.00  0.00    -0.359 OA
HETATM   21  H10 UNL     1      20.847  -1.761  54.088  1.00  0.00     0.217 HD
ENDBRANCH  15  20
ENDBRANCH  12  14
ENDBRANCH  11  12
BRANCH   6  22
HETATM   22  O1  UNL     1      28.064   2.239  52.665  1.00  0.00    -0.358 OA
HETATM   23  H3  UNL     1      28.370   2.989  53.247  1.00  0.00     0.217 HD
ENDBRANCH   6  22
BRANCH   7  24
HETATM   24  O2  UNL     1      27.114   3.455  50.661  1.00  0.00    -0.358 OA
HETATM   25  H4  UNL     1      26.852   3.747  49.711  1.00  0.00     0.217 HD
ENDBRANCH   7  24
TORSDOF 5
ENDMDL
MODEL 3
REMARK VINA RESULT:      -8.0      2.095      4.551
REMARK  5 active torsions:
REMARK  status: ('A' for Active; 'I' for Inactive)
REMARK    1  A    between atoms: C5_6  and  O1_7 
REMARK    2  A    between atoms: C6_8  and  O2_9 
REMARK    3  A    between atoms: C10_13  and  N2_14 
REMARK    4  A    between atoms: N2_14  and  C11_15 
REMARK    5  A    between atoms: C12_16  and  O3_17 
ROOT
HETATM    1  N1  UNL     1      28.143   2.038  52.760  1.00  0.00    -0.192 NA
HETATM    2  C1  UNL     1      27.029   1.655  52.949  1.00  0.00     0.097 C 
HETATM    3  C2  UNL     1      25.656   1.173  53.208  1.00  0.00     0.048 A 
HETATM    4  C3  UNL     1      25.415   0.202  54.094  1.00  0.00     0.023 A 
HETATM    5  C4  UNL     1      24.697  -0.777  54.922  1.00  0.00     0.040 A 
HETATM    6  C5  UNL     1      23.417  -1.063  55.012  1.00  0.00     0.098 A 
HETATM    7  C6  UNL     1      22.101  -0.683  54.455  1.00  0.00     0.098 A 
HETATM    8  C7  UNL     1      21.682   0.205  53.540  1.00  0.00     0.039 A 
HETATM    9  C8  UNL     1      22.155   1.246  52.604  1.00  0.00     0.001 A 
HETATM   10  C9  UNL     1      23.406   1.670  52.398  1.00  0.00     0.004 A 
HETATM   11  C10 UNL     1      24.815   2.001  52.303  1.00  0.00     0.148 A 
ENDROOT
BRANCH  11  12
HETATM   12  N2  UNL     1      25.373   1.860  50.943  1.00  0.00    -0.378 N 
HETATM   13  H9  UNL     1      25.863   1.270  50.239  1.00  0.00     0.160 HD
BRANCH  12  14
HETATM   14  C11 UNL     1      25.185   3.029  50.175  1.00  0.00     0.043 C 
HETATM   15  C12 UNL     1      26.046   4.035  49.928  1.00  0.00     0.089 C 
HETATM   16  C13 UNL     1      25.644   5.178  49.094  1.00  0.00     0.050 C 
HETATM   17  C14 UNL     1      24.382   5.491  48.988  1.00  0.00    -0.027 C 
HETATM   18  C15 UNL     1      23.494   4.531  49.158  1.00  0.00    -0.008 C 
HETATM   19  C16 UNL     1      23.833   3.122  49.579  1.00  0.00     0.087 C 
BRANCH  15  20
HETATM   20  O3  UNL     1      27.281   3.827  50.546  1.00  0.00    -0.359 OA
HETATM   21  H10 UNL     1      27.911   4.613  50.616  1.00  0.00     0.217 HD
ENDBRANCH  15  20
ENDBRANCH  12  14
ENDBRANCH  11  12
BRANCH   6  22
HETATM   22  O1  UNL     1      23.244  -2.096  55.973  1.00  0.00    -0.358 OA
HETATM   23  H3  UNL     1      22.524  -2.078  56.662  1.00  0.00     0.217 HD
ENDBRANCH   6  22
BRANCH   7  24
HETATM   24  O2  UNL     1      21.011  -1.412  55.000  1.00  0.00    -0.358 OA
HETATM   25  H4  UNL     1      20.356  -1.792  54.306  1.00  0.00     0.217 HD
ENDBRANCH   7  24
TORSDOF 5
ENDMDL
MODEL 4
REMARK VINA RESULT:      -7.7      2.361      7.155
REMARK  5 active torsions:
REMARK  status: ('A' for Active; 'I' for Inactive)
REMARK    1  A    between atoms: C5_6  and  O1_7 
REMARK    2  A    between atoms: C6_8  and  O2_9 
REMARK    3  A    between atoms: C10_13  and  N2_14 
REMARK    4  A    between atoms: N2_14  and  C11_15 
REMARK    5  A    between atoms: C12_16  and  O3_17 
ROOT
HETATM    1  N1  UNL     1      21.676  -2.007  54.933  1.00  0.00    -0.192 NA
HETATM    2  C1  UNL     1      22.392  -1.236  54.370  1.00  0.00     0.097 C 
HETATM    3  C2  UNL     1      23.300  -0.297  53.679  1.00  0.00     0.048 A 
HETATM    4  C3  UNL     1      24.591  -0.208  54.009  1.00  0.00     0.023 A 
HETATM    5  C4  UNL     1      25.998   0.219  54.016  1.00  0.00     0.040 A 
HETATM    6  C5  UNL     1      26.639   1.105  53.288  1.00  0.00     0.098 A 
HETATM    7  C6  UNL     1      26.428   2.082  52.197  1.00  0.00     0.098 A 
HETATM    8  C7  UNL     1      25.373   2.465  51.462  1.00  0.00     0.039 A 
HETATM    9  C8  UNL     1      23.929   2.227  51.257  1.00  0.00     0.001 A 
HETATM   10  C9  UNL     1      23.133   1.361  51.893  1.00  0.00     0.004 A 
HETATM   11  C10 UNL     1      22.422   0.373  52.683  1.00  0.00     0.148 A 
ENDROOT
BRANCH  11  12
HETATM   12  N2  UNL     1      21.265   0.918  53.421  1.00  0.00    -0.378 N 
HETATM   13  H9  UNL     1      20.867   1.273  54.315  1.00  0.00     0.160 HD
BRANCH  12  14
HETATM   14  C11 UNL     1      20.132   1.060  52.592  1.00  0.00     0.043 C 
HETATM   15  C12 UNL     1      19.510   2.181  52.181  1.00  0.00     0.089 C 
HETATM   16  C13 UNL     1      18.328   2.107  51.310  1.00  0.00     0.050 C 
HETATM   17  C14 UNL     1      17.587   1.033  51.313  1.00  0.00    -0.027 C 
HETATM   18  C15 UNL     1      18.160  -0.108  51.645  1.00  0.00    -0.008 C 
HETATM   19  C16 UNL     1      19.582  -0.236  52.134  1.00  0.00     0.087 C 
BRANCH  15  20
HETATM   20  O3  UNL     1      20.126   3.331  52.681  1.00  0.00    -0.359 OA
HETATM   21  H10 UNL     1      19.547   4.142  52.845  1.00  0.00     0.217 HD
ENDBRANCH  15  20
ENDBRANCH  12  14
ENDBRANCH  11  12
BRANCH   6  22
HETATM   22  O1  UNL     1      28.000   1.137  53.694  1.00  0.00    -0.358 OA
HETATM   23  H3  UNL     1      28.694   0.535  53.307  1.00  0.00     0.217 HD
ENDBRANCH   6  22
BRANCH   7  24
HETATM   24  O2  UNL     1      27.600   2.790  51.822  1.00  0.00    -0.358 OA
HETATM   25  H4  UNL     1      27.710   3.710  52.269  1.00  0.00     0.217 HD
ENDBRANCH   7  24
TORSDOF 5
ENDMDL
MODEL 5
REMARK VINA RESULT:      -7.5      3.078      5.257
REMARK  5 active torsions:
REMARK  status: ('A' for Active; 'I' for Inactive)
REMARK    1  A    between atoms: C5_6  and  O1_7 
REMARK    2  A    between atoms: C6_8  and  O2_9 
REMARK    3  A    between atoms: C10_13  and  N2_14 
REMARK    4  A    between atoms: N2_14  and  C11_15 
REMARK    5  A    between atoms: C12_16  and  O3_17 
ROOT
HETATM    1  N1  UNL     1      19.017   2.793  51.989  1.00  0.00    -0.192 NA
HETATM    2  C1  UNL     1      20.034   2.273  52.336  1.00  0.00     0.097 C 
HETATM    3  C2  UNL     1      21.278   1.607  52.773  1.00  0.00     0.048 A 
HETATM    4  C3  UNL     1      21.262   0.634  53.687  1.00  0.00     0.023 A 
HETATM    5  C4  UNL     1      21.720  -0.421  54.603  1.00  0.00     0.040 A 
HETATM    6  C5  UNL     1      22.923  -0.888  54.855  1.00  0.00     0.098 A 
HETATM    7  C6  UNL     1      24.341  -0.706  54.478  1.00  0.00     0.098 A 
HETATM    8  C7  UNL     1      24.998   0.103  53.634  1.00  0.00     0.039 A 
HETATM    9  C8  UNL     1      24.806   1.195  52.657  1.00  0.00     0.001 A 
HETATM   10  C9  UNL     1      23.663   1.773  52.273  1.00  0.00     0.004 A 
HETATM   11  C10 UNL     1      22.338   2.284  51.978  1.00  0.00     0.148 A 
ENDROOT
BRANCH  11  12
HETATM   12  N2  UNL     1      22.191   3.736  52.206  1.00  0.00    -0.378 N 
HETATM   13  H9  UNL     1      21.796   4.511  52.778  1.00  0.00     0.160 HD
BRANCH  12  14
HETATM   14  C11 UNL     1      22.894   4.492  51.245  1.00  0.00     0.043 C 
HETATM   15  C12 UNL     1      23.802   5.470  51.424  1.00  0.00     0.089 C 
HETATM   16  C13 UNL     1      24.421   6.140  50.272  1.00  0.00     0.050 C 
HETATM   17  C14 UNL     1      23.795   6.170  49.127  1.00  0.00    -0.027 C 
HETATM   18  C15 UNL     1      22.939   5.201  48.869  1.00  0.00    -0.008 C 
HETATM   19  C16 UNL     1      22.548   4.125  49.853  1.00  0.00     0.087 C 
BRANCH  15  20
HETATM   20  O3  UNL     1      24.037   5.719  52.779  1.00  0.00    -0.359 OA
HETATM   21  H10 UNL     1      23.565   6.504  53.202  1.00  0.00     0.217 HD
ENDBRANCH  15  20
ENDBRANCH  12  14
ENDBRANCH  11  12
BRANCH   6  22
HETATM   22  O1  UNL     1      22.821  -1.918  55.829  1.00  0.00    -0.358 OA
HETATM   23  H3  UNL     1      23.591  -2.210  56.391  1.00  0.00     0.217 HD
ENDBRANCH   6  22
BRANCH   7  24
HETATM   24  O2  UNL     1      25.234  -1.581  55.151  1.00  0.00    -0.358 OA
HETATM   25  H4  UNL     1      25.313  -1.421  56.164  1.00  0.00     0.217 HD
ENDBRANCH   7  24
TORSDOF 5
ENDMDL
MODEL 6
REMARK VINA RESULT:      -7.3      9.171     10.881
REMARK  5 active torsions:
REMARK  status: ('A' for Active; 'I' for Inactive)
REMARK    1  A    between atoms: C5_6  and  O1_7 
REMARK    2  A    between atoms: C6_8  and  O2_9 
REMARK    3  A    between atoms: C10_13  and  N2_14 
REMARK    4  A    between atoms: N2_14  and  C11_15 
REMARK    5  A    between atoms: C12_16  and  O3_17 
ROOT
HETATM    1  N1  UNL     1      34.405   7.958  48.599  1.00  0.00    -0.192 NA
HETATM    2  C1  UNL     1      33.217   7.847  48.630  1.00  0.00     0.097 C 
HETATM    3  C2  UNL     1      31.744   7.735  48.667  1.00  0.00     0.048 A 
HETATM    4  C3  UNL     1      30.983   8.732  49.127  1.00  0.00     0.023 A 
HETATM    5  C4  UNL     1      29.798   9.510  49.517  1.00  0.00     0.040 A 
HETATM    6  C5  UNL     1      28.517   9.223  49.467  1.00  0.00     0.098 A 
HETATM    7  C6  UNL     1      27.584   8.143  49.074  1.00  0.00     0.098 A 
HETATM    8  C7  UNL     1      27.725   6.912  48.561  1.00  0.00     0.039 A 
HETATM    9  C8  UNL     1      28.734   5.932  48.107  1.00  0.00     0.001 A 
HETATM   10  C9  UNL     1      30.064   6.065  48.075  1.00  0.00     0.004 A 
HETATM   11  C10 UNL     1      31.479   6.380  48.114  1.00  0.00     0.148 A 
ENDROOT
BRANCH  11  12
HETATM   12  N2  UNL     1      32.284   5.425  48.902  1.00  0.00    -0.378 N 
HETATM   13  H9  UNL     1      32.553   5.044  49.832  1.00  0.00     0.160 HD
BRANCH  12  14
HETATM   14  C11 UNL     1      33.083   4.606  48.076  1.00  0.00     0.043 C 
HETATM   15  C12 UNL     1      34.388   4.296  48.187  1.00  0.00     0.089 C 
HETATM   16  C13 UNL     1      35.037   3.416  47.205  1.00  0.00     0.050 C 
HETATM   17  C14 UNL     1      34.546   3.316  46.000  1.00  0.00    -0.027 C 
HETATM   18  C15 UNL     1      33.257   3.546  45.841  1.00  0.00    -0.008 C 
HETATM   19  C16 UNL     1      32.336   4.029  46.935  1.00  0.00     0.087 C 
BRANCH  15  20
HETATM   20  O3  UNL     1      34.974   4.903  49.302  1.00  0.00    -0.359 OA
HETATM   21  H10 UNL     1      35.892   5.306  49.190  1.00  0.00     0.217 HD
ENDBRANCH  15  20
ENDBRANCH  12  14
ENDBRANCH  11  12
BRANCH   6  22
HETATM   22  O1  UNL     1      27.777  10.328  49.967  1.00  0.00    -0.358 OA
HETATM   23  H3  UNL     1      28.200  11.201  50.200  1.00  0.00     0.217 HD
ENDBRANCH   6  22
BRANCH   7  24
HETATM   24  O2  UNL     1      26.215   8.462  49.276  1.00  0.00    -0.358 OA
HETATM   25  H4  UNL     1      25.560   7.963  48.660  1.00  0.00     0.217 HD
ENDBRANCH   7  24
TORSDOF 5
ENDMDL
MODEL 7
REMARK VINA RESULT:      -7.2      7.084      9.000
REMARK  5 active torsions:
REMARK  status: ('A' for Active; 'I' for Inactive)
REMARK    1  A    between atoms: C5_6  and  O1_7 
REMARK    2  A    between atoms: C6_8  and  O2_9 
REMARK    3  A    between atoms: C10_13  and  N2_14 
REMARK    4  A    between atoms: N2_14  and  C11_15 
REMARK    5  A    between atoms: C12_16  and  O3_17 
ROOT
HETATM    1  N1  UNL     1      29.874  10.921  48.952  1.00  0.00    -0.192 NA
HETATM    2  C1  UNL     1      29.171   9.963  49.064  1.00  0.00     0.097 C 
HETATM    3  C2  UNL     1      28.279   8.793  49.207  1.00  0.00     0.048 A 
HETATM    4  C3  UNL     1      27.146   8.865  49.910  1.00  0.00     0.023 A 
HETATM    5  C4  UNL     1      25.874   8.480  50.540  1.00  0.00     0.040 A 
HETATM    6  C5  UNL     1      25.220   7.341  50.547  1.00  0.00     0.098 A 
HETATM    7  C6  UNL     1      25.300   5.953  50.040  1.00  0.00     0.098 A 
HETATM    8  C7  UNL     1      26.179   5.269  49.294  1.00  0.00     0.039 A 
HETATM    9  C8  UNL     1      27.467   5.391  48.578  1.00  0.00     0.001 A 
HETATM   10  C9  UNL     1      28.249   6.469  48.458  1.00  0.00     0.004 A 
HETATM   11  C10 UNL     1      28.970   7.727  48.433  1.00  0.00     0.148 A 
ENDROOT
BRANCH  11  12
HETATM   12  N2  UNL     1      30.349   7.637  48.955  1.00  0.00    -0.378 N 
HETATM   13  H9  UNL     1      31.079   7.994  49.606  1.00  0.00     0.160 HD
BRANCH  12  14
HETATM   14  C11 UNL     1      31.078   6.602  48.334  1.00  0.00     0.043 C 
HETATM   15  C12 UNL     1      31.603   5.484  48.873  1.00  0.00     0.089 C 
HETATM   16  C13 UNL     1      32.339   4.523  48.039  1.00  0.00     0.050 C 
HETATM   17  C14 UNL     1      32.910   4.926  46.937  1.00  0.00    -0.027 C 
HETATM   18  C15 UNL     1      32.400   5.979  46.330  1.00  0.00    -0.008 C 
HETATM   19  C16 UNL     1      31.274   6.819  46.883  1.00  0.00     0.087 C 
BRANCH  15  20
HETATM   20  O3  UNL     1      31.349   5.400  50.244  1.00  0.00    -0.359 OA
HETATM   21  H10 UNL     1      32.058   5.740  50.876  1.00  0.00     0.217 HD
ENDBRANCH  15  20
ENDBRANCH  12  14
ENDBRANCH  11  12
BRANCH   6  22
HETATM   22  O1  UNL     1      24.030   7.499  51.307  1.00  0.00    -0.358 OA
HETATM   23  H3  UNL     1      24.010   7.959  52.192  1.00  0.00     0.217 HD
ENDBRANCH   6  22
BRANCH   7  24
HETATM   24  O2  UNL     1      24.200   5.138  50.416  1.00  0.00    -0.358 OA
HETATM   25  H4  UNL     1      23.389   5.190  49.785  1.00  0.00     0.217 HD
ENDBRANCH   7  24
TORSDOF 5
ENDMDL
MODEL 8
REMARK VINA RESULT:      -7.2      3.092      5.804
REMARK  5 active torsions:
REMARK  status: ('A' for Active; 'I' for Inactive)
REMARK    1  A    between atoms: C5_6  and  O1_7 
REMARK    2  A    between atoms: C6_8  and  O2_9 
REMARK    3  A    between atoms: C10_13  and  N2_14 
REMARK    4  A    between atoms: N2_14  and  C11_15 
REMARK    5  A    between atoms: C12_16  and  O3_17 
ROOT
HETATM    1  N1  UNL     1      20.778   2.246  50.947  1.00  0.00    -0.192 NA
HETATM    2  C1  UNL     1      21.864   2.022  51.387  1.00  0.00     0.097 C 
HETATM    3  C2  UNL     1      23.202   1.719  51.937  1.00  0.00     0.048 A 
HETATM    4  C3  UNL     1      23.386   0.726  52.811  1.00  0.00     0.023 A 
HETATM    5  C4  UNL     1      24.045  -0.207  53.736  1.00  0.00     0.040 A 
HETATM    6  C5  UNL     1      25.302  -0.320  54.105  1.00  0.00     0.098 A 
HETATM    7  C6  UNL     1      26.633   0.290  53.892  1.00  0.00     0.098 A 
HETATM    8  C7  UNL     1      27.100   1.307  53.153  1.00  0.00     0.039 A 
HETATM    9  C8  UNL     1      26.689   2.356  52.197  1.00  0.00     0.001 A 
HETATM   10  C9  UNL     1      25.468   2.601  51.708  1.00  0.00     0.004 A 
HETATM   11  C10 UNL     1      24.086   2.723  51.286  1.00  0.00     0.148 A 
ENDROOT
BRANCH  11  12
HETATM   12  N2  UNL     1      23.496   4.053  51.545  1.00  0.00    -0.378 N 
HETATM   13  H9  UNL     1      22.855   4.646  52.111  1.00  0.00     0.160 HD
BRANCH  12  14
HETATM   14  C11 UNL     1      23.989   5.028  50.653  1.00  0.00     0.043 C 
HETATM   15  C12 UNL     1      24.482   6.253  50.915  1.00  0.00     0.089 C 
HETATM   16  C13 UNL     1      24.946   7.124  49.825  1.00  0.00     0.050 C 
HETATM   17  C14 UNL     1      24.467   6.967  48.621  1.00  0.00    -0.027 C 
HETATM   18  C15 UNL     1      24.027   5.769  48.286  1.00  0.00    -0.008 C 
HETATM   19  C16 UNL     1      23.933   4.600  49.236  1.00  0.00     0.087 C 
BRANCH  15  20
HETATM   20  O3  UNL     1      24.480   6.533  52.284  1.00  0.00    -0.359 OA
HETATM   21  H10 UNL     1      25.150   6.051  52.864  1.00  0.00     0.217 HD
ENDBRANCH  15  20
ENDBRANCH  12  14
ENDBRANCH  11  12
BRANCH   6  22
HETATM   22  O1  UNL     1      25.416  -1.395  55.026  1.00  0.00    -0.358 OA
HETATM   23  H3  UNL     1      26.224  -1.539  55.593  1.00  0.00     0.217 HD
ENDBRANCH   6  22
BRANCH   7  24
HETATM   24  O2  UNL     1      27.676  -0.330  54.631  1.00  0.00    -0.358 OA
HETATM   25  H4  UNL     1      27.715  -1.354  54.546  1.00  0.00     0.217 HD
ENDBRANCH   7  24
TORSDOF 5
ENDMDL
MODEL 9
REMARK VINA RESULT:      -7.1      2.570      6.418
REMARK  5 active torsions:
REMARK  status: ('A' for Active; 'I' for Inactive)
REMARK    1  A    between atoms: C5_6  and  O1_7 
REMARK    2  A    between atoms: C6_8  and  O2_9 
REMARK    3  A    between atoms: C10_13  and  N2_14 
REMARK    4  A    between atoms: N2_14  and  C11_15 
REMARK    5  A    between atoms: C12_16  and  O3_17 
ROOT
HETATM    1  N1  UNL     1      20.133   3.536  52.373  1.00  0.00    -0.192 NA
HETATM    2  C1  UNL     1      21.264   3.503  51.993  1.00  0.00     0.097 C 
HETATM    3  C2  UNL     1      22.665   3.489  51.522  1.00  0.00     0.048 A 
HETATM    4  C3  UNL     1      23.168   4.498  50.807  1.00  0.00     0.023 A 
HETATM    5  C4  UNL     1      24.114   5.324  50.043  1.00  0.00     0.040 A 
HETATM    6  C5  UNL     1      25.373   5.128  49.721  1.00  0.00     0.098 A 
HETATM    7  C6  UNL     1      26.469   4.145  49.869  1.00  0.00     0.098 A 
HETATM    8  C7  UNL     1      26.591   2.948  50.460  1.00  0.00     0.039 A 
HETATM    9  C8  UNL     1      25.850   1.937  51.243  1.00  0.00     0.001 A 
HETATM   10  C9  UNL     1      24.581   1.982  51.665  1.00  0.00     0.004 A 
HETATM   11  C10 UNL     1      23.196   2.198  52.036  1.00  0.00     0.148 A 
ENDROOT
BRANCH  11  12
HETATM   12  N2  UNL     1      22.280   1.136  51.573  1.00  0.00    -0.378 N 
HETATM   13  H9  UNL     1      21.708   0.727  50.805  1.00  0.00     0.160 HD
BRANCH  12  14
HETATM   14  C11 UNL     1      22.013   0.193  52.588  1.00  0.00     0.043 C 
HETATM   15  C12 UNL     1      20.829  -0.225  53.075  1.00  0.00     0.089 C 
HETATM   16  C13 UNL     1      20.772  -1.226  54.151  1.00  0.00     0.050 C 
HETATM   17  C14 UNL     1      21.784  -1.362  54.964  1.00  0.00    -0.027 C 
HETATM   18  C15 UNL     1      22.979  -1.027  54.519  1.00  0.00    -0.008 C 
HETATM   19  C16 UNL     1      23.240  -0.390  53.176  1.00  0.00     0.087 C 
BRANCH  15  20
HETATM   20  O3  UNL     1      19.754   0.400  52.438  1.00  0.00    -0.359 OA
HETATM   21  H10 UNL     1      19.962   1.109  51.750  1.00  0.00     0.217 HD
ENDBRANCH  15  20
ENDBRANCH  12  14
ENDBRANCH  11  12
BRANCH   6  22
HETATM   22  O1  UNL     1      25.835   6.242  48.970  1.00  0.00    -0.358 OA
HETATM   23  H3  UNL     1      25.900   6.234  47.975  1.00  0.00     0.217 HD
ENDBRANCH   6  22
BRANCH   7  24
HETATM   24  O2  UNL     1      27.685   4.540  49.251  1.00  0.00    -0.358 OA
HETATM   25  H4  UNL     1      27.931   4.010  48.405  1.00  0.00     0.217 HD
ENDBRANCH   7  24
TORSDOF 5
ENDMDL
