MODEL 1
REMARK VINA RESULT:      -7.8      0.000      0.000
REMARK  9 active torsions:
REMARK  status: ('A' for Active; 'I' for Inactive)
REMARK    1  A    between atoms: C2_2  and  C3_3 
REMARK    2  A    between atoms: C4_4  and  C5_5 
REMARK    3  A    between atoms: C5_5  and  C6_6 
REMARK    4  A    between atoms: C8_10  and  N3_11 
REMARK    5  A    between atoms: N3_11  and  C9_12 
REMARK    6  A    between atoms: C9_12  and  C10_13 
REMARK    7  A    between atoms: C10_13  and  C11_14 
REMARK    8  A    between atoms: C12_15  and  O1_16 
REMARK    9  A    between atoms: C12_15  and  C13_17 
ROOT
HETATM    1  N3  UNL     1      22.013   1.575  52.692  1.00  0.00    -0.370 N 
HETATM    2  H9  UNL     1      22.031   2.484  52.203  1.00  0.00     0.161 HD
ENDROOT
BRANCH   1   3
HETATM    3  C8  UNL     1      21.461   0.407  53.236  1.00  0.00     0.133 A 
HETATM    4  N2  UNL     1      21.783  -0.528  53.981  1.00  0.00    -0.224 NA
HETATM    5  C7  UNL     1      21.631  -1.584  54.626  1.00  0.00     0.235 A 
HETATM    6  N1  UNL     1      20.369  -1.813  54.311  1.00  0.00    -0.245 NA
HETATM    7  C6  UNL     1      19.634  -1.037  53.523  1.00  0.00     0.049 A 
HETATM    8  C19 UNL     1      20.060   0.109  52.924  1.00  0.00     0.009 A 
HETATM    9  C20 UNL     1      19.387   1.102  52.082  1.00  0.00     0.054 C 
BRANCH   7  10
HETATM   10  C5  UNL     1      18.258  -1.493  53.151  1.00  0.00     0.086 C 
BRANCH  10  11
HETATM   11  C4  UNL     1      17.828  -2.792  53.774  1.00  0.00    -0.024 C 
HETATM   12  C3  UNL     1      17.044  -3.839  53.633  1.00  0.00    -0.025 C 
BRANCH  12  13
HETATM   13  C2  UNL     1      16.019  -4.319  52.588  1.00  0.00     0.033 C 
HETATM   14  C1  UNL     1      15.205  -3.169  52.583  1.00  0.00    -0.008 C 
ENDBRANCH  12  13
ENDBRANCH  10  11
ENDBRANCH   7  10
ENDBRANCH   1   3
BRANCH   1  15
HETATM   15  C9  UNL     1      23.476   1.454  52.937  1.00  0.00     0.090 C 
BRANCH  15  16
HETATM   16  C10 UNL     1      24.765   1.657  53.084  1.00  0.00     0.052 C 
BRANCH  16  17
HETATM   17  C11 UNL     1      25.418   2.533  52.046  1.00  0.00     0.035 C 
HETATM   18  C12 UNL     1      26.697   2.528  51.893  1.00  0.00     0.075 C 
BRANCH  18  19
HETATM   19  O1  UNL     1      27.090   3.374  50.876  1.00  0.00    -0.360 OA
HETATM   20  H13 UNL     1      27.337   4.345  51.222  1.00  0.00     0.217 HD
ENDBRANCH  18  19
BRANCH  18  21
HETATM   21  C13 UNL     1      27.586   1.768  52.703  1.00  0.00     0.018 A 
HETATM   22  C14 UNL     1      27.682   0.454  52.596  1.00  0.00     0.131 A 
HETATM   23  F1  UNL     1      27.070  -0.429  51.827  1.00  0.00    -0.205 F 
HETATM   24  C15 UNL     1      28.806  -0.006  53.468  1.00  0.00    -0.026 A 
HETATM   25  C16 UNL     1      29.636  -1.155  53.871  1.00  0.00     0.051 C 
HETATM   26  C17 UNL     1      29.294   1.118  54.059  1.00  0.00    -0.012 A 
HETATM   27  C18 UNL     1      28.516   2.350  53.631  1.00  0.00     0.072 A 
ENDBRANCH  18  21
ENDBRANCH  16  17
ENDBRANCH  15  16
ENDBRANCH   1  15
TORSDOF 9
ENDMDL
MODEL 2
REMARK VINA RESULT:      -7.8      4.944      8.033
REMARK  9 active torsions:
REMARK  status: ('A' for Active; 'I' for Inactive)
REMARK    1  A    between atoms: C2_2  and  C3_3 
REMARK    2  A    between atoms: C4_4  and  C5_5 
REMARK    3  A    between atoms: C5_5  and  C6_6 
REMARK    4  A    between atoms: C8_10  and  N3_11 
REMARK    5  A    between atoms: N3_11  and  C9_12 
REMARK    6  A    between atoms: C9_12  and  C10_13 
REMARK    7  A    between atoms: C10_13  and  C11_14 
REMARK    8  A    between atoms: C12_15  and  O1_16 
REMARK    9  A    between atoms: C12_15  and  C13_17 
ROOT
HETATM    1  N3  UNL     1      23.762   4.917  52.461  1.00  0.00    -0.370 N 
HETATM    2  H9  UNL     1      23.704   5.358  53.393  1.00  0.00     0.161 HD
ENDROOT
BRANCH   1   3
HETATM    3  C8  UNL     1      23.712   4.831  51.063  1.00  0.00     0.133 A 
HETATM    4  N2  UNL     1      23.438   4.007  50.180  1.00  0.00    -0.224 NA
HETATM    5  C7  UNL     1      23.275   3.584  49.019  1.00  0.00     0.235 A 
HETATM    6  N1  UNL     1      23.574   4.696  48.372  1.00  0.00    -0.245 NA
HETATM    7  C6  UNL     1      23.925   5.837  48.954  1.00  0.00     0.049 A 
HETATM    8  C19 UNL     1      24.027   6.040  50.296  1.00  0.00     0.009 A 
HETATM    9  C20 UNL     1      24.343   7.222  51.103  1.00  0.00     0.054 C 
BRANCH   7  10
HETATM   10  C5  UNL     1      24.362   6.977  48.088  1.00  0.00     0.086 C 
BRANCH  10  11
HETATM   11  C4  UNL     1      25.847   7.202  48.035  1.00  0.00    -0.024 C 
HETATM   12  C3  UNL     1      27.023   6.634  48.197  1.00  0.00    -0.025 C 
BRANCH  12  13
HETATM   13  C2  UNL     1      27.528   5.230  48.584  1.00  0.00     0.033 C 
HETATM   14  C1  UNL     1      28.885   5.424  48.259  1.00  0.00    -0.008 C 
ENDBRANCH  12  13
ENDBRANCH  10  11
ENDBRANCH   7  10
ENDBRANCH   1   3
BRANCH   1  15
HETATM   15  C9  UNL     1      24.162   3.556  52.911  1.00  0.00     0.090 C 
BRANCH  15  16
HETATM   16  C10 UNL     1      24.803   2.452  53.219  1.00  0.00     0.052 C 
BRANCH  16  17
HETATM   17  C11 UNL     1      24.010   1.176  53.107  1.00  0.00     0.035 C 
HETATM   18  C12 UNL     1      24.549   0.041  53.392  1.00  0.00     0.075 C 
BRANCH  18  19
HETATM   19  O1  UNL     1      23.650  -0.997  53.255  1.00  0.00    -0.360 OA
HETATM   20  H13 UNL     1      22.904  -0.996  54.009  1.00  0.00     0.217 HD
ENDBRANCH  18  19
BRANCH  18  21
HETATM   21  C13 UNL     1      25.913  -0.114  53.766  1.00  0.00     0.018 A 
HETATM   22  C14 UNL     1      26.851  -0.421  52.886  1.00  0.00     0.131 A 
HETATM   23  F1  UNL     1      26.817  -0.652  51.586  1.00  0.00    -0.205 F 
HETATM   24  C15 UNL     1      28.178  -0.352  53.572  1.00  0.00    -0.026 A 
HETATM   25  C16 UNL     1      29.639  -0.420  53.395  1.00  0.00     0.051 C 
HETATM   26  C17 UNL     1      27.906  -0.012  54.860  1.00  0.00    -0.012 A 
HETATM   27  C18 UNL     1      26.412   0.136  55.091  1.00  0.00     0.072 A 
ENDBRANCH  18  21
ENDBRANCH  16  17
ENDBRANCH  15  16
ENDBRANCH   1  15
TORSDOF 9
ENDMDL
MODEL 3
REMARK VINA RESULT:      -7.8      3.004      3.920
REMARK  9 active torsions:
REMARK  status: ('A' for Active; 'I' for Inactive)
REMARK    1  A    between atoms: C2_2  and  C3_3 
REMARK    2  A    between atoms: C4_4  and  C5_5 
REMARK    3  A    between atoms: C5_5  and  C6_6 
REMARK    4  A    between atoms: C8_10  and  N3_11 
REMARK    5  A    between atoms: N3_11  and  C9_12 
REMARK    6  A    between atoms: C9_12  and  C10_13 
REMARK    7  A    between atoms: C10_13  and  C11_14 
REMARK    8  A    between atoms: C12_15  and  O1_16 
REMARK    9  A    between atoms: C12_15  and  C13_17 
ROOT
HETATM    1  N3  UNL     1      23.541   3.400  50.836  1.00  0.00    -0.370 N 
HETATM    2  H9  UNL     1      24.065   4.255  51.081  1.00  0.00     0.161 HD
ENDROOT
BRANCH   1   3
HETATM    3  C8  UNL     1      22.499   2.626  50.307  1.00  0.00     0.133 A 
HETATM    4  N2  UNL     1      22.273   1.887  49.340  1.00  0.00    -0.224 NA
HETATM    5  C7  UNL     1      21.610   1.120  48.614  1.00  0.00     0.235 A 
HETATM    6  N1  UNL     1      20.499   1.104  49.327  1.00  0.00    -0.245 NA
HETATM    7  C6  UNL     1      20.319   1.770  50.461  1.00  0.00     0.049 A 
HETATM    8  C19 UNL     1      21.245   2.566  51.065  1.00  0.00     0.009 A 
HETATM    9  C20 UNL     1      21.242   3.322  52.320  1.00  0.00     0.054 C 
BRANCH   7  10
HETATM   10  C5  UNL     1      18.962   1.759  51.091  1.00  0.00     0.086 C 
BRANCH  10  11
HETATM   11  C4  UNL     1      18.650   0.537  51.908  1.00  0.00    -0.024 C 
HETATM   12  C3  UNL     1      19.156  -0.367  52.719  1.00  0.00    -0.025 C 
BRANCH  12  13
HETATM   13  C2  UNL     1      20.544  -0.656  53.323  1.00  0.00     0.033 C 
HETATM   14  C1  UNL     1      20.558   0.391  54.267  1.00  0.00    -0.008 C 
ENDBRANCH  12  13
ENDBRANCH  10  11
ENDBRANCH   7  10
ENDBRANCH   1   3
BRANCH   1  15
HETATM   15  C9  UNL     1      24.524   2.411  51.355  1.00  0.00     0.090 C 
BRANCH  15  16
HETATM   16  C10 UNL     1      25.130   1.386  51.909  1.00  0.00     0.052 C 
BRANCH  16  17
HETATM   17  C11 UNL     1      24.271   0.498  52.771  1.00  0.00     0.035 C 
HETATM   18  C12 UNL     1      24.798  -0.234  53.690  1.00  0.00     0.075 C 
BRANCH  18  19
HETATM   19  O1  UNL     1      23.841  -0.947  54.383  1.00  0.00    -0.360 OA
HETATM   20  H13 UNL     1      24.221  -1.391  55.268  1.00  0.00     0.217 HD
ENDBRANCH  18  19
BRANCH  18  21
HETATM   21  C13 UNL     1      26.199  -0.317  53.927  1.00  0.00     0.018 A 
HETATM   22  C14 UNL     1      26.995  -1.060  53.178  1.00  0.00     0.131 A 
HETATM   23  F1  UNL     1      26.770  -1.844  52.138  1.00  0.00    -0.205 F 
HETATM   24  C15 UNL     1      28.407  -0.800  53.593  1.00  0.00    -0.026 A 
HETATM   25  C16 UNL     1      29.826  -1.059  53.293  1.00  0.00     0.051 C 
HETATM   26  C17 UNL     1      28.329   0.100  54.610  1.00  0.00    -0.012 A 
HETATM   27  C18 UNL     1      26.887   0.456  54.924  1.00  0.00     0.072 A 
ENDBRANCH  18  21
ENDBRANCH  16  17
ENDBRANCH  15  16
ENDBRANCH   1  15
TORSDOF 9
ENDMDL
MODEL 4
REMARK VINA RESULT:      -7.7      3.967      6.424
REMARK  9 active torsions:
REMARK  status: ('A' for Active; 'I' for Inactive)
REMARK    1  A    between atoms: C2_2  and  C3_3 
REMARK    2  A    between atoms: C4_4  and  C5_5 
REMARK    3  A    between atoms: C5_5  and  C6_6 
REMARK    4  A    between atoms: C8_10  and  N3_11 
REMARK    5  A    between atoms: N3_11  and  C9_12 
REMARK    6  A    between atoms: C9_12  and  C10_13 
REMARK    7  A    between atoms: C10_13  and  C11_14 
REMARK    8  A    between atoms: C12_15  and  O1_16 
REMARK    9  A    between atoms: C12_15  and  C13_17 
ROOT
HETATM    1  N3  UNL     1      27.038   2.611  52.200  1.00  0.00    -0.370 N 
HETATM    2  H9  UNL     1      27.566   3.479  52.388  1.00  0.00     0.161 HD
ENDROOT
BRANCH   1   3
HETATM    3  C8  UNL     1      26.428   1.381  52.478  1.00  0.00     0.133 A 
HETATM    4  N2  UNL     1      26.692   0.171  52.450  1.00  0.00    -0.224 NA
HETATM    5  C7  UNL     1      26.487  -1.050  52.596  1.00  0.00     0.235 A 
HETATM    6  N1  UNL     1      25.254  -0.977  53.060  1.00  0.00    -0.245 NA
HETATM    7  C6  UNL     1      24.584   0.153  53.252  1.00  0.00     0.049 A 
HETATM    8  C19 UNL     1      25.060   1.405  53.005  1.00  0.00     0.009 A 
HETATM    9  C20 UNL     1      24.494   2.742  53.201  1.00  0.00     0.054 C 
BRANCH   7  10
HETATM   10  C5  UNL     1      23.147   0.073  53.661  1.00  0.00     0.086 C 
BRANCH  10  11
HETATM   11  C4  UNL     1      22.169  -0.068  52.528  1.00  0.00    -0.024 C 
HETATM   12  C3  UNL     1      21.827   0.397  51.346  1.00  0.00    -0.025 C 
BRANCH  12  13
HETATM   13  C2  UNL     1      22.350   1.489  50.394  1.00  0.00     0.033 C 
HETATM   14  C1  UNL     1      21.574   1.145  49.270  1.00  0.00    -0.008 C 
ENDBRANCH  12  13
ENDBRANCH  10  11
ENDBRANCH   7  10
ENDBRANCH   1   3
BRANCH   1  15
HETATM   15  C9  UNL     1      26.755   2.861  50.761  1.00  0.00     0.090 C 
BRANCH  15  16
HETATM   16  C10 UNL     1      26.235   3.203  49.605  1.00  0.00     0.052 C 
BRANCH  16  17
HETATM   17  C11 UNL     1      26.553   4.595  49.124  1.00  0.00     0.035 C 
HETATM   18  C12 UNL     1      25.623   5.478  49.006  1.00  0.00     0.075 C 
BRANCH  18  19
HETATM   19  O1  UNL     1      26.125   6.691  48.582  1.00  0.00    -0.360 OA
HETATM   20  H13 UNL     1      26.219   7.395  49.370  1.00  0.00     0.217 HD
ENDBRANCH  18  19
BRANCH  18  21
HETATM   21  C13 UNL     1      24.247   5.213  49.251  1.00  0.00     0.018 A 
HETATM   22  C14 UNL     1      23.717   5.314  50.459  1.00  0.00     0.131 A 
HETATM   23  F1  UNL     1      24.225   5.637  51.634  1.00  0.00    -0.205 F 
HETATM   24  C15 UNL     1      22.239   5.124  50.339  1.00  0.00    -0.026 A 
HETATM   25  C16 UNL     1      20.950   5.166  51.051  1.00  0.00     0.051 C 
HETATM   26  C17 UNL     1      22.005   4.899  49.018  1.00  0.00    -0.012 A 
HETATM   27  C18 UNL     1      23.296   4.907  48.218  1.00  0.00     0.072 A 
ENDBRANCH  18  21
ENDBRANCH  16  17
ENDBRANCH  15  16
ENDBRANCH   1  15
TORSDOF 9
ENDMDL
MODEL 5
REMARK VINA RESULT:      -7.7      3.919      7.085
REMARK  9 active torsions:
REMARK  status: ('A' for Active; 'I' for Inactive)
REMARK    1  A    between atoms: C2_2  and  C3_3 
REMARK    2  A    between atoms: C4_4  and  C5_5 
REMARK    3  A    between atoms: C5_5  and  C6_6 
REMARK    4  A    between atoms: C8_10  and  N3_11 
REMARK    5  A    between atoms: N3_11  and  C9_12 
REMARK    6  A    between atoms: C9_12  and  C10_13 
REMARK    7  A    between atoms: C10_13  and  C11_14 
REMARK    8  A    between atoms: C12_15  and  O1_16 
REMARK    9  A    between atoms: C12_15  and  C13_17 
ROOT
HETATM    1  N3  UNL     1      24.538   3.830  53.155  1.00  0.00    -0.370 N 
HETATM    2  H9  UNL     1      25.085   4.668  53.409  1.00  0.00     0.161 HD
ENDROOT
BRANCH   1   3
HETATM    3  C8  UNL     1      24.201   2.471  53.099  1.00  0.00     0.133 A 
HETATM    4  N2  UNL     1      23.246   1.750  52.781  1.00  0.00    -0.224 NA
HETATM    5  C7  UNL     1      22.627   0.684  52.595  1.00  0.00     0.235 A 
HETATM    6  N1  UNL     1      23.585  -0.151  52.952  1.00  0.00    -0.245 NA
HETATM    7  C6  UNL     1      24.793   0.215  53.364  1.00  0.00     0.049 A 
HETATM    8  C19 UNL     1      25.232   1.499  53.477  1.00  0.00     0.009 A 
HETATM    9  C20 UNL     1      26.523   2.081  53.856  1.00  0.00     0.054 C 
BRANCH   7  10
HETATM   10  C5  UNL     1      25.732  -0.839  53.860  1.00  0.00     0.086 C 
BRANCH  10  11
HETATM   11  C4  UNL     1      26.737  -1.322  52.852  1.00  0.00    -0.024 C 
HETATM   12  C3  UNL     1      28.006  -1.610  52.658  1.00  0.00    -0.025 C 
BRANCH  12  13
HETATM   13  C2  UNL     1      29.286  -1.590  53.515  1.00  0.00     0.033 C 
HETATM   14  C1  UNL     1      29.492  -0.196  53.511  1.00  0.00    -0.008 C 
ENDBRANCH  12  13
ENDBRANCH  10  11
ENDBRANCH   7  10
ENDBRANCH   1   3
BRANCH   1  15
HETATM   15  C9  UNL     1      23.442   4.524  52.427  1.00  0.00     0.090 C 
BRANCH  15  16
HETATM   16  C10 UNL     1      22.676   5.117  51.540  1.00  0.00     0.052 C 
BRANCH  16  17
HETATM   17  C11 UNL     1      22.217   4.262  50.386  1.00  0.00     0.035 C 
HETATM   18  C12 UNL     1      22.959   4.112  49.345  1.00  0.00     0.075 C 
BRANCH  18  19
HETATM   19  O1  UNL     1      22.373   3.271  48.421  1.00  0.00    -0.360 OA
HETATM   20  H13 UNL     1      22.484   2.246  48.669  1.00  0.00     0.217 HD
ENDBRANCH  18  19
BRANCH  18  21
HETATM   21  C13 UNL     1      24.210   4.765  49.165  1.00  0.00     0.018 A 
HETATM   22  C14 UNL     1      25.361   4.136  49.337  1.00  0.00     0.131 A 
HETATM   23  F1  UNL     1      25.661   2.897  49.682  1.00  0.00    -0.205 F 
HETATM   24  C15 UNL     1      26.464   5.056  48.920  1.00  0.00    -0.026 A 
HETATM   25  C16 UNL     1      27.913   5.181  48.683  1.00  0.00     0.051 C 
HETATM   26  C17 UNL     1      25.853   6.208  48.537  1.00  0.00    -0.012 A 
HETATM   27  C18 UNL     1      24.346   6.117  48.698  1.00  0.00     0.072 A 
ENDBRANCH  18  21
ENDBRANCH  16  17
ENDBRANCH  15  16
ENDBRANCH   1  15
TORSDOF 9
ENDMDL
MODEL 6
REMARK VINA RESULT:      -7.7      3.914      5.050
REMARK  9 active torsions:
REMARK  status: ('A' for Active; 'I' for Inactive)
REMARK    1  A    between atoms: C2_2  and  C3_3 
REMARK    2  A    between atoms: C4_4  and  C5_5 
REMARK    3  A    between atoms: C5_5  and  C6_6 
REMARK    4  A    between atoms: C8_10  and  N3_11 
REMARK    5  A    between atoms: N3_11  and  C9_12 
REMARK    6  A    between atoms: C9_12  and  C10_13 
REMARK    7  A    between atoms: C10_13  and  C11_14 
REMARK    8  A    between atoms: C12_15  and  O1_16 
REMARK    9  A    between atoms: C12_15  and  C13_17 
ROOT
HETATM    1  N3  UNL     1      25.495   4.259  50.833  1.00  0.00    -0.370 N 
HETATM    2  H9  UNL     1      26.325   4.787  51.147  1.00  0.00     0.161 HD
ENDROOT
BRANCH   1   3
HETATM    3  C8  UNL     1      24.224   4.052  50.281  1.00  0.00     0.133 A 
HETATM    4  N2  UNL     1      23.708   3.667  49.224  1.00  0.00    -0.224 NA
HETATM    5  C7  UNL     1      22.783   3.369  48.442  1.00  0.00     0.235 A 
HETATM    6  N1  UNL     1      21.770   3.617  49.250  1.00  0.00    -0.245 NA
HETATM    7  C6  UNL     1      21.887   4.052  50.499  1.00  0.00     0.049 A 
HETATM    8  C19 UNL     1      23.062   4.305  51.139  1.00  0.00     0.009 A 
HETATM    9  C20 UNL     1      23.380   4.731  52.505  1.00  0.00     0.054 C 
BRANCH   7  10
HETATM   10  C5  UNL     1      20.645   4.413  51.252  1.00  0.00     0.086 C 
BRANCH  10  11
HETATM   11  C4  UNL     1      19.940   3.259  51.907  1.00  0.00    -0.024 C 
HETATM   12  C3  UNL     1      20.104   2.069  52.444  1.00  0.00    -0.025 C 
BRANCH  12  13
HETATM   13  C2  UNL     1      21.298   1.130  52.705  1.00  0.00     0.033 C 
HETATM   14  C1  UNL     1      21.343   0.528  51.432  1.00  0.00    -0.008 C 
ENDBRANCH  12  13
ENDBRANCH  10  11
ENDBRANCH   7  10
ENDBRANCH   1   3
BRANCH   1  15
HETATM   15  C9  UNL     1      25.994   2.895  51.160  1.00  0.00     0.090 C 
BRANCH  15  16
HETATM   16  C10 UNL     1      26.148   1.604  51.344  1.00  0.00     0.052 C 
BRANCH  16  17
HETATM   17  C11 UNL     1      25.044   0.909  52.097  1.00  0.00     0.035 C 
HETATM   18  C12 UNL     1      25.307   0.191  53.134  1.00  0.00     0.075 C 
BRANCH  18  19
HETATM   19  O1  UNL     1      24.160  -0.333  53.694  1.00  0.00    -0.360 OA
HETATM   20  H13 UNL     1      24.169  -0.301  54.754  1.00  0.00     0.217 HD
ENDBRANCH  18  19
BRANCH  18  21
HETATM   21  C13 UNL     1      26.625  -0.053  53.611  1.00  0.00     0.018 A 
HETATM   22  C14 UNL     1      27.389  -1.007  53.105  1.00  0.00     0.131 A 
HETATM   23  F1  UNL     1      27.193  -1.898  52.150  1.00  0.00    -0.205 F 
HETATM   24  C15 UNL     1      28.749  -0.891  53.715  1.00  0.00    -0.026 A 
HETATM   25  C16 UNL     1      30.134  -1.392  53.692  1.00  0.00     0.051 C 
HETATM   26  C17 UNL     1      28.672   0.153  54.583  1.00  0.00    -0.012 A 
HETATM   27  C18 UNL     1      27.278   0.755  54.604  1.00  0.00     0.072 A 
ENDBRANCH  18  21
ENDBRANCH  16  17
ENDBRANCH  15  16
ENDBRANCH   1  15
TORSDOF 9
ENDMDL
MODEL 7
REMARK VINA RESULT:      -7.6      4.371      5.787
REMARK  9 active torsions:
REMARK  status: ('A' for Active; 'I' for Inactive)
REMARK    1  A    between atoms: C2_2  and  C3_3 
REMARK    2  A    between atoms: C4_4  and  C5_5 
REMARK    3  A    between atoms: C5_5  and  C6_6 
REMARK    4  A    between atoms: C8_10  and  N3_11 
REMARK    5  A    between atoms: N3_11  and  C9_12 
REMARK    6  A    between atoms: C9_12  and  C10_13 
REMARK    7  A    between atoms: C10_13  and  C11_14 
REMARK    8  A    between atoms: C12_15  and  O1_16 
REMARK    9  A    between atoms: C12_15  and  C13_17 
ROOT
HETATM    1  N3  UNL     1      23.701   5.077  52.814  1.00  0.00    -0.370 N 
HETATM    2  H9  UNL     1      23.441   5.427  53.750  1.00  0.00     0.161 HD
ENDROOT
BRANCH   1   3
HETATM    3  C8  UNL     1      23.849   5.092  51.421  1.00  0.00     0.133 A 
HETATM    4  N2  UNL     1      24.721   5.314  50.569  1.00  0.00    -0.224 NA
HETATM    5  C7  UNL     1      25.205   5.414  49.425  1.00  0.00     0.235 A 
HETATM    6  N1  UNL     1      24.131   5.073  48.738  1.00  0.00    -0.245 NA
HETATM    7  C6  UNL     1      22.961   4.748  49.276  1.00  0.00     0.049 A 
HETATM    8  C19 UNL     1      22.689   4.712  50.610  1.00  0.00     0.009 A 
HETATM    9  C20 UNL     1      21.496   4.334  51.373  1.00  0.00     0.054 C 
BRANCH   7  10
HETATM   10  C5  UNL     1      21.797   4.508  48.367  1.00  0.00     0.086 C 
BRANCH  10  11
HETATM   11  C4  UNL     1      21.643   3.091  47.891  1.00  0.00    -0.024 C 
HETATM   12  C3  UNL     1      21.211   1.892  48.219  1.00  0.00    -0.025 C 
BRANCH  12  13
HETATM   13  C2  UNL     1      20.544   1.257  49.454  1.00  0.00     0.033 C 
HETATM   14  C1  UNL     1      21.722   0.874  50.126  1.00  0.00    -0.008 C 
ENDBRANCH  12  13
ENDBRANCH  10  11
ENDBRANCH   7  10
ENDBRANCH   1   3
BRANCH   1  15
HETATM   15  C9  UNL     1      24.284   3.778  53.245  1.00  0.00     0.090 C 
BRANCH  15  16
HETATM   16  C10 UNL     1      24.913   2.628  53.329  1.00  0.00     0.052 C 
BRANCH  16  17
HETATM   17  C11 UNL     1      24.063   1.396  53.152  1.00  0.00     0.035 C 
HETATM   18  C12 UNL     1      24.549   0.225  53.380  1.00  0.00     0.075 C 
BRANCH  18  19
HETATM   19  O1  UNL     1      23.605  -0.762  53.189  1.00  0.00    -0.360 OA
HETATM   20  H13 UNL     1      23.851  -1.667  53.684  1.00  0.00     0.217 HD
ENDBRANCH  18  19
BRANCH  18  21
HETATM   21  C13 UNL     1      25.904  -0.010  53.747  1.00  0.00     0.018 A 
HETATM   22  C14 UNL     1      26.814  -0.387  52.865  1.00  0.00     0.131 A 
HETATM   23  F1  UNL     1      26.757  -0.631  51.569  1.00  0.00    -0.205 F 
HETATM   24  C15 UNL     1      28.148  -0.391  53.542  1.00  0.00    -0.026 A 
HETATM   25  C16 UNL     1      29.600  -0.553  53.357  1.00  0.00     0.051 C 
HETATM   26  C17 UNL     1      27.906  -0.019  54.828  1.00  0.00    -0.012 A 
HETATM   27  C18 UNL     1      26.426   0.225  55.065  1.00  0.00     0.072 A 
ENDBRANCH  18  21
ENDBRANCH  16  17
ENDBRANCH  15  16
ENDBRANCH   1  15
TORSDOF 9
ENDMDL
MODEL 8
REMARK VINA RESULT:      -7.6      5.048      8.594
REMARK  9 active torsions:
REMARK  status: ('A' for Active; 'I' for Inactive)
REMARK    1  A    between atoms: C2_2  and  C3_3 
REMARK    2  A    between atoms: C4_4  and  C5_5 
REMARK    3  A    between atoms: C5_5  and  C6_6 
REMARK    4  A    between atoms: C8_10  and  N3_11 
REMARK    5  A    between atoms: N3_11  and  C9_12 
REMARK    6  A    between atoms: C9_12  and  C10_13 
REMARK    7  A    between atoms: C10_13  and  C11_14 
REMARK    8  A    between atoms: C12_15  and  O1_16 
REMARK    9  A    between atoms: C12_15  and  C13_17 
ROOT
HETATM    1  N3  UNL     1      25.106   3.240  50.022  1.00  0.00    -0.370 N 
HETATM    2  H9  UNL     1      25.056   2.322  49.552  1.00  0.00     0.161 HD
ENDROOT
BRANCH   1   3
HETATM    3  C8  UNL     1      25.110   4.637  50.140  1.00  0.00     0.133 A 
HETATM    4  N2  UNL     1      24.452   5.538  50.676  1.00  0.00    -0.224 NA
HETATM    5  C7  UNL     1      24.157   6.707  50.994  1.00  0.00     0.235 A 
HETATM    6  N1  UNL     1      25.159   7.322  50.394  1.00  0.00    -0.245 NA
HETATM    7  C6  UNL     1      26.112   6.713  49.698  1.00  0.00     0.049 A 
HETATM    8  C19 UNL     1      26.207   5.369  49.498  1.00  0.00     0.009 A 
HETATM    9  C20 UNL     1      27.197   4.531  48.817  1.00  0.00     0.054 C 
BRANCH   7  10
HETATM   10  C5  UNL     1      27.111   7.551  48.965  1.00  0.00     0.086 C 
BRANCH  10  11
HETATM   11  C4  UNL     1      26.680   8.006  47.599  1.00  0.00    -0.024 C 
HETATM   12  C3  UNL     1      25.656   8.410  46.878  1.00  0.00    -0.025 C 
BRANCH  12  13
HETATM   13  C2  UNL     1      24.155   8.655  47.131  1.00  0.00     0.033 C 
HETATM   14  C1  UNL     1      23.730   7.315  47.040  1.00  0.00    -0.008 C 
ENDBRANCH  12  13
ENDBRANCH  10  11
ENDBRANCH   7  10
ENDBRANCH   1   3
BRANCH   1  15
HETATM   15  C9  UNL     1      25.229   2.741  51.418  1.00  0.00     0.090 C 
BRANCH  15  16
HETATM   16  C10 UNL     1      25.037   2.400  52.672  1.00  0.00     0.052 C 
BRANCH  16  17
HETATM   17  C11 UNL     1      24.129   1.220  52.904  1.00  0.00     0.035 C 
HETATM   18  C12 UNL     1      24.581   0.139  53.439  1.00  0.00     0.075 C 
BRANCH  18  19
HETATM   19  O1  UNL     1      23.587  -0.806  53.592  1.00  0.00    -0.360 OA
HETATM   20  H13 UNL     1      22.839  -0.508  54.282  1.00  0.00     0.217 HD
ENDBRANCH  18  19
BRANCH  18  21
HETATM   21  C13 UNL     1      25.945  -0.057  53.792  1.00  0.00     0.018 A 
HETATM   22  C14 UNL     1      26.819  -0.583  52.950  1.00  0.00     0.131 A 
HETATM   23  F1  UNL     1      26.711  -1.030  51.712  1.00  0.00    -0.205 F 
HETATM   24  C15 UNL     1      28.176  -0.502  53.573  1.00  0.00    -0.026 A 
HETATM   25  C16 UNL     1      29.619  -0.715  53.365  1.00  0.00     0.051 C 
HETATM   26  C17 UNL     1      27.986   0.073  54.790  1.00  0.00    -0.012 A 
HETATM   27  C18 UNL     1      26.519   0.376  55.037  1.00  0.00     0.072 A 
ENDBRANCH  18  21
ENDBRANCH  16  17
ENDBRANCH  15  16
ENDBRANCH   1  15
TORSDOF 9
ENDMDL
MODEL 9
REMARK VINA RESULT:      -7.5      3.292      4.650
REMARK  9 active torsions:
REMARK  status: ('A' for Active; 'I' for Inactive)
REMARK    1  A    between atoms: C2_2  and  C3_3 
REMARK    2  A    between atoms: C4_4  and  C5_5 
REMARK    3  A    between atoms: C5_5  and  C6_6 
REMARK    4  A    between atoms: C8_10  and  N3_11 
REMARK    5  A    between atoms: N3_11  and  C9_12 
REMARK    6  A    between atoms: C9_12  and  C10_13 
REMARK    7  A    between atoms: C10_13  and  C11_14 
REMARK    8  A    between atoms: C12_15  and  O1_16 
REMARK    9  A    between atoms: C12_15  and  C13_17 
ROOT
HETATM    1  N3  UNL     1      21.561   3.065  48.601  1.00  0.00    -0.370 N 
HETATM    2  H9  UNL     1      21.739   2.978  47.588  1.00  0.00     0.161 HD
ENDROOT
BRANCH   1   3
HETATM    3  C8  UNL     1      20.840   2.993  49.800  1.00  0.00     0.133 A 
HETATM    4  N2  UNL     1      20.216   3.736  50.570  1.00  0.00    -0.224 NA
HETATM    5  C7  UNL     1      19.531   4.037  51.567  1.00  0.00     0.235 A 
HETATM    6  N1  UNL     1      19.415   2.829  52.085  1.00  0.00    -0.245 NA
HETATM    7  C6  UNL     1      19.941   1.728  51.561  1.00  0.00     0.049 A 
HETATM    8  C19 UNL     1      20.674   1.672  50.415  1.00  0.00     0.009 A 
HETATM    9  C20 UNL     1      21.277   0.562  49.672  1.00  0.00     0.054 C 
BRANCH   7  10
HETATM   10  C5  UNL     1      19.836   0.448  52.330  1.00  0.00     0.086 C 
BRANCH  10  11
HETATM   11  C4  UNL     1      20.472   0.471  53.691  1.00  0.00    -0.024 C 
HETATM   12  C3  UNL     1      21.191  -0.221  54.549  1.00  0.00    -0.025 C 
BRANCH  12  13
HETATM   13  C2  UNL     1      21.837  -1.620  54.574  1.00  0.00     0.033 C 
HETATM   14  C1  UNL     1      23.013  -1.270  55.267  1.00  0.00    -0.008 C 
ENDBRANCH  12  13
ENDBRANCH  10  11
ENDBRANCH   7  10
ENDBRANCH   1   3
BRANCH   1  15
HETATM   15  C9  UNL     1      22.915   3.538  48.999  1.00  0.00     0.090 C 
BRANCH  15  16
HETATM   16  C10 UNL     1      23.960   4.233  49.386  1.00  0.00     0.052 C 
BRANCH  16  17
HETATM   17  C11 UNL     1      23.810   4.984  50.684  1.00  0.00     0.035 C 
HETATM   18  C12 UNL     1      24.047   4.404  51.809  1.00  0.00     0.075 C 
BRANCH  18  19
HETATM   19  O1  UNL     1      23.881   5.270  52.871  1.00  0.00    -0.360 OA
HETATM   20  H13 UNL     1      24.194   4.852  53.794  1.00  0.00     0.217 HD
ENDBRANCH  18  19
BRANCH  18  21
HETATM   21  C13 UNL     1      24.401   3.032  51.931  1.00  0.00     0.018 A 
HETATM   22  C14 UNL     1      25.602   2.585  51.607  1.00  0.00     0.131 A 
HETATM   23  F1  UNL     1      26.681   3.183  51.133  1.00  0.00    -0.205 F 
HETATM   24  C15 UNL     1      25.689   1.145  52.000  1.00  0.00    -0.026 A 
HETATM   25  C16 UNL     1      26.573  -0.028  52.117  1.00  0.00     0.051 C 
HETATM   26  C17 UNL     1      24.476   0.838  52.531  1.00  0.00    -0.012 A 
HETATM   27  C18 UNL     1      23.537   2.031  52.496  1.00  0.00     0.072 A 
ENDBRANCH  18  21
ENDBRANCH  16  17
ENDBRANCH  15  16
ENDBRANCH   1  15
TORSDOF 9
ENDMDL
