MODEL 1
REMARK VINA RESULT:      -6.8      0.000      0.000
REMARK  3 active torsions:
REMARK  status: ('A' for Active; 'I' for Inactive)
REMARK    1  A    between atoms: C3_3  and  N1_6 
REMARK    2  A    between atoms: N1_6  and  C7_8 
REMARK    3  A    between atoms: C13_16  and  O1_17 
ROOT
HETATM    1  C1  UNL     1      21.432   1.071  49.034  1.00  0.00     0.019 C 
HETATM    2  C2  UNL     1      22.222   1.769  49.597  1.00  0.00    -0.060 C 
HETATM    3  C3  UNL     1      23.178   2.588  50.288  1.00  0.00     0.085 C 
HETATM    4  C4  UNL     1      24.196   3.175  49.646  1.00  0.00     0.008 C 
HETATM    5  C5  UNL     1      25.218   4.030  50.283  1.00  0.00     0.039 C 
ENDROOT
BRANCH   3   6
HETATM    6  N1  UNL     1      23.000   2.754  51.702  1.00  0.00    -0.330 N 
HETATM    7  C6  UNL     1      22.615   4.097  52.160  1.00  0.00     0.158 C 
BRANCH   6   8
HETATM    8  C7  UNL     1      23.225   1.570  52.494  1.00  0.00     0.145 A 
HETATM    9  N2  UNL     1      22.097   0.958  52.778  1.00  0.00    -0.226 NA
HETATM   10  C8  UNL     1      22.147  -0.239  53.562  1.00  0.00     0.228 A 
HETATM   11  N3  UNL     1      23.307  -0.575  53.897  1.00  0.00    -0.279 NA
HETATM   12  C9  UNL     1      24.592  -0.042  53.680  1.00  0.00     0.196 A 
HETATM   13  C10 UNL     1      24.599   1.201  52.879  1.00  0.00     0.142 A 
HETATM   14  C11 UNL     1      25.369   2.332  53.497  1.00  0.00     0.078 C 
HETATM   15  O2  UNL     1      25.261   0.888  51.663  1.00  0.00    -0.364 OA
HETATM   16  C12 UNL     1      26.653   1.776  53.994  1.00  0.00     0.011 C 
HETATM   17  C13 UNL     1      27.081   0.895  53.131  1.00  0.00     0.065 C 
HETATM   18  C15 UNL     1      26.540   0.413  51.861  1.00  0.00     0.233 C 
BRANCH  17  19
HETATM   19  O1  UNL     1      28.296   0.260  53.439  1.00  0.00    -0.358 OA
HETATM   20  C14 UNL     1      28.604   0.154  54.817  1.00  0.00     0.209 C 
ENDBRANCH  17  19
ENDBRANCH   6   8
ENDBRANCH   3   6
TORSDOF 3
ENDMDL
MODEL 2
REMARK VINA RESULT:      -6.8      1.037      1.994
REMARK  3 active torsions:
REMARK  status: ('A' for Active; 'I' for Inactive)
REMARK    1  A    between atoms: C3_3  and  N1_6 
REMARK    2  A    between atoms: N1_6  and  C7_8 
REMARK    3  A    between atoms: C13_16  and  O1_17 
ROOT
HETATM    1  C1  UNL     1      26.559   3.143  50.082  1.00  0.00     0.019 C 
HETATM    2  C2  UNL     1      25.445   2.898  50.437  1.00  0.00    -0.060 C 
HETATM    3  C3  UNL     1      24.103   2.627  50.871  1.00  0.00     0.085 C 
HETATM    4  C4  UNL     1      23.132   2.316  50.004  1.00  0.00     0.008 C 
HETATM    5  C5  UNL     1      21.732   2.024  50.370  1.00  0.00     0.039 C 
ENDROOT
BRANCH   3   6
HETATM    6  N1  UNL     1      23.842   2.702  52.279  1.00  0.00    -0.330 N 
HETATM    7  C6  UNL     1      23.690   4.051  52.845  1.00  0.00     0.158 C 
BRANCH   6   8
HETATM    8  C7  UNL     1      23.761   1.434  52.961  1.00  0.00     0.145 A 
HETATM    9  N2  UNL     1      22.514   1.089  53.193  1.00  0.00    -0.226 NA
HETATM   10  C8  UNL     1      22.261  -0.150  53.864  1.00  0.00     0.228 A 
HETATM   11  N3  UNL     1      23.300  -0.784  54.164  1.00  0.00    -0.279 NA
HETATM   12  C9  UNL     1      24.680  -0.559  53.991  1.00  0.00     0.196 A 
HETATM   13  C10 UNL     1      24.999   0.712  53.306  1.00  0.00     0.142 A 
HETATM   14  C11 UNL     1      26.006   1.566  54.021  1.00  0.00     0.078 C 
HETATM   15  O2  UNL     1      25.588   0.359  52.064  1.00  0.00    -0.364 OA
HETATM   16  C12 UNL     1      27.110   0.675  54.461  1.00  0.00     0.011 C 
HETATM   17  C13 UNL     1      27.330  -0.203  53.520  1.00  0.00     0.065 C 
HETATM   18  C15 UNL     1      26.713  -0.426  52.214  1.00  0.00     0.233 C 
BRANCH  17  19
HETATM   19  O1  UNL     1      28.351  -1.136  53.766  1.00  0.00    -0.358 OA
HETATM   20  C14 UNL     1      29.670  -0.690  53.508  1.00  0.00     0.209 C 
ENDBRANCH  17  19
ENDBRANCH   6   8
ENDBRANCH   3   6
TORSDOF 3
ENDMDL
MODEL 3
REMARK VINA RESULT:      -6.6      2.328      5.056
REMARK  3 active torsions:
REMARK  status: ('A' for Active; 'I' for Inactive)
REMARK    1  A    between atoms: C3_3  and  N1_6 
REMARK    2  A    between atoms: N1_6  and  C7_8 
REMARK    3  A    between atoms: C13_16  and  O1_17 
ROOT
HETATM    1  C1  UNL     1      26.825  -0.245  52.056  1.00  0.00     0.019 C 
HETATM    2  C2  UNL     1      25.755   0.193  52.357  1.00  0.00    -0.060 C 
HETATM    3  C3  UNL     1      24.464   0.723  52.694  1.00  0.00     0.085 C 
HETATM    4  C4  UNL     1      23.520  -0.033  53.270  1.00  0.00     0.008 C 
HETATM    5  C5  UNL     1      22.172   0.436  53.646  1.00  0.00     0.039 C 
ENDROOT
BRANCH   3   6
HETATM    6  N1  UNL     1      24.220   2.103  52.387  1.00  0.00    -0.330 N 
HETATM    7  C6  UNL     1      24.364   3.055  53.498  1.00  0.00     0.158 C 
BRANCH   6   8
HETATM    8  C7  UNL     1      23.863   2.376  51.017  1.00  0.00     0.145 A 
HETATM    9  N2  UNL     1      22.795   1.703  50.653  1.00  0.00    -0.226 NA
HETATM   10  C8  UNL     1      22.307   1.863  49.317  1.00  0.00     0.228 A 
HETATM   11  N3  UNL     1      22.984   2.659  48.624  1.00  0.00    -0.279 NA
HETATM   12  C9  UNL     1      24.129   3.445  48.858  1.00  0.00     0.196 A 
HETATM   13  C10 UNL     1      24.679   3.312  50.224  1.00  0.00     0.142 A 
HETATM   14  C11 UNL     1      26.149   3.011  50.274  1.00  0.00     0.078 C 
HETATM   15  O2  UNL     1      24.513   4.578  50.845  1.00  0.00    -0.364 OA
HETATM   16  C12 UNL     1      26.820   3.909  49.299  1.00  0.00     0.011 C 
HETATM   17  C13 UNL     1      26.242   5.077  49.351  1.00  0.00     0.065 C 
HETATM   18  C15 UNL     1      25.133   5.596  50.152  1.00  0.00     0.233 C 
BRANCH  17  19
HETATM   19  O1  UNL     1      26.751   6.063  48.490  1.00  0.00    -0.358 OA
HETATM   20  C14 UNL     1      28.146   6.015  48.253  1.00  0.00     0.209 C 
ENDBRANCH  17  19
ENDBRANCH   6   8
ENDBRANCH   3   6
TORSDOF 3
ENDMDL
MODEL 4
REMARK VINA RESULT:      -6.2      1.772      3.268
REMARK  3 active torsions:
REMARK  status: ('A' for Active; 'I' for Inactive)
REMARK    1  A    between atoms: C3_3  and  N1_6 
REMARK    2  A    between atoms: N1_6  and  C7_8 
REMARK    3  A    between atoms: C13_16  and  O1_17 
ROOT
HETATM    1  C1  UNL     1      22.343   2.701  47.387  1.00  0.00     0.019 C 
HETATM    2  C2  UNL     1      22.326   2.311  48.516  1.00  0.00    -0.060 C 
HETATM    3  C3  UNL     1      22.292   1.862  49.880  1.00  0.00     0.085 C 
HETATM    4  C4  UNL     1      21.703   0.711  50.228  1.00  0.00     0.008 C 
HETATM    5  C5  UNL     1      21.626   0.182  51.605  1.00  0.00     0.039 C 
ENDROOT
BRANCH   3   6
HETATM    6  N1  UNL     1      22.917   2.701  50.862  1.00  0.00    -0.330 N 
HETATM    7  C6  UNL     1      22.019   3.384  51.806  1.00  0.00     0.158 C 
BRANCH   6   8
HETATM    8  C7  UNL     1      24.356   2.764  50.794  1.00  0.00     0.145 A 
HETATM    9  N2  UNL     1      24.761   3.402  49.719  1.00  0.00    -0.226 NA
HETATM   10  C8  UNL     1      26.167   3.552  49.501  1.00  0.00     0.228 A 
HETATM   11  N3  UNL     1      26.875   3.037  50.398  1.00  0.00    -0.279 NA
HETATM   12  C9  UNL     1      26.605   2.335  51.589  1.00  0.00     0.196 A 
HETATM   13  C10 UNL     1      25.163   2.146  51.860  1.00  0.00     0.142 A 
HETATM   14  C11 UNL     1      24.770   0.728  52.159  1.00  0.00     0.078 C 
HETATM   15  O2  UNL     1      24.877   2.893  53.033  1.00  0.00    -0.364 OA
HETATM   16  C12 UNL     1      25.771   0.181  53.110  1.00  0.00     0.011 C 
HETATM   17  C13 UNL     1      26.086   1.119  53.961  1.00  0.00     0.065 C 
HETATM   18  C15 UNL     1      25.645   2.505  54.111  1.00  0.00     0.233 C 
BRANCH  17  19
HETATM   19  O1  UNL     1      27.030   0.777  54.944  1.00  0.00    -0.358 OA
HETATM   20  C14 UNL     1      28.120  -0.012  54.505  1.00  0.00     0.209 C 
ENDBRANCH  17  19
ENDBRANCH   6   8
ENDBRANCH   3   6
TORSDOF 3
ENDMDL
MODEL 5
REMARK VINA RESULT:      -5.8      2.627      4.409
REMARK  3 active torsions:
REMARK  status: ('A' for Active; 'I' for Inactive)
REMARK    1  A    between atoms: C3_3  and  N1_6 
REMARK    2  A    between atoms: N1_6  and  C7_8 
REMARK    3  A    between atoms: C13_16  and  O1_17 
ROOT
HETATM    1  C1  UNL     1      27.873   5.080  48.590  1.00  0.00     0.019 C 
HETATM    2  C2  UNL     1      26.815   5.631  48.651  1.00  0.00    -0.060 C 
HETATM    3  C3  UNL     1      25.549   6.303  48.745  1.00  0.00     0.085 C 
HETATM    4  C4  UNL     1      25.182   7.240  47.861  1.00  0.00     0.008 C 
HETATM    5  C5  UNL     1      23.901   7.974  47.890  1.00  0.00     0.039 C 
ENDROOT
BRANCH   3   6
HETATM    6  N1  UNL     1      24.688   5.930  49.830  1.00  0.00    -0.330 N 
HETATM    7  C6  UNL     1      24.553   6.905  50.922  1.00  0.00     0.158 C 
BRANCH   6   8
HETATM    8  C7  UNL     1      24.062   4.637  49.704  1.00  0.00     0.145 A 
HETATM    9  N2  UNL     1      23.362   4.545  48.595  1.00  0.00    -0.226 NA
HETATM   10  C8  UNL     1      22.676   3.320  48.319  1.00  0.00     0.228 A 
HETATM   11  N3  UNL     1      22.830   2.444  49.202  1.00  0.00    -0.279 NA
HETATM   12  C9  UNL     1      23.532   2.384  50.422  1.00  0.00     0.196 A 
HETATM   13  C10 UNL     1      24.255   3.628  50.760  1.00  0.00     0.142 A 
HETATM   14  C11 UNL     1      23.979   4.151  52.140  1.00  0.00     0.078 C 
HETATM   15  O2  UNL     1      25.638   3.307  50.727  1.00  0.00    -0.364 OA
HETATM   16  C12 UNL     1      24.037   2.995  53.072  1.00  0.00     0.011 C 
HETATM   17  C13 UNL     1      25.008   2.210  52.694  1.00  0.00     0.065 C 
HETATM   18  C15 UNL     1      25.967   2.285  51.593  1.00  0.00     0.233 C 
BRANCH  17  19
HETATM   19  O1  UNL     1      25.212   1.055  53.468  1.00  0.00    -0.358 OA
HETATM   20  C14 UNL     1      26.424   1.008  54.198  1.00  0.00     0.209 C 
ENDBRANCH  17  19
ENDBRANCH   6   8
ENDBRANCH   3   6
TORSDOF 3
ENDMDL
MODEL 6
REMARK VINA RESULT:      -5.7      3.097      4.499
REMARK  3 active torsions:
REMARK  status: ('A' for Active; 'I' for Inactive)
REMARK    1  A    between atoms: C3_3  and  N1_6 
REMARK    2  A    between atoms: N1_6  and  C7_8 
REMARK    3  A    between atoms: C13_16  and  O1_17 
ROOT
HETATM    1  C1  UNL     1      21.866   3.414  47.094  1.00  0.00     0.019 C 
HETATM    2  C2  UNL     1      22.409   4.373  47.555  1.00  0.00    -0.060 C 
HETATM    3  C3  UNL     1      23.081   5.513  48.114  1.00  0.00     0.085 C 
HETATM    4  C4  UNL     1      23.337   6.607  47.386  1.00  0.00     0.008 C 
HETATM    5  C5  UNL     1      24.022   7.815  47.887  1.00  0.00     0.039 C 
ENDROOT
BRANCH   3   6
HETATM    6  N1  UNL     1      23.472   5.433  49.492  1.00  0.00    -0.330 N 
HETATM    7  C6  UNL     1      22.660   6.201  50.448  1.00  0.00     0.158 C 
BRANCH   6   8
HETATM    8  C7  UNL     1      24.619   4.602  49.761  1.00  0.00     0.145 A 
HETATM    9  N2  UNL     1      25.672   4.999  49.081  1.00  0.00    -0.226 NA
HETATM   10  C8  UNL     1      26.898   4.277  49.236  1.00  0.00     0.228 A 
HETATM   11  N3  UNL     1      26.820   3.314  50.034  1.00  0.00    -0.279 NA
HETATM   12  C9  UNL     1      25.792   2.768  50.827  1.00  0.00     0.196 A 
HETATM   13  C10 UNL     1      24.498   3.473  50.700  1.00  0.00     0.142 A 
HETATM   14  C11 UNL     1      23.330   2.577  50.406  1.00  0.00     0.078 C 
HETATM   15  O2  UNL     1      24.239   4.061  51.966  1.00  0.00    -0.364 OA
HETATM   16  C12 UNL     1      23.435   1.400  51.306  1.00  0.00     0.011 C 
HETATM   17  C13 UNL     1      23.855   1.810  52.472  1.00  0.00     0.065 C 
HETATM   18  C15 UNL     1      24.206   3.133  52.986  1.00  0.00     0.233 C 
BRANCH  17  19
HETATM   19  O1  UNL     1      24.016   0.823  53.458  1.00  0.00    -0.358 OA
HETATM   20  C14 UNL     1      23.120  -0.272  53.387  1.00  0.00     0.209 C 
ENDBRANCH  17  19
ENDBRANCH   6   8
ENDBRANCH   3   6
TORSDOF 3
ENDMDL
MODEL 7
REMARK VINA RESULT:      -5.7      2.499      4.759
REMARK  3 active torsions:
REMARK  status: ('A' for Active; 'I' for Inactive)
REMARK    1  A    between atoms: C3_3  and  N1_6 
REMARK    2  A    between atoms: N1_6  and  C7_8 
REMARK    3  A    between atoms: C13_16  and  O1_17 
ROOT
HETATM    1  C1  UNL     1      26.748   3.580  49.426  1.00  0.00     0.019 C 
HETATM    2  C2  UNL     1      25.591   3.834  49.579  1.00  0.00    -0.060 C 
HETATM    3  C3  UNL     1      24.206   4.160  49.776  1.00  0.00     0.085 C 
HETATM    4  C4  UNL     1      23.392   4.425  48.746  1.00  0.00     0.008 C 
HETATM    5  C5  UNL     1      21.961   4.766  48.865  1.00  0.00     0.039 C 
ENDROOT
BRANCH   3   6
HETATM    6  N1  UNL     1      23.725   4.193  51.127  1.00  0.00    -0.330 N 
HETATM    7  C6  UNL     1      23.212   5.485  51.607  1.00  0.00     0.158 C 
BRANCH   6   8
HETATM    8  C7  UNL     1      23.810   2.944  51.842  1.00  0.00     0.145 A 
HETATM    9  N2  UNL     1      24.958   2.825  52.471  1.00  0.00    -0.226 NA
HETATM   10  C8  UNL     1      25.202   1.637  53.232  1.00  0.00     0.228 A 
HETATM   11  N3  UNL     1      24.253   0.818  53.208  1.00  0.00    -0.279 NA
HETATM   12  C9  UNL     1      22.983   0.794  52.597  1.00  0.00     0.196 A 
HETATM   13  C10 UNL     1      22.682   1.998  51.792  1.00  0.00     0.142 A 
HETATM   14  C11 UNL     1      22.209   1.708  50.397  1.00  0.00     0.078 C 
HETATM   15  O2  UNL     1      21.607   2.656  52.447  1.00  0.00    -0.364 OA
HETATM   16  C12 UNL     1      21.205   0.617  50.486  1.00  0.00     0.011 C 
HETATM   17  C13 UNL     1      20.477   0.814  51.552  1.00  0.00     0.065 C 
HETATM   18  C15 UNL     1      20.495   1.852  52.582  1.00  0.00     0.233 C 
BRANCH  17  19
HETATM   19  O1  UNL     1      19.466  -0.129  51.798  1.00  0.00    -0.358 OA
HETATM   20  C14 UNL     1      19.288  -0.503  53.152  1.00  0.00     0.209 C 
ENDBRANCH  17  19
ENDBRANCH   6   8
ENDBRANCH   3   6
TORSDOF 3
ENDMDL
MODEL 8
REMARK VINA RESULT:      -5.6      8.450     10.816
REMARK  3 active torsions:
REMARK  status: ('A' for Active; 'I' for Inactive)
REMARK    1  A    between atoms: C3_3  and  N1_6 
REMARK    2  A    between atoms: N1_6  and  C7_8 
REMARK    3  A    between atoms: C13_16  and  O1_17 
ROOT
HETATM    1  C1  UNL     1      32.552   6.471  44.283  1.00  0.00     0.019 C 
HETATM    2  C2  UNL     1      32.593   5.855  45.306  1.00  0.00    -0.060 C 
HETATM    3  C3  UNL     1      32.618   5.118  46.538  1.00  0.00     0.085 C 
HETATM    4  C4  UNL     1      32.890   3.808  46.570  1.00  0.00     0.008 C 
HETATM    5  C5  UNL     1      32.935   2.982  47.794  1.00  0.00     0.039 C 
ENDROOT
BRANCH   3   6
HETATM    6  N1  UNL     1      32.338   5.846  47.743  1.00  0.00    -0.330 N 
HETATM    7  C6  UNL     1      33.490   6.155  48.603  1.00  0.00     0.158 C 
BRANCH   6   8
HETATM    8  C7  UNL     1      30.951   6.179  47.954  1.00  0.00     0.145 A 
HETATM    9  N2  UNL     1      30.200   5.103  48.022  1.00  0.00    -0.226 NA
HETATM   10  C8  UNL     1      28.793   5.262  48.229  1.00  0.00     0.228 A 
HETATM   11  N3  UNL     1      28.429   6.457  48.326  1.00  0.00    -0.279 NA
HETATM   12  C9  UNL     1      29.092   7.699  48.278  1.00  0.00     0.196 A 
HETATM   13  C10 UNL     1      30.550   7.593  48.059  1.00  0.00     0.142 A 
HETATM   14  C11 UNL     1      31.072   8.445  46.939  1.00  0.00     0.078 C 
HETATM   15  O2  UNL     1      31.167   8.074  49.244  1.00  0.00    -0.364 OA
HETATM   16  C12 UNL     1      30.449   9.787  47.073  1.00  0.00     0.011 C 
HETATM   17  C13 UNL     1      30.386  10.086  48.342  1.00  0.00     0.065 C 
HETATM   18  C15 UNL     1      30.799   9.368  49.547  1.00  0.00     0.233 C 
BRANCH  17  19
HETATM   19  O1  UNL     1      29.819  11.331  48.661  1.00  0.00    -0.358 OA
HETATM   20  C14 UNL     1      30.723  12.322  49.114  1.00  0.00     0.209 C 
ENDBRANCH  17  19
ENDBRANCH   6   8
ENDBRANCH   3   6
TORSDOF 3
ENDMDL
MODEL 9
REMARK VINA RESULT:      -5.6      2.496      5.115
REMARK  3 active torsions:
REMARK  status: ('A' for Active; 'I' for Inactive)
REMARK    1  A    between atoms: C3_3  and  N1_6 
REMARK    2  A    between atoms: N1_6  and  C7_8 
REMARK    3  A    between atoms: C13_16  and  O1_17 
ROOT
HETATM    1  C1  UNL     1      26.246   5.137  49.118  1.00  0.00     0.019 C 
HETATM    2  C2  UNL     1      25.928   4.261  49.865  1.00  0.00    -0.060 C 
HETATM    3  C3  UNL     1      25.529   3.200  50.747  1.00  0.00     0.085 C 
HETATM    4  C4  UNL     1      26.361   2.202  51.071  1.00  0.00     0.008 C 
HETATM    5  C5  UNL     1      26.026   1.078  51.968  1.00  0.00     0.039 C 
ENDROOT
BRANCH   3   6
HETATM    6  N1  UNL     1      24.194   3.249  51.270  1.00  0.00    -0.330 N 
HETATM    7  C6  UNL     1      24.010   3.991  52.526  1.00  0.00     0.158 C 
BRANCH   6   8
HETATM    8  C7  UNL     1      23.199   2.559  50.487  1.00  0.00     0.145 A 
HETATM    9  N2  UNL     1      23.393   2.730  49.198  1.00  0.00    -0.226 NA
HETATM   10  C8  UNL     1      22.488   2.108  48.281  1.00  0.00     0.228 A 
HETATM   11  N3  UNL     1      21.581   1.445  48.837  1.00  0.00    -0.279 NA
HETATM   12  C9  UNL     1      21.240   1.166  50.175  1.00  0.00     0.196 A 
HETATM   13  C10 UNL     1      22.141   1.791  51.167  1.00  0.00     0.142 A 
HETATM   14  C11 UNL     1      21.435   2.570  52.240  1.00  0.00     0.078 C 
HETATM   15  O2  UNL     1      22.810   0.726  51.825  1.00  0.00    -0.364 OA
HETATM   16  C12 UNL     1      20.291   1.746  52.708  1.00  0.00     0.011 C 
HETATM   17  C13 UNL     1      20.671   0.498  52.745  1.00  0.00     0.065 C 
HETATM   18  C15 UNL     1      21.939  -0.158  52.426  1.00  0.00     0.233 C 
BRANCH  17  19
HETATM   19  O1  UNL     1      19.709  -0.434  53.169  1.00  0.00    -0.358 OA
HETATM   20  C14 UNL     1      18.540  -0.517  52.375  1.00  0.00     0.209 C 
ENDBRANCH  17  19
ENDBRANCH   6   8
ENDBRANCH   3   6
TORSDOF 3
ENDMDL
