MODEL 1
REMARK VINA RESULT:      -8.0      0.000      0.000
REMARK  8 active torsions:
REMARK  status: ('A' for Active; 'I' for Inactive)
REMARK    1  A    between atoms: C1_2  and  O1_3 
REMARK    2  A    between atoms: C1_2  and  C9_11 
REMARK    3  A    between atoms: O1_3  and  C2_4 
REMARK    4  A    between atoms: C2_4  and  C3_5 
REMARK    5  A    between atoms: C10_13  and  C11_14 
REMARK    6  A    between atoms: C11_14  and  N1_15 
REMARK    7  A    between atoms: N1_15  and  C12_16 
REMARK    8  A    between atoms: C14_18  and  S1_19 
ROOT
HETATM    1  C11 UNL     1      23.787   5.054  49.936  1.00  0.00     0.150 C 
ENDROOT
BRANCH   1   2
HETATM    2  C10 UNL     1      25.157   5.255  49.432  1.00  0.00     0.017 C 
HETATM    3  C9  UNL     1      26.229   4.480  49.347  1.00  0.00     0.069 C 
HETATM    4 CL1  UNL     1      27.708   5.125  48.669  1.00  0.00    -0.084 Cl
BRANCH   3   5
HETATM    5  C1  UNL     1      26.408   3.063  49.761  1.00  0.00     0.352 C 
HETATM    6  F1  UNL     1      27.016   2.274  48.836  1.00  0.00    -0.213 F 
BRANCH   5   7
HETATM    7  O1  UNL     1      27.107   3.090  50.989  1.00  0.00    -0.347 OA
BRANCH   7   8
HETATM    8  C2  UNL     1      26.378   2.234  51.823  1.00  0.00     0.210 C 
BRANCH   8   9
HETATM    9  C3  UNL     1      27.235   1.248  52.525  1.00  0.00    -0.035 A 
HETATM   10  C4  UNL     1      26.983  -0.101  52.337  1.00  0.00     0.009 A 
HETATM   11  C5  UNL     1      27.770  -1.054  52.981  1.00  0.00     0.001 A 
HETATM   12  C6  UNL     1      28.786  -0.597  53.798  1.00  0.00     0.000 A 
HETATM   13  C7  UNL     1      29.092   0.728  54.031  1.00  0.00     0.001 A 
HETATM   14  C8  UNL     1      28.266   1.628  53.354  1.00  0.00     0.009 A 
ENDBRANCH   8   9
ENDBRANCH   7   8
ENDBRANCH   5   7
ENDBRANCH   3   5
ENDBRANCH   1   2
BRANCH   1  15
HETATM   15  N1  UNL     1      23.727   4.857  51.370  1.00  0.00    -0.371 N 
HETATM   16  H12 UNL     1      24.290   5.037  52.234  1.00  0.00     0.161 HD
BRANCH  15  17
HETATM   17  C12 UNL     1      22.470   4.202  51.584  1.00  0.00     0.127 A 
HETATM   18  C13 UNL     1      22.638   2.858  51.870  1.00  0.00     0.088 A 
HETATM   19  C14 UNL     1      21.550   2.012  52.111  1.00  0.00     0.093 A 
HETATM   20  N2  UNL     1      20.325   2.595  52.046  1.00  0.00    -0.235 NA
HETATM   21  C20 UNL     1      20.177   3.922  51.763  1.00  0.00     0.236 A 
HETATM   22  N3  UNL     1      21.236   4.728  51.532  1.00  0.00    -0.225 NA
BRANCH  19  23
HETATM   23  S1  UNL     1      21.756   0.266  52.495  1.00  0.00    -0.129 SA
HETATM   24  C15 UNL     1      23.271  -0.140  52.899  1.00  0.00     0.013 C 
HETATM   25  C16 UNL     1      23.398  -0.471  54.160  1.00  0.00     0.019 C 
HETATM   26  C17 UNL     1      22.477  -1.467  54.749  1.00  0.00    -0.002 C 
HETATM   27  C18 UNL     1      21.192  -1.417  54.463  1.00  0.00    -0.017 C 
HETATM   28  C19 UNL     1      20.490  -0.461  53.592  1.00  0.00     0.102 C 
ENDBRANCH  19  23
ENDBRANCH  15  17
ENDBRANCH   1  15
TORSDOF 8
ENDMDL
MODEL 2
REMARK VINA RESULT:      -8.0      2.917      6.118
REMARK  8 active torsions:
REMARK  status: ('A' for Active; 'I' for Inactive)
REMARK    1  A    between atoms: C1_2  and  O1_3 
REMARK    2  A    between atoms: C1_2  and  C9_11 
REMARK    3  A    between atoms: O1_3  and  C2_4 
REMARK    4  A    between atoms: C2_4  and  C3_5 
REMARK    5  A    between atoms: C10_13  and  C11_14 
REMARK    6  A    between atoms: C11_14  and  N1_15 
REMARK    7  A    between atoms: N1_15  and  C12_16 
REMARK    8  A    between atoms: C14_18  and  S1_19 
ROOT
HETATM    1  C11 UNL     1      22.338   1.235  52.493  1.00  0.00     0.150 C 
ENDROOT
BRANCH   1   2
HETATM    2  C10 UNL     1      22.276   1.495  51.043  1.00  0.00     0.017 C 
HETATM    3  C9  UNL     1      23.033   2.182  50.200  1.00  0.00     0.069 C 
HETATM    4 CL1  UNL     1      22.594   2.249  48.506  1.00  0.00    -0.084 Cl
BRANCH   3   5
HETATM    5  C1  UNL     1      24.270   2.964  50.459  1.00  0.00     0.352 C 
HETATM    6  F1  UNL     1      25.255   2.274  51.094  1.00  0.00    -0.213 F 
BRANCH   5   7
HETATM    7  O1  UNL     1      24.691   3.475  49.209  1.00  0.00    -0.347 OA
BRANCH   7   8
HETATM    8  C2  UNL     1      24.805   4.854  49.418  1.00  0.00     0.210 C 
BRANCH   8   9
HETATM    9  C3  UNL     1      26.077   5.411  48.900  1.00  0.00    -0.035 A 
HETATM   10  C4  UNL     1      27.207   4.610  48.916  1.00  0.00     0.009 A 
HETATM   11  C5  UNL     1      28.419   5.103  48.436  1.00  0.00     0.001 A 
HETATM   12  C6  UNL     1      28.437   6.398  47.955  1.00  0.00     0.000 A 
HETATM   13  C7  UNL     1      27.352   7.250  47.909  1.00  0.00     0.001 A 
HETATM   14  C8  UNL     1      26.171   6.693  48.405  1.00  0.00     0.009 A 
ENDBRANCH   8   9
ENDBRANCH   7   8
ENDBRANCH   5   7
ENDBRANCH   3   5
ENDBRANCH   1   2
BRANCH   1  15
HETATM   15  N1  UNL     1      22.024  -0.135  52.843  1.00  0.00    -0.371 N 
HETATM   16  H12 UNL     1      21.304  -0.873  52.656  1.00  0.00     0.161 HD
BRANCH  15  17
HETATM   17  C12 UNL     1      23.082  -0.524  53.729  1.00  0.00     0.127 A 
HETATM   18  C13 UNL     1      24.325  -0.353  53.143  1.00  0.00     0.088 A 
HETATM   19  C14 UNL     1      25.509  -0.671  53.817  1.00  0.00     0.093 A 
HETATM   20  N2  UNL     1      25.358  -1.157  55.076  1.00  0.00    -0.235 NA
HETATM   21  C20 UNL     1      24.125  -1.320  55.638  1.00  0.00     0.236 A 
HETATM   22  N3  UNL     1      22.989  -1.008  54.978  1.00  0.00    -0.225 NA
BRANCH  19  23
HETATM   23  S1  UNL     1      27.130  -0.442  53.070  1.00  0.00    -0.129 SA
HETATM   24  C15 UNL     1      27.897   0.894  53.568  1.00  0.00     0.013 C 
HETATM   25  C16 UNL     1      28.947   0.640  54.310  1.00  0.00     0.019 C 
HETATM   26  C17 UNL     1      29.959  -0.328  53.836  1.00  0.00    -0.002 C 
HETATM   27  C18 UNL     1      29.572  -1.453  53.270  1.00  0.00    -0.017 C 
HETATM   28  C19 UNL     1      28.199  -1.922  53.024  1.00  0.00     0.102 C 
ENDBRANCH  19  23
ENDBRANCH  15  17
ENDBRANCH   1  15
TORSDOF 8
ENDMDL
MODEL 3
REMARK VINA RESULT:      -8.0      2.755      5.647
REMARK  8 active torsions:
REMARK  status: ('A' for Active; 'I' for Inactive)
REMARK    1  A    between atoms: C1_2  and  O1_3 
REMARK    2  A    between atoms: C1_2  and  C9_11 
REMARK    3  A    between atoms: O1_3  and  C2_4 
REMARK    4  A    between atoms: C2_4  and  C3_5 
REMARK    5  A    between atoms: C10_13  and  C11_14 
REMARK    6  A    between atoms: C11_14  and  N1_15 
REMARK    7  A    between atoms: N1_15  and  C12_16 
REMARK    8  A    between atoms: C14_18  and  S1_19 
ROOT
HETATM    1  C11 UNL     1      22.654   4.617  51.356  1.00  0.00     0.150 C 
ENDROOT
BRANCH   1   2
HETATM    2  C10 UNL     1      21.410   4.119  50.742  1.00  0.00     0.017 C 
HETATM    3  C9  UNL     1      21.132   3.137  49.896  1.00  0.00     0.069 C 
HETATM    4 CL1  UNL     1      19.475   2.875  49.395  1.00  0.00    -0.084 Cl
BRANCH   3   5
HETATM    5  C1  UNL     1      22.044   2.157  49.249  1.00  0.00     0.352 C 
HETATM    6  F1  UNL     1      22.983   2.707  48.435  1.00  0.00    -0.213 F 
BRANCH   5   7
HETATM    7  O1  UNL     1      22.616   1.393  50.292  1.00  0.00    -0.347 OA
BRANCH   7   8
HETATM    8  C2  UNL     1      21.587   0.538  50.701  1.00  0.00     0.210 C 
BRANCH   8   9
HETATM    9  C3  UNL     1      21.653   0.208  52.145  1.00  0.00    -0.035 A 
HETATM   10  C4  UNL     1      20.557   0.495  52.942  1.00  0.00     0.009 A 
HETATM   11  C5  UNL     1      20.587   0.198  54.304  1.00  0.00     0.001 A 
HETATM   12  C6  UNL     1      21.736  -0.382  54.806  1.00  0.00     0.000 A 
HETATM   13  C7  UNL     1      22.863  -0.694  54.072  1.00  0.00     0.001 A 
HETATM   14  C8  UNL     1      22.764  -0.370  52.717  1.00  0.00     0.009 A 
ENDBRANCH   8   9
ENDBRANCH   7   8
ENDBRANCH   5   7
ENDBRANCH   3   5
ENDBRANCH   1   2
BRANCH   1  15
HETATM   15  N1  UNL     1      23.191   3.729  52.367  1.00  0.00    -0.371 N 
HETATM   16  H12 UNL     1      22.930   3.299  53.285  1.00  0.00     0.161 HD
BRANCH  15  17
HETATM   17  C12 UNL     1      24.490   3.377  51.874  1.00  0.00     0.127 A 
HETATM   18  C13 UNL     1      25.129   2.483  52.717  1.00  0.00     0.088 A 
HETATM   19  C14 UNL     1      26.414   2.001  52.444  1.00  0.00     0.093 A 
HETATM   20  N2  UNL     1      26.987   2.464  51.303  1.00  0.00    -0.235 NA
HETATM   21  C20 UNL     1      26.343   3.345  50.484  1.00  0.00     0.236 A 
HETATM   22  N3  UNL     1      25.102   3.804  50.758  1.00  0.00    -0.225 NA
BRANCH  19  23
HETATM   23  S1  UNL     1      27.250   0.831  53.525  1.00  0.00    -0.129 SA
HETATM   24  C15 UNL     1      26.722  -0.692  53.375  1.00  0.00     0.013 C 
HETATM   25  C16 UNL     1      27.606  -1.494  52.832  1.00  0.00     0.019 C 
HETATM   26  C17 UNL     1      28.983  -1.530  53.367  1.00  0.00    -0.002 C 
HETATM   27  C18 UNL     1      29.590  -0.405  53.687  1.00  0.00    -0.017 C 
HETATM   28  C19 UNL     1      29.070   0.968  53.588  1.00  0.00     0.102 C 
ENDBRANCH  19  23
ENDBRANCH  15  17
ENDBRANCH   1  15
TORSDOF 8
ENDMDL
MODEL 4
REMARK VINA RESULT:      -7.7      2.717      5.409
REMARK  8 active torsions:
REMARK  status: ('A' for Active; 'I' for Inactive)
REMARK    1  A    between atoms: C1_2  and  O1_3 
REMARK    2  A    between atoms: C1_2  and  C9_11 
REMARK    3  A    between atoms: O1_3  and  C2_4 
REMARK    4  A    between atoms: C2_4  and  C3_5 
REMARK    5  A    between atoms: C10_13  and  C11_14 
REMARK    6  A    between atoms: C11_14  and  N1_15 
REMARK    7  A    between atoms: N1_15  and  C12_16 
REMARK    8  A    between atoms: C14_18  and  S1_19 
ROOT
HETATM    1  C11 UNL     1      20.760   0.949  51.009  1.00  0.00     0.150 C 
ENDROOT
BRANCH   1   2
HETATM    2  C10 UNL     1      21.406   1.170  49.703  1.00  0.00     0.017 C 
HETATM    3  C9  UNL     1      21.916   2.234  49.098  1.00  0.00     0.069 C 
HETATM    4 CL1  UNL     1      22.603   2.068  47.496  1.00  0.00    -0.084 Cl
BRANCH   3   5
HETATM    5  C1  UNL     1      22.008   3.640  49.572  1.00  0.00     0.352 C 
HETATM    6  F1  UNL     1      20.820   4.199  49.923  1.00  0.00    -0.213 F 
BRANCH   5   7
HETATM    7  O1  UNL     1      22.941   3.645  50.634  1.00  0.00    -0.347 OA
BRANCH   7   8
HETATM    8  C2  UNL     1      23.516   4.920  50.585  1.00  0.00     0.210 C 
BRANCH   8   9
HETATM    9  C3  UNL     1      24.850   4.923  49.936  1.00  0.00    -0.035 A 
HETATM   10  C4  UNL     1      25.608   3.764  49.971  1.00  0.00     0.009 A 
HETATM   11  C5  UNL     1      26.865   3.735  49.371  1.00  0.00     0.001 A 
HETATM   12  C6  UNL     1      27.307   4.890  48.755  1.00  0.00     0.000 A 
HETATM   13  C7  UNL     1      26.608   6.078  48.683  1.00  0.00     0.001 A 
HETATM   14  C8  UNL     1      25.357   6.037  49.304  1.00  0.00     0.009 A 
ENDBRANCH   8   9
ENDBRANCH   7   8
ENDBRANCH   5   7
ENDBRANCH   3   5
ENDBRANCH   1   2
BRANCH   1  15
HETATM   15  N1  UNL     1      21.338   1.740  52.076  1.00  0.00    -0.371 N 
HETATM   16  H12 UNL     1      21.466   2.739  52.362  1.00  0.00     0.161 HD
BRANCH  15  17
HETATM   17  C12 UNL     1      21.886   0.770  52.978  1.00  0.00     0.127 A 
HETATM   18  C13 UNL     1      23.259   0.661  52.837  1.00  0.00     0.088 A 
HETATM   19  C14 UNL     1      24.012  -0.229  53.611  1.00  0.00     0.093 A 
HETATM   20  N2  UNL     1      23.310  -0.973  54.503  1.00  0.00    -0.235 NA
HETATM   21  C20 UNL     1      21.956  -0.854  54.629  1.00  0.00     0.236 A 
HETATM   22  N3  UNL     1      21.240   0.009  53.877  1.00  0.00    -0.225 NA
BRANCH  19  23
HETATM   23  S1  UNL     1      25.799  -0.371  53.445  1.00  0.00    -0.129 SA
HETATM   24  C15 UNL     1      26.375   0.219  52.051  1.00  0.00     0.013 C 
HETATM   25  C16 UNL     1      27.086   1.309  52.208  1.00  0.00     0.019 C 
HETATM   26  C17 UNL     1      28.174   1.333  53.208  1.00  0.00    -0.002 C 
HETATM   27  C18 UNL     1      27.982   0.793  54.394  1.00  0.00    -0.017 C 
HETATM   28  C19 UNL     1      26.774   0.127  54.906  1.00  0.00     0.102 C 
ENDBRANCH  19  23
ENDBRANCH  15  17
ENDBRANCH   1  15
TORSDOF 8
ENDMDL
MODEL 5
REMARK VINA RESULT:      -7.6      5.578      8.734
REMARK  8 active torsions:
REMARK  status: ('A' for Active; 'I' for Inactive)
REMARK    1  A    between atoms: C1_2  and  O1_3 
REMARK    2  A    between atoms: C1_2  and  C9_11 
REMARK    3  A    between atoms: O1_3  and  C2_4 
REMARK    4  A    between atoms: C2_4  and  C3_5 
REMARK    5  A    between atoms: C10_13  and  C11_14 
REMARK    6  A    between atoms: C11_14  and  N1_15 
REMARK    7  A    between atoms: N1_15  and  C12_16 
REMARK    8  A    between atoms: C14_18  and  S1_19 
ROOT
HETATM    1  C11 UNL     1      27.250   5.829  48.407  1.00  0.00     0.150 C 
ENDROOT
BRANCH   1   2
HETATM    2  C10 UNL     1      26.151   5.609  49.365  1.00  0.00     0.017 C 
HETATM    3  C9  UNL     1      25.707   4.549  50.025  1.00  0.00     0.069 C 
HETATM    4 CL1  UNL     1      24.328   4.714  51.092  1.00  0.00    -0.084 Cl
BRANCH   3   5
HETATM    5  C1  UNL     1      26.205   3.148  50.014  1.00  0.00     0.352 C 
HETATM    6  F1  UNL     1      26.877   2.793  48.887  1.00  0.00    -0.213 F 
BRANCH   5   7
HETATM    7  O1  UNL     1      26.990   2.992  51.180  1.00  0.00    -0.347 OA
BRANCH   7   8
HETATM    8  C2  UNL     1      26.421   1.895  51.837  1.00  0.00     0.210 C 
BRANCH   8   9
HETATM    9  C3  UNL     1      27.409   1.129  52.636  1.00  0.00    -0.035 A 
HETATM   10  C4  UNL     1      28.333   1.828  53.396  1.00  0.00     0.009 A 
HETATM   11  C5  UNL     1      29.274   1.138  54.157  1.00  0.00     0.001 A 
HETATM   12  C6  UNL     1      29.240  -0.243  54.118  1.00  0.00     0.000 A 
HETATM   13  C7  UNL     1      28.351  -1.002  53.385  1.00  0.00     0.001 A 
HETATM   14  C8  UNL     1      27.436  -0.248  52.646  1.00  0.00     0.009 A 
ENDBRANCH   8   9
ENDBRANCH   7   8
ENDBRANCH   5   7
ENDBRANCH   3   5
ENDBRANCH   1   2
BRANCH   1  15
HETATM   15  N1  UNL     1      28.561   5.584  48.972  1.00  0.00    -0.371 N 
HETATM   16  H12 UNL     1      29.025   5.019  49.721  1.00  0.00     0.161 HD
BRANCH  15  17
HETATM   17  C12 UNL     1      29.438   6.420  48.204  1.00  0.00     0.127 A 
HETATM   18  C13 UNL     1      30.589   5.745  47.834  1.00  0.00     0.088 A 
HETATM   19  C14 UNL     1      31.596   6.361  47.083  1.00  0.00     0.093 A 
HETATM   20  N2  UNL     1      31.369   7.656  46.744  1.00  0.00    -0.235 NA
HETATM   21  C20 UNL     1      30.229   8.306  47.117  1.00  0.00     0.236 A 
HETATM   22  N3  UNL     1      29.264   7.701  47.842  1.00  0.00    -0.225 NA
BRANCH  19  23
HETATM   23  S1  UNL     1      33.091   5.491  46.586  1.00  0.00    -0.129 SA
HETATM   24  C15 UNL     1      34.353   5.745  47.569  1.00  0.00     0.013 C 
HETATM   25  C16 UNL     1      34.692   4.683  48.258  1.00  0.00     0.019 C 
HETATM   26  C17 UNL     1      34.898   3.396  47.560  1.00  0.00    -0.002 C 
HETATM   27  C18 UNL     1      34.058   3.023  46.616  1.00  0.00    -0.017 C 
HETATM   28  C19 UNL     1      32.873   3.739  46.119  1.00  0.00     0.102 C 
ENDBRANCH  19  23
ENDBRANCH  15  17
ENDBRANCH   1  15
TORSDOF 8
ENDMDL
MODEL 6
REMARK VINA RESULT:      -7.5      2.884      5.348
REMARK  8 active torsions:
REMARK  status: ('A' for Active; 'I' for Inactive)
REMARK    1  A    between atoms: C1_2  and  O1_3 
REMARK    2  A    between atoms: C1_2  and  C9_11 
REMARK    3  A    between atoms: O1_3  and  C2_4 
REMARK    4  A    between atoms: C2_4  and  C3_5 
REMARK    5  A    between atoms: C10_13  and  C11_14 
REMARK    6  A    between atoms: C11_14  and  N1_15 
REMARK    7  A    between atoms: N1_15  and  C12_16 
REMARK    8  A    between atoms: C14_18  and  S1_19 
ROOT
HETATM    1  C11 UNL     1      26.365   2.362  51.703  1.00  0.00     0.150 C 
ENDROOT
BRANCH   1   2
HETATM    2  C10 UNL     1      27.525   2.364  52.612  1.00  0.00     0.017 C 
HETATM    3  C9  UNL     1      27.950   1.543  53.563  1.00  0.00     0.069 C 
HETATM    4 CL1  UNL     1      29.417   1.924  54.438  1.00  0.00    -0.084 Cl
BRANCH   3   5
HETATM    5  C1  UNL     1      27.354   0.272  54.052  1.00  0.00     0.352 C 
HETATM    6  F1  UNL     1      28.076  -0.359  55.015  1.00  0.00    -0.213 F 
BRANCH   5   7
HETATM    7  O1  UNL     1      26.042   0.582  54.479  1.00  0.00    -0.347 OA
BRANCH   7   8
HETATM    8  C2  UNL     1      25.377  -0.649  54.481  1.00  0.00     0.210 C 
BRANCH   8   9
HETATM    9  C3  UNL     1      23.938  -0.525  54.146  1.00  0.00    -0.035 A 
HETATM   10  C4  UNL     1      23.572   0.274  53.075  1.00  0.00     0.009 A 
HETATM   11  C5  UNL     1      22.228   0.412  52.734  1.00  0.00     0.001 A 
HETATM   12  C6  UNL     1      21.302  -0.272  53.498  1.00  0.00     0.000 A 
HETATM   13  C7  UNL     1      21.594  -1.083  54.576  1.00  0.00     0.001 A 
HETATM   14  C8  UNL     1      22.958  -1.176  54.862  1.00  0.00     0.009 A 
ENDBRANCH   8   9
ENDBRANCH   7   8
ENDBRANCH   5   7
ENDBRANCH   3   5
ENDBRANCH   1   2
BRANCH   1  15
HETATM   15  N1  UNL     1      26.729   2.491  50.307  1.00  0.00    -0.371 N 
HETATM   16  H12 UNL     1      27.380   2.074  49.601  1.00  0.00     0.161 HD
BRANCH  15  17
HETATM   17  C12 UNL     1      25.884   3.540  49.817  1.00  0.00     0.127 A 
HETATM   18  C13 UNL     1      24.574   3.115  49.677  1.00  0.00     0.088 A 
HETATM   19  C14 UNL     1      23.568   3.967  49.208  1.00  0.00     0.093 A 
HETATM   20  N2  UNL     1      23.961   5.230  48.902  1.00  0.00    -0.235 NA
HETATM   21  C20 UNL     1      25.257   5.633  49.046  1.00  0.00     0.236 A 
HETATM   22  N3  UNL     1      26.219   4.801  49.500  1.00  0.00    -0.225 NA
BRANCH  19  23
HETATM   23  S1  UNL     1      21.859   3.430  49.032  1.00  0.00    -0.129 SA
HETATM   24  C15 UNL     1      21.688   2.063  48.181  1.00  0.00     0.013 C 
HETATM   25  C16 UNL     1      21.295   1.047  48.909  1.00  0.00     0.019 C 
HETATM   26  C17 UNL     1      20.119   1.194  49.793  1.00  0.00    -0.002 C 
HETATM   27  C18 UNL     1      19.971   2.293  50.505  1.00  0.00    -0.017 C 
HETATM   28  C19 UNL     1      20.853   3.470  50.556  1.00  0.00     0.102 C 
ENDBRANCH  19  23
ENDBRANCH  15  17
ENDBRANCH   1  15
TORSDOF 8
ENDMDL
MODEL 7
REMARK VINA RESULT:      -7.4      1.924      4.359
REMARK  8 active torsions:
REMARK  status: ('A' for Active; 'I' for Inactive)
REMARK    1  A    between atoms: C1_2  and  O1_3 
REMARK    2  A    between atoms: C1_2  and  C9_11 
REMARK    3  A    between atoms: O1_3  and  C2_4 
REMARK    4  A    between atoms: C2_4  and  C3_5 
REMARK    5  A    between atoms: C10_13  and  C11_14 
REMARK    6  A    between atoms: C11_14  and  N1_15 
REMARK    7  A    between atoms: N1_15  and  C12_16 
REMARK    8  A    between atoms: C14_18  and  S1_19 
ROOT
HETATM    1  C11 UNL     1      24.904   2.354  53.922  1.00  0.00     0.150 C 
ENDROOT
BRANCH   1   2
HETATM    2  C10 UNL     1      26.308   1.905  53.969  1.00  0.00     0.017 C 
HETATM    3  C9  UNL     1      27.211   1.613  53.044  1.00  0.00     0.069 C 
HETATM    4 CL1  UNL     1      28.809   1.093  53.534  1.00  0.00    -0.084 Cl
BRANCH   3   5
HETATM    5  C1  UNL     1      27.094   1.646  51.562  1.00  0.00     0.352 C 
HETATM    6  F1  UNL     1      25.978   1.048  51.067  1.00  0.00    -0.213 F 
BRANCH   5   7
HETATM    7  O1  UNL     1      27.192   3.004  51.182  1.00  0.00    -0.347 OA
BRANCH   7   8
HETATM    8  C2  UNL     1      26.427   3.095  50.014  1.00  0.00     0.210 C 
BRANCH   8   9
HETATM    9  C3  UNL     1      26.523   4.425  49.366  1.00  0.00    -0.035 A 
HETATM   10  C4  UNL     1      27.738   4.814  48.826  1.00  0.00     0.009 A 
HETATM   11  C5  UNL     1      27.861   6.057  48.210  1.00  0.00     0.001 A 
HETATM   12  C6  UNL     1      26.740   6.863  48.166  1.00  0.00     0.000 A 
HETATM   13  C7  UNL     1      25.501   6.541  48.683  1.00  0.00     0.001 A 
HETATM   14  C8  UNL     1      25.448   5.282  49.285  1.00  0.00     0.009 A 
ENDBRANCH   8   9
ENDBRANCH   7   8
ENDBRANCH   5   7
ENDBRANCH   3   5
ENDBRANCH   1   2
BRANCH   1  15
HETATM   15  N1  UNL     1      24.736   3.642  53.279  1.00  0.00    -0.371 N 
HETATM   16  H12 UNL     1      25.203   4.576  53.208  1.00  0.00     0.161 HD
BRANCH  15  17
HETATM   17  C12 UNL     1      23.525   3.504  52.525  1.00  0.00     0.127 A 
HETATM   18  C13 UNL     1      23.010   2.222  52.619  1.00  0.00     0.088 A 
HETATM   19  C14 UNL     1      21.833   1.849  51.960  1.00  0.00     0.093 A 
HETATM   20  N2  UNL     1      21.234   2.823  51.228  1.00  0.00    -0.235 NA
HETATM   21  C20 UNL     1      21.756   4.082  51.146  1.00  0.00     0.236 A 
HETATM   22  N3  UNL     1      22.893   4.430  51.786  1.00  0.00    -0.225 NA
BRANCH  19  23
HETATM   23  S1  UNL     1      21.147   0.190  52.084  1.00  0.00    -0.129 SA
HETATM   24  C15 UNL     1      22.046  -0.825  52.969  1.00  0.00     0.013 C 
HETATM   25  C16 UNL     1      21.479  -1.163  54.101  1.00  0.00     0.019 C 
HETATM   26  C17 UNL     1      20.086  -1.656  54.101  1.00  0.00    -0.002 C 
HETATM   27  C18 UNL     1      19.182  -1.060  53.349  1.00  0.00    -0.017 C 
HETATM   28  C19 UNL     1      19.362   0.094  52.454  1.00  0.00     0.102 C 
ENDBRANCH  19  23
ENDBRANCH  15  17
ENDBRANCH   1  15
TORSDOF 8
ENDMDL
MODEL 8
REMARK VINA RESULT:      -7.3      3.391      7.137
REMARK  8 active torsions:
REMARK  status: ('A' for Active; 'I' for Inactive)
REMARK    1  A    between atoms: C1_2  and  O1_3 
REMARK    2  A    between atoms: C1_2  and  C9_11 
REMARK    3  A    between atoms: O1_3  and  C2_4 
REMARK    4  A    between atoms: C2_4  and  C3_5 
REMARK    5  A    between atoms: C10_13  and  C11_14 
REMARK    6  A    between atoms: C11_14  and  N1_15 
REMARK    7  A    between atoms: N1_15  and  C12_16 
REMARK    8  A    between atoms: C14_18  and  S1_19 
ROOT
HETATM    1  C11 UNL     1      26.374   1.890  51.983  1.00  0.00     0.150 C 
ENDROOT
BRANCH   1   2
HETATM    2  C10 UNL     1      27.504   1.013  52.341  1.00  0.00     0.017 C 
HETATM    3  C9  UNL     1      27.742   0.185  53.348  1.00  0.00     0.069 C 
HETATM    4 CL1  UNL     1      29.258  -0.689  53.405  1.00  0.00    -0.084 Cl
BRANCH   3   5
HETATM    5  C1  UNL     1      26.892  -0.148  54.521  1.00  0.00     0.352 C 
HETATM    6  F1  UNL     1      26.355   0.926  55.158  1.00  0.00    -0.213 F 
BRANCH   5   7
HETATM    7  O1  UNL     1      25.905  -1.049  54.058  1.00  0.00    -0.347 OA
BRANCH   7   8
HETATM    8  C2  UNL     1      24.853  -0.910  54.970  1.00  0.00     0.210 C 
BRANCH   8   9
HETATM    9  C3  UNL     1      23.539  -0.728  54.306  1.00  0.00    -0.035 A 
HETATM   10  C4  UNL     1      22.414  -1.274  54.902  1.00  0.00     0.009 A 
HETATM   11  C5  UNL     1      21.164  -1.121  54.305  1.00  0.00     0.001 A 
HETATM   12  C6  UNL     1      21.105  -0.416  53.119  1.00  0.00     0.000 A 
HETATM   13  C7  UNL     1      22.182   0.153  52.470  1.00  0.00     0.001 A 
HETATM   14  C8  UNL     1      23.402  -0.038  53.123  1.00  0.00     0.009 A 
ENDBRANCH   8   9
ENDBRANCH   7   8
ENDBRANCH   5   7
ENDBRANCH   3   5
ENDBRANCH   1   2
BRANCH   1  15
HETATM   15  N1  UNL     1      26.784   3.110  51.318  1.00  0.00    -0.371 N 
HETATM   16  H12 UNL     1      27.603   3.758  51.252  1.00  0.00     0.161 HD
BRANCH  15  17
HETATM   17  C12 UNL     1      25.650   3.474  50.520  1.00  0.00     0.127 A 
HETATM   18  C13 UNL     1      25.786   4.747  49.993  1.00  0.00     0.088 A 
HETATM   19  C14 UNL     1      24.799   5.321  49.184  1.00  0.00     0.093 A 
HETATM   20  N2  UNL     1      23.706   4.549  48.952  1.00  0.00    -0.235 NA
HETATM   21  C20 UNL     1      23.588   3.296  49.479  1.00  0.00     0.236 A 
HETATM   22  N3  UNL     1      24.548   2.753  50.259  1.00  0.00    -0.225 NA
BRANCH  19  23
HETATM   23  S1  UNL     1      24.970   6.970  48.485  1.00  0.00    -0.129 SA
HETATM   24  C15 UNL     1      24.363   8.144  49.421  1.00  0.00     0.013 C 
HETATM   25  C16 UNL     1      25.283   8.925  49.931  1.00  0.00     0.019 C 
HETATM   26  C17 UNL     1      26.307   9.520  49.046  1.00  0.00    -0.002 C 
HETATM   27  C18 UNL     1      26.866   8.783  48.107  1.00  0.00    -0.017 C 
HETATM   28  C19 UNL     1      26.608   7.371  47.785  1.00  0.00     0.102 C 
ENDBRANCH  19  23
ENDBRANCH  15  17
ENDBRANCH   1  15
TORSDOF 8
ENDMDL
MODEL 9
REMARK VINA RESULT:      -7.2      5.204      8.501
REMARK  8 active torsions:
REMARK  status: ('A' for Active; 'I' for Inactive)
REMARK    1  A    between atoms: C1_2  and  O1_3 
REMARK    2  A    between atoms: C1_2  and  C9_11 
REMARK    3  A    between atoms: O1_3  and  C2_4 
REMARK    4  A    between atoms: C2_4  and  C3_5 
REMARK    5  A    between atoms: C10_13  and  C11_14 
REMARK    6  A    between atoms: C11_14  and  N1_15 
REMARK    7  A    between atoms: N1_15  and  C12_16 
REMARK    8  A    between atoms: C14_18  and  S1_19 
ROOT
HETATM    1  C11 UNL     1      26.724   6.758  49.125  1.00  0.00     0.150 C 
ENDROOT
BRANCH   1   2
HETATM    2  C10 UNL     1      25.446   6.043  48.956  1.00  0.00     0.017 C 
HETATM    3  C9  UNL     1      25.077   4.777  49.086  1.00  0.00     0.069 C 
HETATM    4 CL1  UNL     1      23.413   4.328  48.776  1.00  0.00    -0.084 Cl
BRANCH   3   5
HETATM    5  C1  UNL     1      25.884   3.590  49.471  1.00  0.00     0.352 C 
HETATM    6  F1  UNL     1      27.169   3.609  49.027  1.00  0.00    -0.213 F 
BRANCH   5   7
HETATM    7  O1  UNL     1      25.802   3.487  50.878  1.00  0.00    -0.347 OA
BRANCH   7   8
HETATM    8  C2  UNL     1      26.709   2.474  51.207  1.00  0.00     0.210 C 
BRANCH   8   9
HETATM    9  C3  UNL     1      26.080   1.360  51.956  1.00  0.00    -0.035 A 
HETATM   10  C4  UNL     1      24.791   1.526  52.434  1.00  0.00     0.009 A 
HETATM   11  C5  UNL     1      24.171   0.498  53.142  1.00  0.00     0.001 A 
HETATM   12  C6  UNL     1      24.888  -0.666  53.339  1.00  0.00     0.000 A 
HETATM   13  C7  UNL     1      26.173  -0.900  52.893  1.00  0.00     0.001 A 
HETATM   14  C8  UNL     1      26.734   0.170  52.191  1.00  0.00     0.009 A 
ENDBRANCH   8   9
ENDBRANCH   7   8
ENDBRANCH   5   7
ENDBRANCH   3   5
ENDBRANCH   1   2
BRANCH   1  15
HETATM   15  N1  UNL     1      27.450   6.936  47.884  1.00  0.00    -0.371 N 
HETATM   16  H12 UNL     1      27.302   6.892  46.849  1.00  0.00     0.161 HD
BRANCH  15  17
HETATM   17  C12 UNL     1      28.778   7.280  48.299  1.00  0.00     0.127 A 
HETATM   18  C13 UNL     1      29.654   6.220  48.133  1.00  0.00     0.088 A 
HETATM   19  C14 UNL     1      31.007   6.320  48.475  1.00  0.00     0.093 A 
HETATM   20  N2  UNL     1      31.401   7.518  48.978  1.00  0.00    -0.235 NA
HETATM   21  C20 UNL     1      30.524   8.553  49.136  1.00  0.00     0.236 A 
HETATM   22  N3  UNL     1      29.220   8.444  48.801  1.00  0.00    -0.225 NA
BRANCH  19  23
HETATM   23  S1  UNL     1      32.157   4.953  48.253  1.00  0.00    -0.129 SA
HETATM   24  C15 UNL     1      31.814   4.010  46.983  1.00  0.00     0.013 C 
HETATM   25  C16 UNL     1      32.691   4.108  46.015  1.00  0.00     0.019 C 
HETATM   26  C17 UNL     1      34.132   3.972  46.319  1.00  0.00    -0.002 C 
HETATM   27  C18 UNL     1      34.631   4.557  47.389  1.00  0.00    -0.017 C 
HETATM   28  C19 UNL     1      33.928   5.376  48.390  1.00  0.00     0.102 C 
ENDBRANCH  19  23
ENDBRANCH  15  17
ENDBRANCH   1  15
TORSDOF 8
ENDMDL
