MODEL 1
REMARK VINA RESULT:      -8.0      0.000      0.000
REMARK  5 active torsions:
REMARK  status: ('A' for Active; 'I' for Inactive)
REMARK    1  A    between atoms: C1_2  and  C2_3 
REMARK       I    between atoms: C1_2  and  N1_11 
REMARK    2  A    between atoms: C2_3  and  C3_4 
REMARK    3  A    between atoms: N1_11  and  S1_12 
REMARK    4  A    between atoms: S1_12  and  C9_15 
REMARK    5  A    between atoms: C13_20  and  P1_21 
ROOT
HETATM    1  O1  UNL     1      26.147  -1.351  53.643  1.00  0.00    -0.272 OA
HETATM    2  C1  UNL     1      25.454  -0.864  54.553  1.00  0.00     0.235 C 
HETATM    3  N1  UNL     1      26.176   0.223  55.049  1.00  0.00    -0.253 N 
HETATM    4  H7  UNL     1      25.937   0.908  55.829  1.00  0.00     0.181 HD
ENDROOT
BRANCH   3   5
HETATM    5  S1  UNL     1      27.673   0.460  54.242  1.00  0.00     0.248 S 
HETATM    6  O2  UNL     1      28.485  -0.831  54.226  1.00  0.00    -0.204 OA
HETATM    7  O3  UNL     1      28.579   1.439  54.991  1.00  0.00    -0.204 OA
BRANCH   5   8
HETATM    8  C9  UNL     1      27.526   1.136  52.731  1.00  0.00     0.134 A 
HETATM    9  C10 UNL     1      26.042   2.060  52.973  1.00  0.00     0.054 A 
HETATM   10  C11 UNL     1      25.283   3.100  51.609  1.00  0.00     0.064 A 
HETATM   11  P1  UNL     1      26.561   2.387  51.185  1.00  0.00    -0.088 P 
HETATM   12  C12 UNL     1      25.639   3.524  49.861  1.00  0.00     0.069 A 
HETATM   13  C13 UNL     1      26.096   2.968  50.498  1.00  0.00    -0.049 A 
HETATM   14 BR2  UNL     1      24.080   4.415  50.310  1.00  0.00    -0.075 Br
HETATM   15  H10 UNL     1      26.743   2.163  51.444  1.00  0.00     0.055 HD
ENDBRANCH   5   8
ENDBRANCH   3   5
BRANCH   2  16
HETATM   16  C2  UNL     1      24.151  -1.128  55.204  1.00  0.00     0.142 C 
BRANCH  16  17
HETATM   17  C3  UNL     1      22.989  -0.701  54.376  1.00  0.00    -0.049 A 
HETATM   18  C4  UNL     1      22.831   0.262  53.415  1.00  0.00     0.009 A 
HETATM   19  C5  UNL     1      21.602   0.415  52.810  1.00  0.00     0.019 A 
HETATM   20  C6  UNL     1      20.538  -0.382  53.156  1.00  0.00     0.011 A 
HETATM   21 BR1  UNL     1      18.848  -0.099  52.265  1.00  0.00    -0.051 Br
HETATM   22  C7  UNL     1      20.628  -1.388  54.129  1.00  0.00     0.019 A 
HETATM   23  C8  UNL     1      21.896  -1.509  54.720  1.00  0.00     0.009 A 
ENDBRANCH  16  17
ENDBRANCH   2  16
TORSDOF 5
ENDMDL
MODEL 2
REMARK VINA RESULT:      -7.8      4.164      6.700
REMARK  5 active torsions:
REMARK  status: ('A' for Active; 'I' for Inactive)
REMARK    1  A    between atoms: C1_2  and  C2_3 
REMARK       I    between atoms: C1_2  and  N1_11 
REMARK    2  A    between atoms: C2_3  and  C3_4 
REMARK    3  A    between atoms: N1_11  and  S1_12 
REMARK    4  A    between atoms: S1_12  and  C9_15 
REMARK    5  A    between atoms: C13_20  and  P1_21 
ROOT
HETATM    1  O1  UNL     1      23.570   2.621  52.732  1.00  0.00    -0.272 OA
HETATM    2  C1  UNL     1      23.332   2.390  51.534  1.00  0.00     0.235 C 
HETATM    3  N1  UNL     1      23.036   1.028  51.455  1.00  0.00    -0.253 N 
HETATM    4  H7  UNL     1      22.777   0.430  50.613  1.00  0.00     0.181 HD
ENDROOT
BRANCH   3   5
HETATM    5  S1  UNL     1      23.107   0.236  52.976  1.00  0.00     0.248 S 
HETATM    6  O2  UNL     1      22.818  -1.253  52.821  1.00  0.00    -0.204 OA
HETATM    7  O3  UNL     1      22.004   0.714  53.923  1.00  0.00    -0.204 OA
BRANCH   5   8
HETATM    8  C9  UNL     1      24.507   0.526  53.823  1.00  0.00     0.134 A 
HETATM    9  C10 UNL     1      25.618  -0.485  52.896  1.00  0.00     0.054 A 
HETATM   10  C11 UNL     1      27.437  -0.623  53.332  1.00  0.00     0.064 A 
HETATM   11  P1  UNL     1      26.661   0.302  54.262  1.00  0.00    -0.088 P 
HETATM   12  C12 UNL     1      28.591   0.049  54.589  1.00  0.00     0.069 A 
HETATM   13  C13 UNL     1      27.650   0.179  54.439  1.00  0.00    -0.049 A 
HETATM   14 BR2  UNL     1      29.592  -1.063  53.499  1.00  0.00    -0.075 Br
HETATM   15  H10 UNL     1      26.282   0.353  54.200  1.00  0.00     0.055 HD
ENDBRANCH   5   8
ENDBRANCH   3   5
BRANCH   2  16
HETATM   16  C2  UNL     1      23.291   3.138  50.256  1.00  0.00     0.142 C 
BRANCH  16  17
HETATM   17  C3  UNL     1      24.625   3.648  49.838  1.00  0.00    -0.049 A 
HETATM   18  C4  UNL     1      25.882   3.102  49.854  1.00  0.00     0.009 A 
HETATM   19  C5  UNL     1      26.944   3.842  49.382  1.00  0.00     0.019 A 
HETATM   20  C6  UNL     1      26.762   5.116  48.899  1.00  0.00     0.011 A 
HETATM   21 BR1  UNL     1      28.305   6.087  48.263  1.00  0.00    -0.051 Br
HETATM   22  C7  UNL     1      25.506   5.737  48.852  1.00  0.00     0.019 A 
HETATM   23  C8  UNL     1      24.452   4.948  49.342  1.00  0.00     0.009 A 
ENDBRANCH  16  17
ENDBRANCH   2  16
TORSDOF 5
ENDMDL
MODEL 3
REMARK VINA RESULT:      -7.5      3.138      7.561
REMARK  5 active torsions:
REMARK  status: ('A' for Active; 'I' for Inactive)
REMARK    1  A    between atoms: C1_2  and  C2_3 
REMARK       I    between atoms: C1_2  and  N1_11 
REMARK    2  A    between atoms: C2_3  and  C3_4 
REMARK    3  A    between atoms: N1_11  and  S1_12 
REMARK    4  A    between atoms: S1_12  and  C9_15 
REMARK    5  A    between atoms: C13_20  and  P1_21 
ROOT
HETATM    1  O1  UNL     1      27.190   2.721  51.244  1.00  0.00    -0.272 OA
HETATM    2  C1  UNL     1      26.098   2.928  50.688  1.00  0.00     0.235 C 
HETATM    3  N1  UNL     1      25.163   2.149  51.373  1.00  0.00    -0.253 N 
HETATM    4  H7  UNL     1      24.115   2.038  51.216  1.00  0.00     0.181 HD
ENDROOT
BRANCH   3   5
HETATM    5  S1  UNL     1      25.852   1.252  52.663  1.00  0.00     0.248 S 
HETATM    6  O2  UNL     1      26.532   2.182  53.663  1.00  0.00    -0.204 OA
HETATM    7  O3  UNL     1      26.992   0.349  52.189  1.00  0.00    -0.204 OA
BRANCH   5   8
HETATM    8  C9  UNL     1      24.794   0.199  53.394  1.00  0.00     0.134 A 
HETATM    9  C10 UNL     1      23.282   0.780  52.694  1.00  0.00     0.054 A 
HETATM   10  C11 UNL     1      21.628   0.000  53.112  1.00  0.00     0.064 A 
HETATM   11  P1  UNL     1      22.803  -0.656  53.827  1.00  0.00    -0.088 P 
HETATM   12  C12 UNL     1      20.990  -1.363  54.161  1.00  0.00     0.069 A 
HETATM   13  C13 UNL     1      21.878  -1.026  54.005  1.00  0.00    -0.049 A 
HETATM   14 BR2  UNL     1      19.519  -0.610  53.327  1.00  0.00    -0.075 Br
HETATM   15  H10 UNL     1      23.160  -0.519  53.763  1.00  0.00     0.055 HD
ENDBRANCH   5   8
ENDBRANCH   3   5
BRANCH   2  16
HETATM   16  C2  UNL     1      25.572   3.729  49.559  1.00  0.00     0.142 C 
BRANCH  16  17
HETATM   17  C3  UNL     1      26.521   4.779  49.099  1.00  0.00    -0.049 A 
HETATM   18  C4  UNL     1      27.805   4.733  48.620  1.00  0.00     0.009 A 
HETATM   19  C5  UNL     1      28.433   5.907  48.263  1.00  0.00     0.019 A 
HETATM   20  C6  UNL     1      27.793   7.117  48.380  1.00  0.00     0.011 A 
HETATM   21 BR1  UNL     1      28.746   8.715  47.864  1.00  0.00    -0.051 Br
HETATM   22  C7  UNL     1      26.481   7.239  48.861  1.00  0.00     0.019 A 
HETATM   23  C8  UNL     1      25.879   6.020  49.213  1.00  0.00     0.009 A 
ENDBRANCH  16  17
ENDBRANCH   2  16
TORSDOF 5
ENDMDL
MODEL 4
REMARK VINA RESULT:      -7.4      4.392      5.597
REMARK  5 active torsions:
REMARK  status: ('A' for Active; 'I' for Inactive)
REMARK    1  A    between atoms: C1_2  and  C2_3 
REMARK       I    between atoms: C1_2  and  N1_11 
REMARK    2  A    between atoms: C2_3  and  C3_4 
REMARK    3  A    between atoms: N1_11  and  S1_12 
REMARK    4  A    between atoms: S1_12  and  C9_15 
REMARK    5  A    between atoms: C13_20  and  P1_21 
ROOT
HETATM    1  O1  UNL     1      22.399   0.796  51.466  1.00  0.00    -0.272 OA
HETATM    2  C1  UNL     1      23.254   1.015  52.342  1.00  0.00     0.235 C 
HETATM    3  N1  UNL     1      23.774   2.281  52.066  1.00  0.00    -0.253 N 
HETATM    4  H7  UNL     1      24.525   2.840  52.573  1.00  0.00     0.181 HD
ENDROOT
BRANCH   3   5
HETATM    5  S1  UNL     1      23.059   3.014  50.688  1.00  0.00     0.248 S 
HETATM    6  O2  UNL     1      21.579   3.287  50.931  1.00  0.00    -0.204 OA
HETATM    7  O3  UNL     1      23.053   2.077  49.478  1.00  0.00    -0.204 OA
BRANCH   5   8
HETATM    8  C9  UNL     1      23.871   4.357  50.141  1.00  0.00     0.134 A 
HETATM    9  C10 UNL     1      25.428   3.618  49.762  1.00  0.00     0.054 A 
HETATM   10  C11 UNL     1      26.861   4.613  49.074  1.00  0.00     0.064 A 
HETATM   11  P1  UNL     1      25.613   5.449  49.329  1.00  0.00    -0.088 P 
HETATM   12  C12 UNL     1      27.211   6.351  48.604  1.00  0.00     0.069 A 
HETATM   13  C13 UNL     1      26.427   5.921  48.957  1.00  0.00    -0.049 A 
HETATM   14 BR2  UNL     1      28.762   5.395  48.274  1.00  0.00    -0.075 Br
HETATM   15  H10 UNL     1      25.298   5.273  49.471  1.00  0.00     0.055 HD
ENDBRANCH   5   8
ENDBRANCH   3   5
BRANCH   2  16
HETATM   16  C2  UNL     1      23.827   0.322  53.518  1.00  0.00     0.142 C 
BRANCH  16  17
HETATM   17  C3  UNL     1      25.261  -0.038  53.340  1.00  0.00    -0.049 A 
HETATM   18  C4  UNL     1      25.942  -0.705  52.356  1.00  0.00     0.009 A 
HETATM   19  C5  UNL     1      27.303  -0.880  52.478  1.00  0.00     0.019 A 
HETATM   20  C6  UNL     1      27.984  -0.398  53.569  1.00  0.00     0.011 A 
HETATM   21 BR1  UNL     1      29.890  -0.691  53.666  1.00  0.00    -0.051 Br
HETATM   22  C7  UNL     1      27.353   0.294  54.613  1.00  0.00     0.019 A 
HETATM   23  C8  UNL     1      25.968   0.450  54.448  1.00  0.00     0.009 A 
ENDBRANCH  16  17
ENDBRANCH   2  16
TORSDOF 5
ENDMDL
MODEL 5
REMARK VINA RESULT:      -7.4      4.610      7.480
REMARK  5 active torsions:
REMARK  status: ('A' for Active; 'I' for Inactive)
REMARK    1  A    between atoms: C1_2  and  C2_3 
REMARK       I    between atoms: C1_2  and  N1_11 
REMARK    2  A    between atoms: C2_3  and  C3_4 
REMARK    3  A    between atoms: N1_11  and  S1_12 
REMARK    4  A    between atoms: S1_12  and  C9_15 
REMARK    5  A    between atoms: C13_20  and  P1_21 
ROOT
HETATM    1  O1  UNL     1      24.270   3.988  51.795  1.00  0.00    -0.272 OA
HETATM    2  C1  UNL     1      24.169   3.601  50.619  1.00  0.00     0.235 C 
HETATM    3  N1  UNL     1      23.851   2.243  50.685  1.00  0.00    -0.253 N 
HETATM    4  H7  UNL     1      23.679   1.539  49.905  1.00  0.00     0.181 HD
ENDROOT
BRANCH   3   5
HETATM    5  S1  UNL     1      23.723   1.661  52.295  1.00  0.00     0.248 S 
HETATM    6  O2  UNL     1      23.118   0.262  52.315  1.00  0.00    -0.204 OA
HETATM    7  O3  UNL     1      22.737   2.486  53.125  1.00  0.00    -0.204 OA
BRANCH   5   8
HETATM    8  C9  UNL     1      25.139   1.753  53.160  1.00  0.00     0.134 A 
HETATM    9  C10 UNL     1      25.956   0.323  52.527  1.00  0.00     0.054 A 
HETATM   10  C11 UNL     1      27.669  -0.182  53.102  1.00  0.00     0.064 A 
HETATM   11  P1  UNL     1      27.152   1.083  53.778  1.00  0.00    -0.088 P 
HETATM   12  C12 UNL     1      28.943   0.419  54.276  1.00  0.00     0.069 A 
HETATM   13  C13 UNL     1      28.072   0.751  54.041  1.00  0.00    -0.049 A 
HETATM   14 BR2  UNL     1      29.629  -1.113  53.496  1.00  0.00    -0.075 Br
HETATM   15  H10 UNL     1      26.801   1.215  53.682  1.00  0.00     0.055 HD
ENDBRANCH   5   8
ENDBRANCH   3   5
BRANCH   2  16
HETATM   16  C2  UNL     1      24.297   4.170  49.257  1.00  0.00     0.142 C 
BRANCH  16  17
HETATM   17  C3  UNL     1      25.648   4.734  48.988  1.00  0.00    -0.049 A 
HETATM   18  C4  UNL     1      26.907   4.195  49.009  1.00  0.00     0.009 A 
HETATM   19  C5  UNL     1      27.988   4.992  48.699  1.00  0.00     0.019 A 
HETATM   20  C6  UNL     1      27.820   6.316  48.371  1.00  0.00     0.011 A 
HETATM   21 BR1  UNL     1      29.387   7.365  47.956  1.00  0.00    -0.051 Br
HETATM   22  C7  UNL     1      26.562   6.934  48.328  1.00  0.00     0.019 A 
HETATM   23  C8  UNL     1      25.490   6.086  48.650  1.00  0.00     0.009 A 
ENDBRANCH  16  17
ENDBRANCH   2  16
TORSDOF 5
ENDMDL
MODEL 6
REMARK VINA RESULT:      -7.4      4.907      6.152
REMARK  5 active torsions:
REMARK  status: ('A' for Active; 'I' for Inactive)
REMARK    1  A    between atoms: C1_2  and  C2_3 
REMARK       I    between atoms: C1_2  and  N1_11 
REMARK    2  A    between atoms: C2_3  and  C3_4 
REMARK    3  A    between atoms: N1_11  and  S1_12 
REMARK    4  A    between atoms: S1_12  and  C9_15 
REMARK    5  A    between atoms: C13_20  and  P1_21 
ROOT
HETATM    1  O1  UNL     1      23.237   2.320  51.062  1.00  0.00    -0.272 OA
HETATM    2  C1  UNL     1      24.028   2.609  51.976  1.00  0.00     0.235 C 
HETATM    3  N1  UNL     1      24.679   3.775  51.568  1.00  0.00    -0.253 N 
HETATM    4  H7  UNL     1      25.429   4.350  52.059  1.00  0.00     0.181 HD
ENDROOT
BRANCH   3   5
HETATM    5  S1  UNL     1      24.154   4.336  50.033  1.00  0.00     0.248 S 
HETATM    6  O2  UNL     1      22.709   4.817  50.102  1.00  0.00    -0.204 OA
HETATM    7  O3  UNL     1      24.104   3.210  48.998  1.00  0.00    -0.204 OA
BRANCH   5   8
HETATM    8  C9  UNL     1      25.165   5.460  49.343  1.00  0.00     0.134 A 
HETATM    9  C10 UNL     1      26.647   4.505  49.266  1.00  0.00     0.054 A 
HETATM   10  C11 UNL     1      28.242   5.198  48.565  1.00  0.00     0.064 A 
HETATM   11  P1  UNL     1      27.088   6.191  48.535  1.00  0.00    -0.088 P 
HETATM   12  C12 UNL     1      28.839   6.769  47.831  1.00  0.00     0.069 A 
HETATM   13  C13 UNL     1      27.981   6.498  48.171  1.00  0.00    -0.049 A 
HETATM   14 BR2  UNL     1      30.284   5.613  47.840  1.00  0.00    -0.075 Br
HETATM   15  H10 UNL     1      26.743   6.080  48.673  1.00  0.00     0.055 HD
ENDBRANCH   5   8
ENDBRANCH   3   5
BRANCH   2  16
HETATM   16  C2  UNL     1      24.434   2.067  53.293  1.00  0.00     0.142 C 
BRANCH  16  17
HETATM   17  C3  UNL     1      25.610   1.158  53.211  1.00  0.00    -0.049 A 
HETATM   18  C4  UNL     1      25.796  -0.080  52.654  1.00  0.00     0.009 A 
HETATM   19  C5  UNL     1      27.035  -0.678  52.740  1.00  0.00     0.019 A 
HETATM   20  C6  UNL     1      28.081  -0.053  53.374  1.00  0.00     0.011 A 
HETATM   21 BR1  UNL     1      29.782  -0.962  53.457  1.00  0.00    -0.051 Br
HETATM   22  C7  UNL     1      27.963   1.214  53.965  1.00  0.00     0.019 A 
HETATM   23  C8  UNL     1      26.685   1.786  53.854  1.00  0.00     0.009 A 
ENDBRANCH  16  17
ENDBRANCH   2  16
TORSDOF 5
ENDMDL
MODEL 7
REMARK VINA RESULT:      -7.2      4.971      8.255
REMARK  5 active torsions:
REMARK  status: ('A' for Active; 'I' for Inactive)
REMARK    1  A    between atoms: C1_2  and  C2_3 
REMARK       I    between atoms: C1_2  and  N1_11 
REMARK    2  A    between atoms: C2_3  and  C3_4 
REMARK    3  A    between atoms: N1_11  and  S1_12 
REMARK    4  A    between atoms: S1_12  and  C9_15 
REMARK    5  A    between atoms: C13_20  and  P1_21 
ROOT
HETATM    1  O1  UNL     1      23.718   4.233  49.526  1.00  0.00    -0.272 OA
HETATM    2  C1  UNL     1      24.558   5.062  49.915  1.00  0.00     0.235 C 
HETATM    3  N1  UNL     1      24.958   4.639  51.185  1.00  0.00    -0.253 N 
HETATM    4  H7  UNL     1      25.661   5.067  51.861  1.00  0.00     0.181 HD
ENDROOT
BRANCH   3   5
HETATM    5  S1  UNL     1      24.172   3.200  51.692  1.00  0.00     0.248 S 
HETATM    6  O2  UNL     1      23.934   2.271  50.506  1.00  0.00    -0.204 OA
HETATM    7  O3  UNL     1      22.761   3.473  52.217  1.00  0.00    -0.204 OA
BRANCH   5   8
HETATM    8  C9  UNL     1      24.922   2.432  52.960  1.00  0.00     0.134 A 
HETATM    9  C10 UNL     1      26.338   1.801  52.116  1.00  0.00     0.054 A 
HETATM   10  C11 UNL     1      27.654   0.794  52.995  1.00  0.00     0.064 A 
HETATM   11  P1  UNL     1      26.521   1.238  53.911  1.00  0.00    -0.088 P 
HETATM   12  C12 UNL     1      27.987   0.168  54.687  1.00  0.00     0.069 A 
HETATM   13  C13 UNL     1      27.267   0.690  54.319  1.00  0.00    -0.049 A 
HETATM   14 BR2  UNL     1      29.392  -0.407  53.628  1.00  0.00    -0.075 Br
HETATM   15  H10 UNL     1      26.232   1.449  53.761  1.00  0.00     0.055 HD
ENDBRANCH   5   8
ENDBRANCH   3   5
BRANCH   2  16
HETATM   16  C2  UNL     1      25.197   6.300  49.414  1.00  0.00     0.142 C 
BRANCH  16  17
HETATM   17  C3  UNL     1      26.593   6.086  48.944  1.00  0.00    -0.049 A 
HETATM   18  C4  UNL     1      27.350   4.961  48.745  1.00  0.00     0.009 A 
HETATM   19  C5  UNL     1      28.643   5.090  48.287  1.00  0.00     0.019 A 
HETATM   20  C6  UNL     1      29.182   6.327  48.028  1.00  0.00     0.011 A 
HETATM   21 BR1  UNL     1      31.004   6.422  47.394  1.00  0.00    -0.051 Br
HETATM   22  C7  UNL     1      28.467   7.520  48.208  1.00  0.00     0.019 A 
HETATM   23  C8  UNL     1      27.155   7.342  48.676  1.00  0.00     0.009 A 
ENDBRANCH  16  17
ENDBRANCH   2  16
TORSDOF 5
ENDMDL
MODEL 8
REMARK VINA RESULT:      -7.0      4.715      8.166
REMARK  5 active torsions:
REMARK  status: ('A' for Active; 'I' for Inactive)
REMARK    1  A    between atoms: C1_2  and  C2_3 
REMARK       I    between atoms: C1_2  and  N1_11 
REMARK    2  A    between atoms: C2_3  and  C3_4 
REMARK    3  A    between atoms: N1_11  and  S1_12 
REMARK    4  A    between atoms: S1_12  and  C9_15 
REMARK    5  A    between atoms: C13_20  and  P1_21 
ROOT
HETATM    1  O1  UNL     1      25.215   3.087  49.271  1.00  0.00    -0.272 OA
HETATM    2  C1  UNL     1      26.136   3.838  49.636  1.00  0.00     0.235 C 
HETATM    3  N1  UNL     1      26.027   3.937  51.024  1.00  0.00    -0.253 N 
HETATM    4  H7  UNL     1      26.620   4.480  51.723  1.00  0.00     0.181 HD
ENDROOT
BRANCH   3   5
HETATM    5  S1  UNL     1      24.724   3.019  51.662  1.00  0.00     0.248 S 
HETATM    6  O2  UNL     1      23.462   3.228  50.833  1.00  0.00    -0.204 OA
HETATM    7  O3  UNL     1      24.315   3.497  53.057  1.00  0.00    -0.204 OA
BRANCH   5   8
HETATM    8  C9  UNL     1      25.077   1.410  51.886  1.00  0.00     0.134 A 
HETATM    9  C10 UNL     1      26.754   1.555  52.416  1.00  0.00     0.054 A 
HETATM   10  C11 UNL     1      27.793   0.056  52.853  1.00  0.00     0.064 A 
HETATM   11  P1  UNL     1      26.375  -0.297  52.420  1.00  0.00    -0.088 P 
HETATM   12  C12 UNL     1      27.596  -1.767  52.914  1.00  0.00     0.069 A 
HETATM   13  C13 UNL     1      26.993  -1.058  52.672  1.00  0.00    -0.049 A 
HETATM   14 BR2  UNL     1      29.333  -1.408  53.446  1.00  0.00    -0.075 Br
HETATM   15  H10 UNL     1      26.134  -0.010  52.323  1.00  0.00     0.055 HD
ENDBRANCH   5   8
ENDBRANCH   3   5
BRANCH   2  16
HETATM   16  C2  UNL     1      27.240   4.607  49.017  1.00  0.00     0.142 C 
BRANCH  16  17
HETATM   17  C3  UNL     1      26.807   5.935  48.503  1.00  0.00    -0.049 A 
HETATM   18  C4  UNL     1      25.589   6.561  48.439  1.00  0.00     0.009 A 
HETATM   19  C5  UNL     1      25.508   7.825  47.897  1.00  0.00     0.019 A 
HETATM   20  C6  UNL     1      26.628   8.466  47.423  1.00  0.00     0.011 A 
HETATM   21 BR1  UNL     1      26.428  10.234  46.674  1.00  0.00    -0.051 Br
HETATM   22  C7  UNL     1      27.905   7.887  47.458  1.00  0.00     0.019 A 
HETATM   23  C8  UNL     1      27.941   6.599  48.016  1.00  0.00     0.009 A 
ENDBRANCH  16  17
ENDBRANCH   2  16
TORSDOF 5
ENDMDL
MODEL 9
REMARK VINA RESULT:      -6.9      4.537      5.902
REMARK  5 active torsions:
REMARK  status: ('A' for Active; 'I' for Inactive)
REMARK    1  A    between atoms: C1_2  and  C2_3 
REMARK       I    between atoms: C1_2  and  N1_11 
REMARK    2  A    between atoms: C2_3  and  C3_4 
REMARK    3  A    between atoms: N1_11  and  S1_12 
REMARK    4  A    between atoms: S1_12  and  C9_15 
REMARK    5  A    between atoms: C13_20  and  P1_21 
ROOT
HETATM    1  O1  UNL     1      23.419   1.625  50.821  1.00  0.00    -0.272 OA
HETATM    2  C1  UNL     1      23.438   1.707  52.060  1.00  0.00     0.235 C 
HETATM    3  N1  UNL     1      22.946   2.976  52.371  1.00  0.00    -0.253 N 
HETATM    4  H7  UNL     1      22.799   3.443  53.317  1.00  0.00     0.181 HD
ENDROOT
BRANCH   3   5
HETATM    5  S1  UNL     1      22.519   3.889  50.982  1.00  0.00     0.248 S 
HETATM    6  O2  UNL     1      21.561   5.016  51.352  1.00  0.00    -0.204 OA
HETATM    7  O3  UNL     1      21.719   3.060  49.975  1.00  0.00    -0.204 OA
BRANCH   5   8
HETATM    8  C9  UNL     1      23.822   4.427  50.102  1.00  0.00     0.134 A 
HETATM    9  C10 UNL     1      24.081   5.983  50.894  1.00  0.00     0.054 A 
HETATM   10  C11 UNL     1      25.451   7.151  50.369  1.00  0.00     0.064 A 
HETATM   11  P1  UNL     1      25.408   5.865  49.553  1.00  0.00    -0.088 P 
HETATM   12  C12 UNL     1      26.797   7.201  49.124  1.00  0.00     0.069 A 
HETATM   13  C13 UNL     1      26.124   6.543  49.325  1.00  0.00    -0.049 A 
HETATM   14 BR2  UNL     1      26.903   8.786  50.075  1.00  0.00    -0.075 Br
HETATM   15  H10 UNL     1      25.136   5.602  49.636  1.00  0.00     0.055 HD
ENDBRANCH   5   8
ENDBRANCH   3   5
BRANCH   2  16
HETATM   16  C2  UNL     1      23.827   0.863  53.214  1.00  0.00     0.142 C 
BRANCH  16  17
HETATM   17  C3  UNL     1      25.303   0.747  53.377  1.00  0.00    -0.049 A 
HETATM   18  C4  UNL     1      26.260   1.603  53.854  1.00  0.00     0.009 A 
HETATM   19  C5  UNL     1      27.576   1.193  53.883  1.00  0.00     0.019 A 
HETATM   20  C6  UNL     1      27.939  -0.056  53.442  1.00  0.00     0.011 A 
HETATM   21 BR1  UNL     1      29.805  -0.549  53.511  1.00  0.00    -0.051 Br
HETATM   22  C7  UNL     1      27.013  -0.984  52.942  1.00  0.00     0.019 A 
HETATM   23  C8  UNL     1      25.686  -0.526  52.930  1.00  0.00     0.009 A 
ENDBRANCH  16  17
ENDBRANCH   2  16
TORSDOF 5
ENDMDL
