MODEL 1
REMARK VINA RESULT:      -9.0      0.000      0.000
REMARK  2 active torsions:
REMARK  status: ('A' for Active; 'I' for Inactive)
REMARK    1  A    between atoms: C11_13  and  C12_14 
REMARK    2  A    between atoms: C12_14  and  O3_16 
ROOT
HETATM    1  O1  UNL     1      20.696   4.348  51.997  1.00  0.00    -0.261 OA
HETATM    2  C1  UNL     1      21.231   3.204  52.194  1.00  0.00     0.298 C 
HETATM    3  C2  UNL     1      20.182   2.131  52.047  1.00  0.00     0.235 C 
HETATM    4  N1  UNL     1      20.896   0.862  52.271  1.00  0.00    -0.377 N 
HETATM    5  C3  UNL     1      20.368   0.394  53.529  1.00  0.00     0.086 C 
HETATM    6  C4  UNL     1      20.856  -0.386  54.498  1.00  0.00     0.017 C 
HETATM    7  C5  UNL     1      22.219  -0.829  54.879  1.00  0.00     0.002 C 
HETATM    8  C6  UNL     1      23.391  -0.545  54.306  1.00  0.00     0.011 C 
HETATM    9  C7  UNL     1      23.874   0.063  53.071  1.00  0.00    -0.037 C 
HETATM   10  C8  UNL     1      23.209   0.132  51.904  1.00  0.00     0.004 C 
HETATM   11  C9  UNL     1      21.866   0.339  51.365  1.00  0.00     0.151 C 
HETATM   12  C10 UNL     1      25.204   0.592  53.315  1.00  0.00     0.030 C 
HETATM   13  C11 UNL     1      25.884   1.591  52.840  1.00  0.00     0.051 C 
HETATM   14  C13 UNL     1      25.537   2.585  51.833  1.00  0.00     0.009 A 
HETATM   15  C14 UNL     1      26.451   2.472  50.788  1.00  0.00     0.015 A 
HETATM   16  C15 UNL     1      26.455   3.259  49.626  1.00  0.00     0.001 A 
HETATM   17  C16 UNL     1      25.480   4.225  49.501  1.00  0.00     0.002 A 
HETATM   18  C17 UNL     1      24.577   4.312  50.571  1.00  0.00     0.032 A 
HETATM   19  C18 UNL     1      24.559   3.546  51.717  1.00  0.00     0.066 A 
HETATM   20  N2  UNL     1      23.524   3.848  52.637  1.00  0.00    -0.257 N 
HETATM   21  O4  UNL     1      22.555   2.922  52.498  1.00  0.00    -0.197 OA
HETATM   22  H16 UNL     1      23.955   4.694  53.052  1.00  0.00     0.195 HD
ENDROOT
BRANCH  13  23
HETATM   23  C12 UNL     1      27.251   1.768  53.392  1.00  0.00     0.177 C 
HETATM   24  O2  UNL     1      28.150   0.866  53.257  1.00  0.00    -0.646 OA
BRANCH  23  25
HETATM   25  O3  UNL     1      27.682   2.861  54.071  1.00  0.00    -0.773 OA
HETATM   26  H11 UNL     1      28.621   2.893  54.446  1.00  0.00     0.167 HD
ENDBRANCH  23  25
ENDBRANCH  13  23
TORSDOF 2
ENDMDL
MODEL 2
REMARK VINA RESULT:      -8.8      1.743      4.876
REMARK  2 active torsions:
REMARK  status: ('A' for Active; 'I' for Inactive)
REMARK    1  A    between atoms: C11_13  and  C12_14 
REMARK    2  A    between atoms: C12_14  and  O3_16 
ROOT
HETATM    1  O1  UNL     1      20.505   1.626  51.303  1.00  0.00    -0.261 OA
HETATM    2  C1  UNL     1      21.718   2.003  51.449  1.00  0.00     0.298 C 
HETATM    3  C2  UNL     1      21.793   3.504  51.332  1.00  0.00     0.235 C 
HETATM    4  N1  UNL     1      23.213   3.835  51.534  1.00  0.00    -0.377 N 
HETATM    5  C3  UNL     1      23.642   4.292  50.235  1.00  0.00     0.086 C 
HETATM    6  C4  UNL     1      24.823   4.306  49.608  1.00  0.00     0.017 C 
HETATM    7  C5  UNL     1      26.104   3.585  49.802  1.00  0.00     0.002 C 
HETATM    8  C6  UNL     1      26.430   2.676  50.724  1.00  0.00     0.011 C 
HETATM    9  C7  UNL     1      25.880   2.150  51.969  1.00  0.00    -0.037 C 
HETATM   10  C8  UNL     1      25.035   2.787  52.798  1.00  0.00     0.004 C 
HETATM   11  C9  UNL     1      23.883   3.686  52.784  1.00  0.00     0.151 C 
HETATM   12  C10 UNL     1      26.401   0.808  52.164  1.00  0.00     0.030 C 
HETATM   13  C11 UNL     1      25.946  -0.267  52.731  1.00  0.00     0.051 C 
HETATM   14  C13 UNL     1      24.686  -0.521  53.420  1.00  0.00     0.009 A 
HETATM   15  C14 UNL     1      24.981  -0.887  54.730  1.00  0.00     0.015 A 
HETATM   16  C15 UNL     1      24.034  -1.215  55.713  1.00  0.00     0.001 A 
HETATM   17  C16 UNL     1      22.703  -1.173  55.360  1.00  0.00     0.002 A 
HETATM   18  C17 UNL     1      22.441  -0.801  54.034  1.00  0.00     0.032 A 
HETATM   19  C18 UNL     1      23.360  -0.476  53.058  1.00  0.00     0.066 A 
HETATM   20  N2  UNL     1      22.814  -0.130  51.796  1.00  0.00    -0.257 N 
HETATM   21  O4  UNL     1      22.834   1.212  51.683  1.00  0.00    -0.197 OA
HETATM   22  H16 UNL     1      22.611  -1.092  51.469  1.00  0.00     0.195 HD
ENDROOT
BRANCH  13  23
HETATM   23  C12 UNL     1      26.843  -1.450  52.697  1.00  0.00     0.177 C 
HETATM   24  O2  UNL     1      26.583  -2.467  51.964  1.00  0.00    -0.646 OA
BRANCH  23  25
HETATM   25  O3  UNL     1      27.992  -1.577  53.409  1.00  0.00    -0.773 OA
HETATM   26  H11 UNL     1      28.802  -2.022  52.997  1.00  0.00     0.167 HD
ENDBRANCH  23  25
ENDBRANCH  13  23
TORSDOF 2
ENDMDL
MODEL 3
REMARK VINA RESULT:      -8.6      1.728      2.245
REMARK  2 active torsions:
REMARK  status: ('A' for Active; 'I' for Inactive)
REMARK    1  A    between atoms: C11_13  and  C12_14 
REMARK    2  A    between atoms: C12_14  and  O3_16 
ROOT
HETATM    1  O1  UNL     1      21.672   6.720  51.206  1.00  0.00    -0.261 OA
HETATM    2  C1  UNL     1      21.809   5.450  51.141  1.00  0.00     0.298 C 
HETATM    3  C2  UNL     1      20.504   4.828  50.715  1.00  0.00     0.235 C 
HETATM    4  N1  UNL     1      20.770   3.381  50.652  1.00  0.00    -0.377 N 
HETATM    5  C3  UNL     1      20.000   2.847  51.748  1.00  0.00     0.086 C 
HETATM    6  C4  UNL     1      20.126   1.762  52.517  1.00  0.00     0.017 C 
HETATM    7  C5  UNL     1      21.243   0.834  52.820  1.00  0.00     0.002 C 
HETATM    8  C6  UNL     1      22.497   0.845  52.363  1.00  0.00     0.011 C 
HETATM    9  C7  UNL     1      23.265   1.518  51.321  1.00  0.00    -0.037 C 
HETATM   10  C8  UNL     1      22.774   2.046  50.186  1.00  0.00     0.004 C 
HETATM   11  C9  UNL     1      21.621   2.783  49.675  1.00  0.00     0.151 C 
HETATM   12  C10 UNL     1      24.662   1.527  51.720  1.00  0.00     0.030 C 
HETATM   13  C11 UNL     1      25.658   2.333  51.514  1.00  0.00     0.051 C 
HETATM   14  C13 UNL     1      25.735   3.579  50.762  1.00  0.00     0.009 A 
HETATM   15  C14 UNL     1      26.671   3.408  49.746  1.00  0.00     0.015 A 
HETATM   16  C15 UNL     1      27.033   4.383  48.804  1.00  0.00     0.001 A 
HETATM   17  C16 UNL     1      26.417   5.613  48.885  1.00  0.00     0.002 A 
HETATM   18  C17 UNL     1      25.480   5.751  49.919  1.00  0.00     0.032 A 
HETATM   19  C18 UNL     1      25.114   4.803  50.851  1.00  0.00     0.066 A 
HETATM   20  N2  UNL     1      24.132   5.214  51.787  1.00  0.00    -0.257 N 
HETATM   21  O4  UNL     1      22.946   4.701  51.406  1.00  0.00    -0.197 OA
HETATM   22  H16 UNL     1      24.756   5.767  52.402  1.00  0.00     0.195 HD
ENDROOT
BRANCH  13  23
HETATM   23  C12 UNL     1      26.951   1.939  52.129  1.00  0.00     0.177 C 
HETATM   24  O2  UNL     1      27.237   0.713  52.359  1.00  0.00    -0.646 OA
BRANCH  23  25
HETATM   25  O3  UNL     1      27.932   2.801  52.499  1.00  0.00    -0.773 OA
HETATM   26  H11 UNL     1      28.669   2.499  53.124  1.00  0.00     0.167 HD
ENDBRANCH  23  25
ENDBRANCH  13  23
TORSDOF 2
ENDMDL
MODEL 4
REMARK VINA RESULT:      -8.5      2.214      3.936
REMARK  2 active torsions:
REMARK  status: ('A' for Active; 'I' for Inactive)
REMARK    1  A    between atoms: C11_13  and  C12_14 
REMARK    2  A    between atoms: C12_14  and  O3_16 
ROOT
HETATM    1  O1  UNL     1      24.168   4.982  51.496  1.00  0.00    -0.261 OA
HETATM    2  C1  UNL     1      23.388   3.973  51.411  1.00  0.00     0.298 C 
HETATM    3  C2  UNL     1      22.472   4.147  50.226  1.00  0.00     0.235 C 
HETATM    4  N1  UNL     1      21.637   2.935  50.204  1.00  0.00    -0.377 N 
HETATM    5  C3  UNL     1      20.325   3.420  50.555  1.00  0.00     0.086 C 
HETATM    6  C4  UNL     1      19.263   2.859  51.140  1.00  0.00     0.017 C 
HETATM    7  C5  UNL     1      19.060   1.647  51.969  1.00  0.00     0.002 C 
HETATM    8  C6  UNL     1      19.954   0.738  52.368  1.00  0.00     0.011 C 
HETATM    9  C7  UNL     1      21.335   0.372  52.071  1.00  0.00    -0.037 C 
HETATM   10  C8  UNL     1      21.994   0.618  50.926  1.00  0.00     0.004 C 
HETATM   11  C9  UNL     1      22.146   1.639  49.891  1.00  0.00     0.151 C 
HETATM   12  C10 UNL     1      21.885  -0.304  53.233  1.00  0.00     0.030 C 
HETATM   13  C11 UNL     1      23.073  -0.399  53.748  1.00  0.00     0.051 C 
HETATM   14  C13 UNL     1      24.346   0.162  53.315  1.00  0.00     0.009 A 
HETATM   15  C14 UNL     1      25.216  -0.895  53.062  1.00  0.00     0.015 A 
HETATM   16  C15 UNL     1      26.544  -0.766  52.627  1.00  0.00     0.001 A 
HETATM   17  C16 UNL     1      27.035   0.506  52.431  1.00  0.00     0.002 A 
HETATM   18  C17 UNL     1      26.133   1.548  52.695  1.00  0.00     0.032 A 
HETATM   19  C18 UNL     1      24.826   1.437  53.122  1.00  0.00     0.066 A 
HETATM   20  N2  UNL     1      24.138   2.663  53.306  1.00  0.00    -0.257 N 
HETATM   21  O4  UNL     1      23.340   2.861  52.239  1.00  0.00    -0.197 OA
HETATM   22  H16 UNL     1      24.554   2.914  54.221  1.00  0.00     0.195 HD
ENDROOT
BRANCH  13  23
HETATM   23  C12 UNL     1      23.183  -1.219  54.980  1.00  0.00     0.177 C 
HETATM   24  O2  UNL     1      22.231  -1.985  55.363  1.00  0.00    -0.646 OA
BRANCH  23  25
HETATM   25  O3  UNL     1      24.263  -1.249  55.803  1.00  0.00    -0.773 OA
HETATM   26  H11 UNL     1      24.161  -1.039  56.788  1.00  0.00     0.167 HD
ENDBRANCH  23  25
ENDBRANCH  13  23
TORSDOF 2
ENDMDL
MODEL 5
REMARK VINA RESULT:      -7.9      1.751      2.207
REMARK  2 active torsions:
REMARK  status: ('A' for Active; 'I' for Inactive)
REMARK    1  A    between atoms: C11_13  and  C12_14 
REMARK    2  A    between atoms: C12_14  and  O3_16 
ROOT
HETATM    1  O1  UNL     1      18.336   4.002  51.751  1.00  0.00    -0.261 OA
HETATM    2  C1  UNL     1      19.009   2.915  51.784  1.00  0.00     0.298 C 
HETATM    3  C2  UNL     1      18.105   1.757  51.444  1.00  0.00     0.235 C 
HETATM    4  N1  UNL     1      18.971   0.567  51.489  1.00  0.00    -0.377 N 
HETATM    5  C3  UNL     1      18.496  -0.154  52.644  1.00  0.00     0.086 C 
HETATM    6  C4  UNL     1      19.071  -1.010  53.494  1.00  0.00     0.017 C 
HETATM    7  C5  UNL     1      20.475  -1.337  53.840  1.00  0.00     0.002 C 
HETATM    8  C6  UNL     1      21.607  -0.824  53.350  1.00  0.00     0.011 C 
HETATM    9  C7  UNL     1      22.019   0.025  52.237  1.00  0.00    -0.037 C 
HETATM   10  C8  UNL     1      21.360   0.193  51.077  1.00  0.00     0.004 C 
HETATM   11  C9  UNL     1      20.006   0.315  50.540  1.00  0.00     0.151 C 
HETATM   12  C10 UNL     1      23.271   0.669  52.596  1.00  0.00     0.030 C 
HETATM   13  C11 UNL     1      23.823   1.805  52.301  1.00  0.00     0.051 C 
HETATM   14  C13 UNL     1      23.362   2.895  51.449  1.00  0.00     0.009 A 
HETATM   15  C14 UNL     1      24.290   3.060  50.426  1.00  0.00     0.015 A 
HETATM   16  C15 UNL     1      24.205   4.014  49.400  1.00  0.00     0.001 A 
HETATM   17  C16 UNL     1      23.117   4.860  49.399  1.00  0.00     0.002 A 
HETATM   18  C17 UNL     1      22.202   4.667  50.444  1.00  0.00     0.032 A 
HETATM   19  C18 UNL     1      22.272   3.734  51.457  1.00  0.00     0.066 A 
HETATM   20  N2  UNL     1      21.199   3.758  52.384  1.00  0.00    -0.257 N 
HETATM   21  O4  UNL     1      20.355   2.754  52.077  1.00  0.00    -0.197 OA
HETATM   22  H16 UNL     1      21.517   4.576  52.936  1.00  0.00     0.195 HD
ENDROOT
BRANCH  13  23
HETATM   23  C12 UNL     1      25.152   2.060  52.910  1.00  0.00     0.177 C 
HETATM   24  O2  UNL     1      26.142   1.272  52.713  1.00  0.00    -0.646 OA
BRANCH  23  25
HETATM   25  O3  UNL     1      25.454   3.115  53.710  1.00  0.00    -0.773 OA
HETATM   26  H11 UNL     1      26.379   3.206  54.109  1.00  0.00     0.167 HD
ENDBRANCH  23  25
ENDBRANCH  13  23
TORSDOF 2
ENDMDL
MODEL 6
REMARK VINA RESULT:      -7.7      3.064      4.153
REMARK  2 active torsions:
REMARK  status: ('A' for Active; 'I' for Inactive)
REMARK    1  A    between atoms: C11_13  and  C12_14 
REMARK    2  A    between atoms: C12_14  and  O3_16 
ROOT
HETATM    1  O1  UNL     1      22.676   8.342  50.081  1.00  0.00    -0.261 OA
HETATM    2  C1  UNL     1      22.559   7.085  49.879  1.00  0.00     0.298 C 
HETATM    3  C2  UNL     1      21.267   6.815  49.151  1.00  0.00     0.235 C 
HETATM    4  N1  UNL     1      21.236   5.357  48.950  1.00  0.00    -0.377 N 
HETATM    5  C3  UNL     1      20.167   4.919  49.813  1.00  0.00     0.086 C 
HETATM    6  C4  UNL     1      19.908   3.771  50.447  1.00  0.00     0.017 C 
HETATM    7  C5  UNL     1      20.724   2.591  50.822  1.00  0.00     0.002 C 
HETATM    8  C6  UNL     1      22.020   2.356  50.602  1.00  0.00     0.011 C 
HETATM    9  C7  UNL     1      23.105   2.924  49.809  1.00  0.00    -0.037 C 
HETATM   10  C8  UNL     1      22.973   3.646  48.682  1.00  0.00     0.004 C 
HETATM   11  C9  UNL     1      22.125   4.667  48.072  1.00  0.00     0.151 C 
HETATM   12  C10 UNL     1      24.363   2.581  50.448  1.00  0.00     0.030 C 
HETATM   13  C11 UNL     1      25.524   3.154  50.530  1.00  0.00     0.051 C 
HETATM   14  C13 UNL     1      26.008   4.410  49.969  1.00  0.00     0.009 A 
HETATM   15  C14 UNL     1      27.074   4.119  49.123  1.00  0.00     0.015 A 
HETATM   16  C15 UNL     1      27.812   5.064  48.395  1.00  0.00     0.001 A 
HETATM   17  C16 UNL     1      27.460   6.390  48.522  1.00  0.00     0.002 A 
HETATM   18  C17 UNL     1      26.382   6.648  49.381  1.00  0.00     0.032 A 
HETATM   19  C18 UNL     1      25.648   5.731  50.103  1.00  0.00     0.066 A 
HETATM   20  N2  UNL     1      24.603   6.272  50.893  1.00  0.00    -0.257 N 
HETATM   21  O4  UNL     1      23.439   6.077  50.244  1.00  0.00    -0.197 OA
HETATM   22  H16 UNL     1      25.190   6.614  51.676  1.00  0.00     0.195 HD
ENDROOT
BRANCH  13  23
HETATM   23  C12 UNL     1      26.556   2.425  51.309  1.00  0.00     0.177 C 
HETATM   24  O2  UNL     1      26.587   1.146  51.348  1.00  0.00    -0.646 OA
BRANCH  23  25
HETATM   25  O3  UNL     1      27.541   3.011  52.037  1.00  0.00    -0.773 OA
HETATM   26  H11 UNL     1      28.509   2.760  51.883  1.00  0.00     0.167 HD
ENDBRANCH  23  25
ENDBRANCH  13  23
TORSDOF 2
ENDMDL
MODEL 7
REMARK VINA RESULT:      -7.7      2.502      4.879
REMARK  2 active torsions:
REMARK  status: ('A' for Active; 'I' for Inactive)
REMARK    1  A    between atoms: C11_13  and  C12_14 
REMARK    2  A    between atoms: C12_14  and  O3_16 
ROOT
HETATM    1  O1  UNL     1      28.242   2.420  52.136  1.00  0.00    -0.261 OA
HETATM    2  C1  UNL     1      26.981   2.259  52.271  1.00  0.00     0.298 C 
HETATM    3  C2  UNL     1      26.657   2.049  53.728  1.00  0.00     0.235 C 
HETATM    4  N1  UNL     1      25.193   1.897  53.778  1.00  0.00    -0.377 N 
HETATM    5  C3  UNL     1      25.008   0.512  54.135  1.00  0.00     0.086 C 
HETATM    6  C4  UNL     1      24.030  -0.372  53.915  1.00  0.00     0.017 C 
HETATM    7  C5  UNL     1      22.898  -0.444  52.960  1.00  0.00     0.002 C 
HETATM    8  C6  UNL     1      22.539   0.423  52.010  1.00  0.00     0.011 C 
HETATM    9  C7  UNL     1      22.863   1.787  51.608  1.00  0.00    -0.037 C 
HETATM   10  C8  UNL     1      23.352   2.756  52.403  1.00  0.00     0.004 C 
HETATM   11  C9  UNL     1      24.284   2.964  53.509  1.00  0.00     0.151 C 
HETATM   12  C10 UNL     1      22.573   1.926  50.192  1.00  0.00     0.030 C 
HETATM   13  C11 UNL     1      23.072   2.638  49.229  1.00  0.00     0.051 C 
HETATM   14  C13 UNL     1      24.156   3.613  49.230  1.00  0.00     0.009 A 
HETATM   15  C14 UNL     1      23.631   4.836  48.821  1.00  0.00     0.015 A 
HETATM   16  C15 UNL     1      24.360   6.028  48.690  1.00  0.00     0.001 A 
HETATM   17  C16 UNL     1      25.705   5.994  48.988  1.00  0.00     0.002 A 
HETATM   18  C17 UNL     1      26.201   4.747  49.396  1.00  0.00     0.032 A 
HETATM   19  C18 UNL     1      25.498   3.569  49.530  1.00  0.00     0.066 A 
HETATM   20  N2  UNL     1      26.254   2.453  49.968  1.00  0.00    -0.257 N 
HETATM   21  O4  UNL     1      26.010   2.268  51.280  1.00  0.00    -0.197 OA
HETATM   22  H16 UNL     1      26.706   2.232  49.061  1.00  0.00     0.195 HD
ENDROOT
BRANCH  13  23
HETATM   23  C12 UNL     1      22.448   2.458  47.895  1.00  0.00     0.177 C 
HETATM   24  O2  UNL     1      21.250   2.844  47.658  1.00  0.00    -0.646 OA
BRANCH  23  25
HETATM   25  O3  UNL     1      23.053   1.888  46.822  1.00  0.00    -0.773 OA
HETATM   26  H11 UNL     1      23.735   1.151  46.951  1.00  0.00     0.167 HD
ENDBRANCH  23  25
ENDBRANCH  13  23
TORSDOF 2
ENDMDL
MODEL 8
REMARK VINA RESULT:      -7.6      3.209      5.001
REMARK  2 active torsions:
REMARK  status: ('A' for Active; 'I' for Inactive)
REMARK    1  A    between atoms: C11_13  and  C12_14 
REMARK    2  A    between atoms: C12_14  and  O3_16 
ROOT
HETATM    1  O1  UNL     1      22.211   5.436  53.071  1.00  0.00    -0.261 OA
HETATM    2  C1  UNL     1      22.950   4.770  52.267  1.00  0.00     0.298 C 
HETATM    3  C2  UNL     1      22.482   3.337  52.229  1.00  0.00     0.235 C 
HETATM    4  N1  UNL     1      23.375   2.667  51.269  1.00  0.00    -0.377 N 
HETATM    5  C3  UNL     1      24.158   1.781  52.096  1.00  0.00     0.086 C 
HETATM    6  C4  UNL     1      25.382   1.258  51.981  1.00  0.00     0.017 C 
HETATM    7  C5  UNL     1      26.577   1.593  51.170  1.00  0.00     0.002 C 
HETATM    8  C6  UNL     1      26.745   2.574  50.280  1.00  0.00     0.011 C 
HETATM    9  C7  UNL     1      25.920   3.544  49.567  1.00  0.00    -0.037 C 
HETATM   10  C8  UNL     1      24.610   3.424  49.290  1.00  0.00     0.004 C 
HETATM   11  C9  UNL     1      23.361   2.933  49.868  1.00  0.00     0.151 C 
HETATM   12  C10 UNL     1      26.758   4.676  49.208  1.00  0.00     0.030 C 
HETATM   13  C11 UNL     1      26.545   5.946  49.048  1.00  0.00     0.051 C 
HETATM   14  C13 UNL     1      25.322   6.729  49.170  1.00  0.00     0.009 A 
HETATM   15  C14 UNL     1      25.069   7.321  47.936  1.00  0.00     0.015 A 
HETATM   16  C15 UNL     1      23.979   8.158  47.646  1.00  0.00     0.001 A 
HETATM   17  C16 UNL     1      23.084   8.420  48.660  1.00  0.00     0.002 A 
HETATM   18  C17 UNL     1      23.369   7.808  49.890  1.00  0.00     0.032 A 
HETATM   19  C18 UNL     1      24.434   6.984  50.189  1.00  0.00     0.066 A 
HETATM   20  N2  UNL     1      24.474   6.498  51.520  1.00  0.00    -0.257 N 
HETATM   21  O4  UNL     1      24.023   5.229  51.518  1.00  0.00    -0.197 OA
HETATM   22  H16 UNL     1      24.845   7.358  51.966  1.00  0.00     0.195 HD
ENDROOT
BRANCH  13  23
HETATM   23  C12 UNL     1      27.727   6.760  48.667  1.00  0.00     0.177 C 
HETATM   24  O2  UNL     1      28.379   6.531  47.589  1.00  0.00    -0.646 OA
BRANCH  23  25
HETATM   25  O3  UNL     1      28.225   7.796  49.389  1.00  0.00    -0.773 OA
HETATM   26  H11 UNL     1      29.029   8.312  49.055  1.00  0.00     0.167 HD
ENDBRANCH  23  25
ENDBRANCH  13  23
TORSDOF 2
ENDMDL
MODEL 9
REMARK VINA RESULT:      -7.6      2.502      3.435
REMARK  2 active torsions:
REMARK  status: ('A' for Active; 'I' for Inactive)
REMARK    1  A    between atoms: C11_13  and  C12_14 
REMARK    2  A    between atoms: C12_14  and  O3_16 
ROOT
HETATM    1  O1  UNL     1      18.377   3.610  51.958  1.00  0.00    -0.261 OA
HETATM    2  C1  UNL     1      19.450   2.937  51.786  1.00  0.00     0.298 C 
HETATM    3  C2  UNL     1      19.151   1.469  51.956  1.00  0.00     0.235 C 
HETATM    4  N1  UNL     1      20.434   0.785  51.720  1.00  0.00    -0.377 N 
HETATM    5  C3  UNL     1      20.787   0.270  53.020  1.00  0.00     0.086 C 
HETATM    6  C4  UNL     1      21.950  -0.023  53.608  1.00  0.00     0.017 C 
HETATM    7  C5  UNL     1      23.362   0.346  53.346  1.00  0.00     0.002 C 
HETATM    8  C6  UNL     1      23.868   1.119  52.382  1.00  0.00     0.011 C 
HETATM    9  C7  UNL     1      23.418   1.733  51.137  1.00  0.00    -0.037 C 
HETATM   10  C8  UNL     1      22.407   1.307  50.360  1.00  0.00     0.004 C 
HETATM   11  C9  UNL     1      21.068   0.727  50.443  1.00  0.00     0.151 C 
HETATM   12  C10 UNL     1      24.250   2.894  50.877  1.00  0.00     0.030 C 
HETATM   13  C11 UNL     1      24.057   4.034  50.286  1.00  0.00     0.051 C 
HETATM   14  C13 UNL     1      22.874   4.577  49.630  1.00  0.00     0.009 A 
HETATM   15  C14 UNL     1      23.198   4.822  48.299  1.00  0.00     0.015 A 
HETATM   16  C15 UNL     1      22.324   5.351  47.336  1.00  0.00     0.001 A 
HETATM   17  C16 UNL     1      21.040   5.656  47.733  1.00  0.00     0.002 A 
HETATM   18  C17 UNL     1      20.748   5.397  49.080  1.00  0.00     0.032 A 
HETATM   19  C18 UNL     1      21.594   4.878  50.036  1.00  0.00     0.066 A 
HETATM   20  N2  UNL     1      21.030   4.714  51.327  1.00  0.00    -0.257 N 
HETATM   21  O4  UNL     1      20.718   3.414  51.488  1.00  0.00    -0.197 OA
HETATM   22  H16 UNL     1      21.089   5.706  51.625  1.00  0.00     0.195 HD
ENDROOT
BRANCH  13  23
HETATM   23  C12 UNL     1      25.222   4.953  50.249  1.00  0.00     0.177 C 
HETATM   24  O2  UNL     1      26.303   4.640  49.639  1.00  0.00    -0.646 OA
BRANCH  23  25
HETATM   25  O3  UNL     1      25.267   6.178  50.832  1.00  0.00    -0.773 OA
HETATM   26  H11 UNL     1      25.423   6.264  51.829  1.00  0.00     0.167 HD
ENDBRANCH  23  25
ENDBRANCH  13  23
TORSDOF 2
ENDMDL
