MODEL 1
REMARK VINA RESULT:      -7.4      0.000      0.000
REMARK  7 active torsions:
REMARK  status: ('A' for Active; 'I' for Inactive)
REMARK    1  A    between atoms: C2_2  and  N1_4 
REMARK    2  A    between atoms: N1_4  and  C5_6 
REMARK    3  A    between atoms: C5_6  and  C6_7 
REMARK    4  A    between atoms: C7_8  and  C8_9 
REMARK       I    between atoms: C8_9  and  N2_11 
REMARK    5  A    between atoms: C11_14  and  N3_15 
REMARK    6  A    between atoms: C12_16  and  C13_17 
REMARK    7  A    between atoms: C13_17  and  C14_18 
ROOT
HETATM    1  C8  UNL     1      26.036   3.141  50.345  1.00  0.00     0.298 C 
HETATM    2  O1  UNL     1      26.704   3.102  49.258  1.00  0.00    -0.258 OA
HETATM    3  N2  UNL     1      24.740   3.670  50.454  1.00  0.00    -0.338 N 
HETATM    4  C9  UNL     1      23.882   3.767  51.636  1.00  0.00     0.156 C 
HETATM    5  C10 UNL     1      22.449   3.737  51.243  1.00  0.00     0.020 C 
HETATM    6  C11 UNL     1      21.964   3.540  50.012  1.00  0.00     0.033 C 
HETATM    7  C20 UNL     1      22.954   3.327  48.917  1.00  0.00     0.079 C 
HETATM    8  C21 UNL     1      24.151   4.199  49.240  1.00  0.00     0.133 C 
ENDROOT
BRANCH   1   9
HETATM    9  C7  UNL     1      26.727   2.589  51.478  1.00  0.00    -0.004 C 
HETATM   10  C6  UNL     1      27.322   2.119  52.417  1.00  0.00    -0.077 C 
BRANCH  10  11
HETATM   11  C5  UNL     1      28.022   1.534  53.560  1.00  0.00     0.212 C 
BRANCH  11  12
HETATM   12  N1  UNL     1      27.541   0.268  53.970  1.00  0.00    -0.403 N 
HETATM   13  C4  UNL     1      26.691   0.319  55.093  1.00  0.00     0.144 C 
BRANCH  12  14
HETATM   14  C2  UNL     1      28.335  -0.869  53.757  1.00  0.00     0.071 C 
HETATM   15  C1  UNL     1      29.779  -0.627  53.407  1.00  0.00     0.031 C 
HETATM   16  C3  UNL     1      27.797  -1.829  52.733  1.00  0.00     0.031 C 
ENDBRANCH  12  14
ENDBRANCH  11  12
ENDBRANCH  10  11
ENDBRANCH   1   9
BRANCH   6  17
HETATM   17  N3  UNL     1      20.561   3.578  50.009  1.00  0.00    -0.270 NA
HETATM   18  C12 UNL     1      19.762   2.584  49.977  1.00  0.00     0.094 C 
BRANCH  18  19
HETATM   19  C13 UNL     1      19.612   1.126  49.932  1.00  0.00     0.085 C 
BRANCH  19  20
HETATM   20  C14 UNL     1      19.984   0.478  51.210  1.00  0.00    -0.052 A 
HETATM   21  C15 UNL     1      19.019  -0.012  52.058  1.00  0.00     0.007 A 
HETATM   22  C16 UNL     1      19.284  -0.634  53.276  1.00  0.00     0.002 A 
HETATM   23  C17 UNL     1      20.593  -0.775  53.671  1.00  0.00     0.019 A 
HETATM   24  C18 UNL     1      21.610  -0.295  52.850  1.00  0.00     0.011 A 
HETATM   25 BR1  UNL     1      23.433  -0.499  53.406  1.00  0.00    -0.051 Br
HETATM   26  C19 UNL     1      21.294   0.316  51.647  1.00  0.00     0.026 A 
ENDBRANCH  19  20
ENDBRANCH  18  19
ENDBRANCH   6  17
TORSDOF 7
ENDMDL
MODEL 2
REMARK VINA RESULT:      -7.4      1.415      1.939
REMARK  7 active torsions:
REMARK  status: ('A' for Active; 'I' for Inactive)
REMARK    1  A    between atoms: C2_2  and  N1_4 
REMARK    2  A    between atoms: N1_4  and  C5_6 
REMARK    3  A    between atoms: C5_6  and  C6_7 
REMARK    4  A    between atoms: C7_8  and  C8_9 
REMARK       I    between atoms: C8_9  and  N2_11 
REMARK    5  A    between atoms: C11_14  and  N3_15 
REMARK    6  A    between atoms: C12_16  and  C13_17 
REMARK    7  A    between atoms: C13_17  and  C14_18 
ROOT
HETATM    1  C8  UNL     1      26.080   2.867  50.720  1.00  0.00     0.298 C 
HETATM    2  O1  UNL     1      26.794   3.065  49.679  1.00  0.00    -0.258 OA
HETATM    3  N2  UNL     1      25.063   3.732  51.152  1.00  0.00    -0.338 N 
HETATM    4  C9  UNL     1      24.184   3.610  52.318  1.00  0.00     0.156 C 
HETATM    5  C10 UNL     1      22.888   4.291  52.065  1.00  0.00     0.020 C 
HETATM    6  C11 UNL     1      22.492   4.853  50.917  1.00  0.00     0.033 C 
HETATM    7  C20 UNL     1      23.441   4.792  49.768  1.00  0.00     0.079 C 
HETATM    8  C21 UNL     1      24.835   4.918  50.350  1.00  0.00     0.133 C 
ENDROOT
BRANCH   1   9
HETATM    9  C7  UNL     1      26.402   1.661  51.430  1.00  0.00    -0.004 C 
HETATM   10  C6  UNL     1      26.688   0.658  52.038  1.00  0.00    -0.077 C 
BRANCH  10  11
HETATM   11  C5  UNL     1      27.038  -0.570  52.751  1.00  0.00     0.212 C 
BRANCH  11  12
HETATM   12  N1  UNL     1      27.431  -0.387  54.097  1.00  0.00    -0.403 N 
HETATM   13  C4  UNL     1      26.432   0.188  54.909  1.00  0.00     0.144 C 
BRANCH  12  14
HETATM   14  C2  UNL     1      28.781  -0.144  54.391  1.00  0.00     0.071 C 
HETATM   15  C1  UNL     1      29.244   1.286  54.304  1.00  0.00     0.031 C 
HETATM   16  C3  UNL     1      29.756  -0.963  53.591  1.00  0.00     0.031 C 
ENDBRANCH  12  14
ENDBRANCH  11  12
ENDBRANCH  10  11
ENDBRANCH   1   9
BRANCH   6  17
HETATM   17  N3  UNL     1      21.208   5.405  51.040  1.00  0.00    -0.270 NA
HETATM   18  C12 UNL     1      20.092   4.819  50.844  1.00  0.00     0.094 C 
BRANCH  18  19
HETATM   19  C13 UNL     1      19.402   3.579  50.472  1.00  0.00     0.085 C 
BRANCH  19  20
HETATM   20  C14 UNL     1      20.125   2.370  50.923  1.00  0.00    -0.052 A 
HETATM   21  C15 UNL     1      20.835   1.601  50.031  1.00  0.00     0.007 A 
HETATM   22  C16 UNL     1      21.543   0.451  50.373  1.00  0.00     0.002 A 
HETATM   23  C17 UNL     1      21.540   0.042  51.686  1.00  0.00     0.019 A 
HETATM   24  C18 UNL     1      20.835   0.785  52.630  1.00  0.00     0.011 A 
HETATM   25 BR1  UNL     1      20.839   0.212  54.459  1.00  0.00    -0.051 Br
HETATM   26  C19 UNL     1      20.148   1.923  52.239  1.00  0.00     0.026 A 
ENDBRANCH  19  20
ENDBRANCH  18  19
ENDBRANCH   6  17
TORSDOF 7
ENDMDL
MODEL 3
REMARK VINA RESULT:      -7.2      4.209      5.711
REMARK  7 active torsions:
REMARK  status: ('A' for Active; 'I' for Inactive)
REMARK    1  A    between atoms: C2_2  and  N1_4 
REMARK    2  A    between atoms: N1_4  and  C5_6 
REMARK    3  A    between atoms: C5_6  and  C6_7 
REMARK    4  A    between atoms: C7_8  and  C8_9 
REMARK       I    between atoms: C8_9  and  N2_11 
REMARK    5  A    between atoms: C11_14  and  N3_15 
REMARK    6  A    between atoms: C12_16  and  C13_17 
REMARK    7  A    between atoms: C13_17  and  C14_18 
ROOT
HETATM    1  C8  UNL     1      27.040   6.464  48.650  1.00  0.00     0.298 C 
HETATM    2  O1  UNL     1      26.631   7.650  48.411  1.00  0.00    -0.258 OA
HETATM    3  N2  UNL     1      26.262   5.474  49.270  1.00  0.00    -0.338 N 
HETATM    4  C9  UNL     1      26.617   4.091  49.592  1.00  0.00     0.156 C 
HETATM    5  C10 UNL     1      25.406   3.230  49.597  1.00  0.00     0.020 C 
HETATM    6  C11 UNL     1      24.166   3.596  49.254  1.00  0.00     0.033 C 
HETATM    7  C20 UNL     1      23.969   5.010  48.821  1.00  0.00     0.079 C 
HETATM    8  C21 UNL     1      24.916   5.852  49.653  1.00  0.00     0.133 C 
ENDROOT
BRANCH   1   9
HETATM    9  C7  UNL     1      28.389   6.212  48.225  1.00  0.00    -0.004 C 
HETATM   10  C6  UNL     1      29.523   6.019  47.860  1.00  0.00    -0.077 C 
BRANCH  10  11
HETATM   11  C5  UNL     1      30.889   5.764  47.404  1.00  0.00     0.212 C 
BRANCH  11  12
HETATM   12  N1  UNL     1      31.721   5.117  48.348  1.00  0.00    -0.403 N 
HETATM   13  C4  UNL     1      32.108   5.939  49.424  1.00  0.00     0.144 C 
BRANCH  12  14
HETATM   14  C2  UNL     1      32.582   4.095  47.916  1.00  0.00     0.071 C 
HETATM   15  C1  UNL     1      34.038   4.451  47.783  1.00  0.00     0.031 C 
HETATM   16  C3  UNL     1      32.178   3.436  46.626  1.00  0.00     0.031 C 
ENDBRANCH  12  14
ENDBRANCH  11  12
ENDBRANCH  10  11
ENDBRANCH   1   9
BRANCH   6  17
HETATM   17  N3  UNL     1      23.269   2.523  49.380  1.00  0.00    -0.270 NA
HETATM   18  C12 UNL     1      22.815   2.018  50.460  1.00  0.00     0.094 C 
BRANCH  18  19
HETATM   19  C13 UNL     1      22.802   2.056  51.926  1.00  0.00     0.085 C 
BRANCH  19  20
HETATM   20  C14 UNL     1      24.112   1.702  52.514  1.00  0.00    -0.052 A 
HETATM   21  C15 UNL     1      24.805   2.607  53.284  1.00  0.00     0.007 A 
HETATM   22  C16 UNL     1      26.042   2.354  53.874  1.00  0.00     0.002 A 
HETATM   23  C17 UNL     1      26.622   1.122  53.682  1.00  0.00     0.019 A 
HETATM   24  C18 UNL     1      25.963   0.169  52.909  1.00  0.00     0.011 A 
HETATM   25 BR1  UNL     1      26.777  -1.546  52.651  1.00  0.00    -0.051 Br
HETATM   26  C19 UNL     1      24.733   0.471  52.346  1.00  0.00     0.026 A 
ENDBRANCH  19  20
ENDBRANCH  18  19
ENDBRANCH   6  17
TORSDOF 7
ENDMDL
MODEL 4
REMARK VINA RESULT:      -7.0      4.349      5.494
REMARK  7 active torsions:
REMARK  status: ('A' for Active; 'I' for Inactive)
REMARK    1  A    between atoms: C2_2  and  N1_4 
REMARK    2  A    between atoms: N1_4  and  C5_6 
REMARK    3  A    between atoms: C5_6  and  C6_7 
REMARK    4  A    between atoms: C7_8  and  C8_9 
REMARK       I    between atoms: C8_9  and  N2_11 
REMARK    5  A    between atoms: C11_14  and  N3_15 
REMARK    6  A    between atoms: C12_16  and  C13_17 
REMARK    7  A    between atoms: C13_17  and  C14_18 
ROOT
HETATM    1  C8  UNL     1      27.561   6.748  48.525  1.00  0.00     0.298 C 
HETATM    2  O1  UNL     1      27.334   7.990  48.334  1.00  0.00    -0.258 OA
HETATM    3  N2  UNL     1      26.646   5.863  49.115  1.00  0.00    -0.338 N 
HETATM    4  C9  UNL     1      26.792   4.430  49.381  1.00  0.00     0.156 C 
HETATM    5  C10 UNL     1      25.465   3.761  49.367  1.00  0.00     0.020 C 
HETATM    6  C11 UNL     1      24.292   4.322  49.052  1.00  0.00     0.033 C 
HETATM    7  C20 UNL     1      24.308   5.765  48.675  1.00  0.00     0.079 C 
HETATM    8  C21 UNL     1      25.374   6.423  49.527  1.00  0.00     0.133 C 
ENDROOT
BRANCH   1   9
HETATM    9  C7  UNL     1      28.855   6.313  48.076  1.00  0.00    -0.004 C 
HETATM   10  C6  UNL     1      29.945   5.966  47.690  1.00  0.00    -0.077 C 
BRANCH  10  11
HETATM   11  C5  UNL     1      31.254   5.525  47.211  1.00  0.00     0.212 C 
BRANCH  11  12
HETATM   12  N1  UNL     1      32.047   4.855  48.172  1.00  0.00    -0.403 N 
HETATM   13  C4  UNL     1      32.578   5.705  49.163  1.00  0.00     0.144 C 
BRANCH  12  14
HETATM   14  C2  UNL     1      32.760   3.707  47.794  1.00  0.00     0.071 C 
HETATM   15  C1  UNL     1      34.229   3.885  47.520  1.00  0.00     0.031 C 
HETATM   16  C3  UNL     1      32.186   2.970  46.616  1.00  0.00     0.031 C 
ENDBRANCH  12  14
ENDBRANCH  11  12
ENDBRANCH  10  11
ENDBRANCH   1   9
BRANCH   6  17
HETATM   17  N3  UNL     1      23.245   3.392  49.147  1.00  0.00    -0.270 NA
HETATM   18  C12 UNL     1      22.684   2.967  50.211  1.00  0.00     0.094 C 
BRANCH  18  19
HETATM   19  C13 UNL     1      22.623   3.018  51.676  1.00  0.00     0.085 C 
BRANCH  19  20
HETATM   20  C14 UNL     1      23.173   1.799  52.309  1.00  0.00    -0.052 A 
HETATM   21  C15 UNL     1      24.507   1.486  52.193  1.00  0.00     0.007 A 
HETATM   22  C16 UNL     1      25.104   0.361  52.757  1.00  0.00     0.002 A 
HETATM   23  C17 UNL     1      24.320  -0.506  53.481  1.00  0.00     0.019 A 
HETATM   24  C18 UNL     1      22.961  -0.237  53.628  1.00  0.00     0.011 A 
HETATM   25 BR1  UNL     1      21.875  -1.449  54.642  1.00  0.00    -0.051 Br
HETATM   26  C19 UNL     1      22.416   0.897  53.047  1.00  0.00     0.026 A 
ENDBRANCH  19  20
ENDBRANCH  18  19
ENDBRANCH   6  17
TORSDOF 7
ENDMDL
MODEL 5
REMARK VINA RESULT:      -7.0      3.230      5.826
REMARK  7 active torsions:
REMARK  status: ('A' for Active; 'I' for Inactive)
REMARK    1  A    between atoms: C2_2  and  N1_4 
REMARK    2  A    between atoms: N1_4  and  C5_6 
REMARK    3  A    between atoms: C5_6  and  C6_7 
REMARK    4  A    between atoms: C7_8  and  C8_9 
REMARK       I    between atoms: C8_9  and  N2_11 
REMARK    5  A    between atoms: C11_14  and  N3_15 
REMARK    6  A    between atoms: C12_16  and  C13_17 
REMARK    7  A    between atoms: C13_17  and  C14_18 
ROOT
HETATM    1  C8  UNL     1      21.741   0.752  53.153  1.00  0.00     0.298 C 
HETATM    2  O1  UNL     1      20.799   0.794  54.014  1.00  0.00    -0.258 OA
HETATM    3  N2  UNL     1      21.655   1.306  51.866  1.00  0.00    -0.338 N 
HETATM    4  C9  UNL     1      22.661   1.322  50.801  1.00  0.00     0.156 C 
HETATM    5  C10 UNL     1      22.474   2.509  49.928  1.00  0.00     0.020 C 
HETATM    6  C11 UNL     1      21.599   3.505  50.110  1.00  0.00     0.033 C 
HETATM    7  C20 UNL     1      20.719   3.424  51.312  1.00  0.00     0.079 C 
HETATM    8  C21 UNL     1      20.406   1.956  51.521  1.00  0.00     0.133 C 
ENDROOT
BRANCH   1   9
HETATM    9  C7  UNL     1      22.926   0.081  53.611  1.00  0.00    -0.004 C 
HETATM   10  C6  UNL     1      23.932  -0.466  53.993  1.00  0.00    -0.077 C 
BRANCH  10  11
HETATM   11  C5  UNL     1      25.147  -1.147  54.437  1.00  0.00     0.212 C 
BRANCH  11  12
HETATM   12  N1  UNL     1      26.352  -0.458  54.162  1.00  0.00    -0.403 N 
HETATM   13  C4  UNL     1      26.443   0.801  54.787  1.00  0.00     0.144 C 
BRANCH  12  14
HETATM   14  C2  UNL     1      26.995  -0.665  52.932  1.00  0.00     0.071 C 
HETATM   15  C1  UNL     1      26.683   0.315  51.834  1.00  0.00     0.031 C 
HETATM   16  C3  UNL     1      26.810  -2.040  52.350  1.00  0.00     0.031 C 
ENDBRANCH  12  14
ENDBRANCH  11  12
ENDBRANCH  10  11
ENDBRANCH   1   9
BRANCH   6  17
HETATM   17  N3  UNL     1      21.699   4.460  49.087  1.00  0.00    -0.270 NA
HETATM   18  C12 UNL     1      22.478   5.469  49.045  1.00  0.00     0.094 C 
BRANCH  18  19
HETATM   19  C13 UNL     1      23.530   6.240  49.715  1.00  0.00     0.085 C 
BRANCH  19  20
HETATM   20  C14 UNL     1      24.887   5.748  49.392  1.00  0.00    -0.052 A 
HETATM   21  C15 UNL     1      25.255   4.456  49.686  1.00  0.00     0.007 A 
HETATM   22  C16 UNL     1      26.510   3.914  49.415  1.00  0.00     0.002 A 
HETATM   23  C17 UNL     1      27.456   4.712  48.816  1.00  0.00     0.019 A 
HETATM   24  C18 UNL     1      27.135   6.030  48.499  1.00  0.00     0.011 A 
HETATM   25 BR1  UNL     1      28.458   7.135  47.660  1.00  0.00    -0.051 Br
HETATM   26  C19 UNL     1      25.872   6.520  48.788  1.00  0.00     0.026 A 
ENDBRANCH  19  20
ENDBRANCH  18  19
ENDBRANCH   6  17
TORSDOF 7
ENDMDL
MODEL 6
REMARK VINA RESULT:      -6.9      4.337      5.700
REMARK  7 active torsions:
REMARK  status: ('A' for Active; 'I' for Inactive)
REMARK    1  A    between atoms: C2_2  and  N1_4 
REMARK    2  A    between atoms: N1_4  and  C5_6 
REMARK    3  A    between atoms: C5_6  and  C6_7 
REMARK    4  A    between atoms: C7_8  and  C8_9 
REMARK       I    between atoms: C8_9  and  N2_11 
REMARK    5  A    between atoms: C11_14  and  N3_15 
REMARK    6  A    between atoms: C12_16  and  C13_17 
REMARK    7  A    between atoms: C13_17  and  C14_18 
ROOT
HETATM    1  C8  UNL     1      27.040   6.124  48.573  1.00  0.00     0.298 C 
HETATM    2  O1  UNL     1      26.681   7.259  48.110  1.00  0.00    -0.258 OA
HETATM    3  N2  UNL     1      26.198   5.268  49.299  1.00  0.00    -0.338 N 
HETATM    4  C9  UNL     1      26.494   3.954  49.874  1.00  0.00     0.156 C 
HETATM    5  C10 UNL     1      25.262   3.127  49.945  1.00  0.00     0.020 C 
HETATM    6  C11 UNL     1      24.055   3.450  49.465  1.00  0.00     0.033 C 
HETATM    7  C20 UNL     1      23.926   4.773  48.786  1.00  0.00     0.079 C 
HETATM    8  C21 UNL     1      24.842   5.729  49.524  1.00  0.00     0.133 C 
ENDROOT
BRANCH   1   9
HETATM    9  C7  UNL     1      28.406   5.780  48.287  1.00  0.00    -0.004 C 
HETATM   10  C6  UNL     1      29.554   5.507  48.034  1.00  0.00    -0.077 C 
BRANCH  10  11
HETATM   11  C5  UNL     1      30.937   5.153  47.719  1.00  0.00     0.212 C 
BRANCH  11  12
HETATM   12  N1  UNL     1      31.915   6.009  48.280  1.00  0.00    -0.403 N 
HETATM   13  C4  UNL     1      31.927   6.014  49.689  1.00  0.00     0.144 C 
BRANCH  12  14
HETATM   14  C2  UNL     1      32.293   7.167  47.583  1.00  0.00     0.071 C 
HETATM   15  C1  UNL     1      33.734   7.257  47.156  1.00  0.00     0.031 C 
HETATM   16  C3  UNL     1      31.967   8.457  48.283  1.00  0.00     0.031 C 
ENDBRANCH  12  14
ENDBRANCH  11  12
ENDBRANCH  10  11
ENDBRANCH   1   9
BRANCH   6  17
HETATM   17  N3  UNL     1      23.123   2.431  49.711  1.00  0.00    -0.270 NA
HETATM   18  C12 UNL     1      23.053   1.680  50.740  1.00  0.00     0.094 C 
BRANCH  18  19
HETATM   19  C13 UNL     1      23.618   1.327  52.047  1.00  0.00     0.085 C 
BRANCH  19  20
HETATM   20  C14 UNL     1      22.729   0.439  52.827  1.00  0.00    -0.052 A 
HETATM   21  C15 UNL     1      23.221  -0.308  53.872  1.00  0.00     0.007 A 
HETATM   22  C16 UNL     1      22.453  -1.166  54.656  1.00  0.00     0.002 A 
HETATM   23  C17 UNL     1      21.112  -1.287  54.379  1.00  0.00     0.019 A 
HETATM   24  C18 UNL     1      20.562  -0.553  53.330  1.00  0.00     0.011 A 
HETATM   25 BR1  UNL     1      18.691  -0.723  52.954  1.00  0.00    -0.051 Br
HETATM   26  C19 UNL     1      21.369   0.288  52.581  1.00  0.00     0.026 A 
ENDBRANCH  19  20
ENDBRANCH  18  19
ENDBRANCH   6  17
TORSDOF 7
ENDMDL
MODEL 7
REMARK VINA RESULT:      -6.8      1.706      2.363
REMARK  7 active torsions:
REMARK  status: ('A' for Active; 'I' for Inactive)
REMARK    1  A    between atoms: C2_2  and  N1_4 
REMARK    2  A    between atoms: N1_4  and  C5_6 
REMARK    3  A    between atoms: C5_6  and  C6_7 
REMARK    4  A    between atoms: C7_8  and  C8_9 
REMARK       I    between atoms: C8_9  and  N2_11 
REMARK    5  A    between atoms: C11_14  and  N3_15 
REMARK    6  A    between atoms: C12_16  and  C13_17 
REMARK    7  A    between atoms: C13_17  and  C14_18 
ROOT
HETATM    1  C8  UNL     1      26.279   3.238  50.587  1.00  0.00     0.298 C 
HETATM    2  O1  UNL     1      27.115   3.547  49.672  1.00  0.00    -0.258 OA
HETATM    3  N2  UNL     1      24.988   3.779  50.688  1.00  0.00    -0.338 N 
HETATM    4  C9  UNL     1      23.949   3.501  51.682  1.00  0.00     0.156 C 
HETATM    5  C10 UNL     1      22.600   3.714  51.098  1.00  0.00     0.020 C 
HETATM    6  C11 UNL     1      22.319   4.009  49.823  1.00  0.00     0.033 C 
HETATM    7  C20 UNL     1      23.473   4.137  48.886  1.00  0.00     0.079 C 
HETATM    8  C21 UNL     1      24.610   4.749  49.680  1.00  0.00     0.133 C 
ENDROOT
BRANCH   1   9
HETATM    9  C7  UNL     1      26.770   2.268  51.526  1.00  0.00    -0.004 C 
HETATM   10  C6  UNL     1      27.178   1.439  52.302  1.00  0.00    -0.077 C 
BRANCH  10  11
HETATM   11  C5  UNL     1      27.656   0.443  53.261  1.00  0.00     0.212 C 
BRANCH  11  12
HETATM   12  N1  UNL     1      26.733  -0.585  53.563  1.00  0.00    -0.403 N 
HETATM   13  C4  UNL     1      26.789  -1.680  52.677  1.00  0.00     0.144 C 
BRANCH  12  14
HETATM   14  C2  UNL     1      25.513  -0.254  54.173  1.00  0.00     0.071 C 
HETATM   15  C1  UNL     1      25.198  -0.947  55.472  1.00  0.00     0.031 C 
HETATM   16  C3  UNL     1      24.305  -0.417  53.292  1.00  0.00     0.031 C 
ENDBRANCH  12  14
ENDBRANCH  11  12
ENDBRANCH  10  11
ENDBRANCH   1   9
BRANCH   6  17
HETATM   17  N3  UNL     1      20.936   4.140  49.627  1.00  0.00    -0.270 NA
HETATM   18  C12 UNL     1      20.101   3.212  49.364  1.00  0.00     0.094 C 
BRANCH  18  19
HETATM   19  C13 UNL     1      19.887   1.782  49.125  1.00  0.00     0.085 C 
BRANCH  19  20
HETATM   20  C14 UNL     1      19.705   1.018  50.379  1.00  0.00    -0.052 A 
HETATM   21  C15 UNL     1      20.775   0.755  51.203  1.00  0.00     0.007 A 
HETATM   22  C16 UNL     1      20.690   0.046  52.399  1.00  0.00     0.002 A 
HETATM   23  C17 UNL     1      19.463  -0.431  52.796  1.00  0.00     0.019 A 
HETATM   24  C18 UNL     1      18.347  -0.193  51.997  1.00  0.00     0.011 A 
HETATM   25 BR1  UNL     1      16.639  -0.857  52.559  1.00  0.00    -0.051 Br
HETATM   26  C19 UNL     1      18.484   0.519  50.816  1.00  0.00     0.026 A 
ENDBRANCH  19  20
ENDBRANCH  18  19
ENDBRANCH   6  17
TORSDOF 7
ENDMDL
MODEL 8
REMARK VINA RESULT:      -6.7      2.534      6.430
REMARK  7 active torsions:
REMARK  status: ('A' for Active; 'I' for Inactive)
REMARK    1  A    between atoms: C2_2  and  N1_4 
REMARK    2  A    between atoms: N1_4  and  C5_6 
REMARK    3  A    between atoms: C5_6  and  C6_7 
REMARK    4  A    between atoms: C7_8  and  C8_9 
REMARK       I    between atoms: C8_9  and  N2_11 
REMARK    5  A    between atoms: C11_14  and  N3_15 
REMARK    6  A    between atoms: C12_16  and  C13_17 
REMARK    7  A    between atoms: C13_17  and  C14_18 
ROOT
HETATM    1  C8  UNL     1      26.396   3.965  49.594  1.00  0.00     0.298 C 
HETATM    2  O1  UNL     1      27.430   3.747  48.878  1.00  0.00    -0.258 OA
HETATM    3  N2  UNL     1      25.980   3.136  50.648  1.00  0.00    -0.338 N 
HETATM    4  C9  UNL     1      24.823   3.283  51.533  1.00  0.00     0.156 C 
HETATM    5  C10 UNL     1      25.094   2.654  52.852  1.00  0.00     0.020 C 
HETATM    6  C11 UNL     1      26.250   2.117  53.258  1.00  0.00     0.033 C 
HETATM    7  C20 UNL     1      27.389   2.150  52.295  1.00  0.00     0.079 C 
HETATM    8  C21 UNL     1      26.794   1.966  50.913  1.00  0.00     0.133 C 
ENDROOT
BRANCH   1   9
HETATM    9  C7  UNL     1      25.672   5.152  49.234  1.00  0.00    -0.004 C 
HETATM   10  C6  UNL     1      25.058   6.152  48.950  1.00  0.00    -0.077 C 
BRANCH  10  11
HETATM   11  C5  UNL     1      24.301   7.350  48.588  1.00  0.00     0.212 C 
BRANCH  11  12
HETATM   12  N1  UNL     1      23.351   7.768  49.549  1.00  0.00    -0.403 N 
HETATM   13  C4  UNL     1      23.886   7.939  50.841  1.00  0.00     0.144 C 
BRANCH  12  14
HETATM   14  C2  UNL     1      22.011   7.377  49.404  1.00  0.00     0.071 C 
HETATM   15  C1  UNL     1      21.253   7.980  48.252  1.00  0.00     0.031 C 
HETATM   16  C3  UNL     1      21.162   7.573  50.630  1.00  0.00     0.031 C 
ENDBRANCH  12  14
ENDBRANCH  11  12
ENDBRANCH  10  11
ENDBRANCH   1   9
BRANCH   6  17
HETATM   17  N3  UNL     1      26.144   1.613  54.563  1.00  0.00    -0.270 NA
HETATM   18  C12 UNL     1      25.706   0.468  54.916  1.00  0.00     0.094 C 
BRANCH  18  19
HETATM   19  C13 UNL     1      25.150  -0.821  54.492  1.00  0.00     0.085 C 
BRANCH  19  20
HETATM   20  C14 UNL     1      23.719  -0.730  54.127  1.00  0.00    -0.052 A 
HETATM   21  C15 UNL     1      22.743  -1.167  54.992  1.00  0.00     0.007 A 
HETATM   22  C16 UNL     1      21.377  -1.116  54.727  1.00  0.00     0.002 A 
HETATM   23  C17 UNL     1      20.959  -0.598  53.524  1.00  0.00     0.019 A 
HETATM   24  C18 UNL     1      21.907  -0.142  52.611  1.00  0.00     0.011 A 
HETATM   25 BR1  UNL     1      21.316   0.583  50.938  1.00  0.00    -0.051 Br
HETATM   26  C19 UNL     1      23.255  -0.213  52.924  1.00  0.00     0.026 A 
ENDBRANCH  19  20
ENDBRANCH  18  19
ENDBRANCH   6  17
TORSDOF 7
ENDMDL
MODEL 9
REMARK VINA RESULT:      -6.6      4.118      5.468
REMARK  7 active torsions:
REMARK  status: ('A' for Active; 'I' for Inactive)
REMARK    1  A    between atoms: C2_2  and  N1_4 
REMARK    2  A    between atoms: N1_4  and  C5_6 
REMARK    3  A    between atoms: C5_6  and  C6_7 
REMARK    4  A    between atoms: C7_8  and  C8_9 
REMARK       I    between atoms: C8_9  and  N2_11 
REMARK    5  A    between atoms: C11_14  and  N3_15 
REMARK    6  A    between atoms: C12_16  and  C13_17 
REMARK    7  A    between atoms: C13_17  and  C14_18 
ROOT
HETATM    1  C8  UNL     1      22.836   0.958  52.016  1.00  0.00     0.298 C 
HETATM    2  O1  UNL     1      23.174   1.348  50.848  1.00  0.00    -0.258 OA
HETATM    3  N2  UNL     1      21.514   0.942  52.487  1.00  0.00    -0.338 N 
HETATM    4  C9  UNL     1      21.008   0.519  53.795  1.00  0.00     0.156 C 
HETATM    5  C10 UNL     1      19.612   0.025  53.677  1.00  0.00     0.020 C 
HETATM    6  C11 UNL     1      18.914  -0.133  52.546  1.00  0.00     0.033 C 
HETATM    7  C20 UNL     1      19.600   0.218  51.270  1.00  0.00     0.079 C 
HETATM    8  C21 UNL     1      20.492   1.406  51.570  1.00  0.00     0.133 C 
ENDROOT
BRANCH   1   9
HETATM    9  C7  UNL     1      23.937   0.524  52.831  1.00  0.00    -0.004 C 
HETATM   10  C6  UNL     1      24.872   0.176  53.510  1.00  0.00    -0.077 C 
BRANCH  10  11
HETATM   11  C5  UNL     1      26.006  -0.268  54.319  1.00  0.00     0.212 C 
BRANCH  11  12
HETATM   12  N1  UNL     1      27.140  -0.682  53.581  1.00  0.00    -0.403 N 
HETATM   13  C4  UNL     1      26.873  -1.710  52.656  1.00  0.00     0.144 C 
BRANCH  12  14
HETATM   14  C2  UNL     1      28.410  -0.598  54.171  1.00  0.00     0.071 C 
HETATM   15  C1  UNL     1      28.726   0.671  54.916  1.00  0.00     0.031 C 
HETATM   16  C3  UNL     1      29.558  -0.843  53.231  1.00  0.00     0.031 C 
ENDBRANCH  12  14
ENDBRANCH  11  12
ENDBRANCH  10  11
ENDBRANCH   1   9
BRANCH   6  17
HETATM   17  N3  UNL     1      17.624  -0.619  52.811  1.00  0.00    -0.270 NA
HETATM   18  C12 UNL     1      17.301  -1.805  53.153  1.00  0.00     0.094 C 
BRANCH  18  19
HETATM   19  C13 UNL     1      17.755  -3.166  53.456  1.00  0.00     0.085 C 
BRANCH  19  20
HETATM   20  C14 UNL     1      16.648  -4.147  53.454  1.00  0.00    -0.052 A 
HETATM   21  C15 UNL     1      15.818  -4.271  52.364  1.00  0.00     0.007 A 
HETATM   22  C16 UNL     1      14.755  -5.168  52.282  1.00  0.00     0.002 A 
HETATM   23  C17 UNL     1      14.505  -5.991  53.355  1.00  0.00     0.019 A 
HETATM   24  C18 UNL     1      15.315  -5.905  54.485  1.00  0.00     0.011 A 
HETATM   25 BR1  UNL     1      14.961  -7.059  55.974  1.00  0.00    -0.051 Br
HETATM   26  C19 UNL     1      16.361  -4.997  54.516  1.00  0.00     0.026 A 
ENDBRANCH  19  20
ENDBRANCH  18  19
ENDBRANCH   6  17
TORSDOF 7
ENDMDL
