MODEL 1
REMARK VINA RESULT:      -7.6      0.000      0.000
REMARK  7 active torsions:
REMARK  status: ('A' for Active; 'I' for Inactive)
REMARK    1  A    between atoms: C6_7  and  C7_8 
REMARK    2  A    between atoms: C8_9  and  C9_10 
REMARK    3  A    between atoms: C9_10  and  C10_11 
REMARK    4  A    between atoms: C11_12  and  C12_13 
REMARK    5  A    between atoms: C13_14  and  O1_15 
REMARK    6  A    between atoms: O1_15  and  C14_16 
REMARK    7  A    between atoms: C14_16  and  C15_17 
ROOT
HETATM    1  N1  UNL     1      27.637  -0.307  54.445  1.00  0.00    -0.191 NA
HETATM    2  C1  UNL     1      26.477  -0.421  54.470  1.00  0.00     0.100 C 
HETATM    3  C2  UNL     1      25.051  -0.585  54.493  1.00  0.00     0.058 A 
HETATM    4  C3  UNL     1      24.298  -0.102  53.518  1.00  0.00     0.003 A 
HETATM    5  C4  UNL     1      22.823  -0.176  53.377  1.00  0.00     0.088 A 
HETATM    6  C5  UNL     1      22.256  -0.904  54.535  1.00  0.00     0.037 A 
HETATM    7  C6  UNL     1      20.943  -1.059  54.563  1.00  0.00     0.027 C 
HETATM    8  N2  UNL     1      23.056  -1.426  55.586  1.00  0.00    -0.264 NA
HETATM    9  C21 UNL     1      24.343  -1.277  55.562  1.00  0.00     0.139 A 
ENDROOT
BRANCH   7  10
HETATM   10  C7  UNL     1      20.206  -0.487  53.435  1.00  0.00    -0.002 C 
HETATM   11  C8  UNL     1      19.021  -0.906  53.059  1.00  0.00    -0.023 C 
BRANCH  11  12
HETATM   12  C9  UNL     1      18.185  -0.401  51.935  1.00  0.00     0.054 C 
BRANCH  12  13
HETATM   13  C10 UNL     1      18.947   0.560  51.096  1.00  0.00    -0.014 C 
HETATM   14  C11 UNL     1      18.781   1.215  49.941  1.00  0.00     0.063 C 
BRANCH  14  15
HETATM   15  C12 UNL     1      19.821   2.089  49.474  1.00  0.00    -0.049 C 
HETATM   16  C13 UNL     1      20.699   2.830  49.102  1.00  0.00     0.059 C 
BRANCH  16  17
HETATM   17  O1  UNL     1      21.688   3.679  48.698  1.00  0.00    -0.299 OA
BRANCH  17  18
HETATM   18  C14 UNL     1      22.366   4.522  49.645  1.00  0.00     0.226 C 
BRANCH  18  19
HETATM   19  C15 UNL     1      23.786   4.119  49.804  1.00  0.00    -0.032 A 
HETATM   20  C16 UNL     1      23.931   3.040  50.675  1.00  0.00     0.009 A 
HETATM   21  C17 UNL     1      25.164   2.501  50.969  1.00  0.00     0.002 A 
HETATM   22  C18 UNL     1      26.275   3.087  50.353  1.00  0.00     0.019 A 
HETATM   23  C19 UNL     1      26.122   4.146  49.500  1.00  0.00     0.011 A 
HETATM   24 BR1  UNL     1      27.637   4.941  48.664  1.00  0.00    -0.051 Br
HETATM   25  C20 UNL     1      24.880   4.688  49.205  1.00  0.00     0.028 A 
ENDBRANCH  18  19
ENDBRANCH  17  18
ENDBRANCH  16  17
ENDBRANCH  14  15
ENDBRANCH  12  13
ENDBRANCH  11  12
ENDBRANCH   7  10
TORSDOF 7
ENDMDL
MODEL 2
REMARK VINA RESULT:      -7.5      5.289      8.051
REMARK  7 active torsions:
REMARK  status: ('A' for Active; 'I' for Inactive)
REMARK    1  A    between atoms: C6_7  and  C7_8 
REMARK    2  A    between atoms: C8_9  and  C9_10 
REMARK    3  A    between atoms: C9_10  and  C10_11 
REMARK    4  A    between atoms: C11_12  and  C12_13 
REMARK    5  A    between atoms: C13_14  and  O1_15 
REMARK    6  A    between atoms: O1_15  and  C14_16 
REMARK    7  A    between atoms: C14_16  and  C15_17 
ROOT
HETATM    1  N1  UNL     1      21.631  -1.372  55.188  1.00  0.00    -0.191 NA
HETATM    2  C1  UNL     1      22.522  -0.917  54.591  1.00  0.00     0.100 C 
HETATM    3  C2  UNL     1      23.621  -0.337  53.872  1.00  0.00     0.058 A 
HETATM    4  C3  UNL     1      23.412   0.375  52.776  1.00  0.00     0.003 A 
HETATM    5  C4  UNL     1      24.417   1.042  51.912  1.00  0.00     0.088 A 
HETATM    6  C5  UNL     1      25.771   0.799  52.458  1.00  0.00     0.037 A 
HETATM    7  C6  UNL     1      26.790   1.329  51.801  1.00  0.00     0.027 C 
HETATM    8  N2  UNL     1      26.006   0.035  53.633  1.00  0.00    -0.264 NA
HETATM    9  C21 UNL     1      25.012  -0.486  54.281  1.00  0.00     0.139 A 
ENDROOT
BRANCH   7  10
HETATM   10  C7  UNL     1      26.447   2.099  50.603  1.00  0.00    -0.002 C 
HETATM   11  C8  UNL     1      26.500   3.409  50.547  1.00  0.00    -0.023 C 
BRANCH  11  12
HETATM   12  C9  UNL     1      26.177   4.289  49.390  1.00  0.00     0.054 C 
BRANCH  12  13
HETATM   13  C10 UNL     1      27.401   4.943  48.861  1.00  0.00    -0.014 C 
HETATM   14  C11 UNL     1      27.737   6.109  48.297  1.00  0.00     0.063 C 
BRANCH  14  15
HETATM   15  C12 UNL     1      29.103   6.339  47.920  1.00  0.00    -0.049 C 
HETATM   16  C13 UNL     1      30.248   6.553  47.601  1.00  0.00     0.059 C 
BRANCH  16  17
HETATM   17  O1  UNL     1      31.536   6.812  47.227  1.00  0.00    -0.299 OA
BRANCH  17  18
HETATM   18  C14 UNL     1      32.032   6.380  45.949  1.00  0.00     0.226 C 
BRANCH  18  19
HETATM   19  C15 UNL     1      32.798   5.114  46.069  1.00  0.00    -0.032 A 
HETATM   20  C16 UNL     1      34.079   5.223  45.530  1.00  0.00     0.009 A 
HETATM   21  C17 UNL     1      34.964   4.167  45.533  1.00  0.00     0.002 A 
HETATM   22  C18 UNL     1      34.520   2.970  46.104  1.00  0.00     0.019 A 
HETATM   23  C19 UNL     1      33.260   2.873  46.630  1.00  0.00     0.011 A 
HETATM   24 BR1  UNL     1      32.659   1.241  47.407  1.00  0.00    -0.051 Br
HETATM   25  C20 UNL     1      32.371   3.937  46.627  1.00  0.00     0.028 A 
ENDBRANCH  18  19
ENDBRANCH  17  18
ENDBRANCH  16  17
ENDBRANCH  14  15
ENDBRANCH  12  13
ENDBRANCH  11  12
ENDBRANCH   7  10
TORSDOF 7
ENDMDL
MODEL 3
REMARK VINA RESULT:      -7.4      1.530      2.406
REMARK  7 active torsions:
REMARK  status: ('A' for Active; 'I' for Inactive)
REMARK    1  A    between atoms: C6_7  and  C7_8 
REMARK    2  A    between atoms: C8_9  and  C9_10 
REMARK    3  A    between atoms: C9_10  and  C10_11 
REMARK    4  A    between atoms: C11_12  and  C12_13 
REMARK    5  A    between atoms: C13_14  and  O1_15 
REMARK    6  A    between atoms: O1_15  and  C14_16 
REMARK    7  A    between atoms: C14_16  and  C15_17 
ROOT
HETATM    1  N1  UNL     1      29.041   2.496  53.301  1.00  0.00    -0.191 NA
HETATM    2  C1  UNL     1      28.090   1.863  53.530  1.00  0.00     0.100 C 
HETATM    3  C2  UNL     1      26.928   1.064  53.797  1.00  0.00     0.058 A 
HETATM    4  C3  UNL     1      25.793   1.281  53.152  1.00  0.00     0.003 A 
HETATM    5  C4  UNL     1      24.504   0.561  53.297  1.00  0.00     0.088 A 
HETATM    6  C5  UNL     1      24.648  -0.499  54.320  1.00  0.00     0.037 A 
HETATM    7  C6  UNL     1      23.581  -1.239  54.573  1.00  0.00     0.027 C 
HETATM    8  N2  UNL     1      25.860  -0.740  55.019  1.00  0.00    -0.264 NA
HETATM    9  C21 UNL     1      26.908  -0.017  54.774  1.00  0.00     0.139 A 
ENDROOT
BRANCH   7  10
HETATM   10  C7  UNL     1      22.379  -0.915  53.802  1.00  0.00    -0.002 C 
HETATM   11  C8  UNL     1      21.163  -1.027  54.280  1.00  0.00    -0.023 C 
BRANCH  11  12
HETATM   12  C9  UNL     1      19.877  -0.727  53.590  1.00  0.00     0.054 C 
BRANCH  12  13
HETATM   13  C10 UNL     1      20.117  -0.068  52.281  1.00  0.00    -0.014 C 
HETATM   14  C11 UNL     1      19.391   0.401  51.260  1.00  0.00     0.063 C 
BRANCH  14  15
HETATM   15  C12 UNL     1      20.061   0.990  50.134  1.00  0.00    -0.049 C 
HETATM   16  C13 UNL     1      20.630   1.466  49.181  1.00  0.00     0.059 C 
BRANCH  16  17
HETATM   17  O1  UNL     1      21.289   1.988  48.105  1.00  0.00    -0.299 OA
BRANCH  17  18
HETATM   18  C14 UNL     1      21.449   3.409  47.960  1.00  0.00     0.226 C 
BRANCH  18  19
HETATM   19  C15 UNL     1      22.557   3.915  48.808  1.00  0.00    -0.032 A 
HETATM   20  C16 UNL     1      22.207   5.081  49.489  1.00  0.00     0.009 A 
HETATM   21  C17 UNL     1      23.085   5.723  50.334  1.00  0.00     0.002 A 
HETATM   22  C18 UNL     1      24.354   5.154  50.482  1.00  0.00     0.019 A 
HETATM   23  C19 UNL     1      24.688   4.010  49.809  1.00  0.00     0.011 A 
HETATM   24 BR1  UNL     1      26.417   3.238  50.013  1.00  0.00    -0.051 Br
HETATM   25  C20 UNL     1      23.803   3.364  48.959  1.00  0.00     0.028 A 
ENDBRANCH  18  19
ENDBRANCH  17  18
ENDBRANCH  16  17
ENDBRANCH  14  15
ENDBRANCH  12  13
ENDBRANCH  11  12
ENDBRANCH   7  10
TORSDOF 7
ENDMDL
MODEL 4
REMARK VINA RESULT:      -7.3      2.569      5.634
REMARK  7 active torsions:
REMARK  status: ('A' for Active; 'I' for Inactive)
REMARK    1  A    between atoms: C6_7  and  C7_8 
REMARK    2  A    between atoms: C8_9  and  C9_10 
REMARK    3  A    between atoms: C9_10  and  C10_11 
REMARK    4  A    between atoms: C11_12  and  C12_13 
REMARK    5  A    between atoms: C13_14  and  O1_15 
REMARK    6  A    between atoms: O1_15  and  C14_16 
REMARK    7  A    between atoms: C14_16  and  C15_17 
ROOT
HETATM    1  N1  UNL     1      17.833  -0.976  53.162  1.00  0.00    -0.191 NA
HETATM    2  C1  UNL     1      18.982  -0.920  53.345  1.00  0.00     0.100 C 
HETATM    3  C2  UNL     1      20.394  -0.837  53.592  1.00  0.00     0.058 A 
HETATM    4  C3  UNL     1      21.154  -0.000  52.905  1.00  0.00     0.003 A 
HETATM    5  C4  UNL     1      22.617   0.218  53.023  1.00  0.00     0.088 A 
HETATM    6  C5  UNL     1      23.161  -0.674  54.072  1.00  0.00     0.037 A 
HETATM    7  C6  UNL     1      24.462  -0.604  54.305  1.00  0.00     0.027 C 
HETATM    8  N2  UNL     1      22.355  -1.577  54.815  1.00  0.00    -0.264 NA
HETATM    9  C21 UNL     1      21.080  -1.648  54.590  1.00  0.00     0.139 A 
ENDROOT
BRANCH   7  10
HETATM   10  C7  UNL     1      25.208   0.356  53.489  1.00  0.00    -0.002 C 
HETATM   11  C8  UNL     1      26.407   0.119  53.012  1.00  0.00    -0.023 C 
BRANCH  11  12
HETATM   12  C9  UNL     1      27.252   1.017  52.176  1.00  0.00     0.054 C 
BRANCH  12  13
HETATM   13  C10 UNL     1      26.414   1.960  51.393  1.00  0.00    -0.014 C 
HETATM   14  C11 UNL     1      26.597   2.971  50.536  1.00  0.00     0.063 C 
BRANCH  14  15
HETATM   15  C12 UNL     1      25.452   3.643  49.988  1.00  0.00    -0.049 C 
HETATM   16  C13 UNL     1      24.491   4.223  49.542  1.00  0.00     0.059 C 
BRANCH  16  17
HETATM   17  O1  UNL     1      23.401   4.887  49.057  1.00  0.00    -0.299 OA
BRANCH  17  18
HETATM   18  C14 UNL     1      22.506   4.252  48.129  1.00  0.00     0.226 C 
BRANCH  18  19
HETATM   19  C15 UNL     1      21.674   3.223  48.801  1.00  0.00    -0.032 A 
HETATM   20  C16 UNL     1      21.979   1.935  48.363  1.00  0.00     0.009 A 
HETATM   21  C17 UNL     1      21.327   0.825  48.855  1.00  0.00     0.002 A 
HETATM   22  C18 UNL     1      20.338   1.045  49.819  1.00  0.00     0.019 A 
HETATM   23  C19 UNL     1      20.047   2.314  50.241  1.00  0.00     0.011 A 
HETATM   24 BR1  UNL     1      18.699   2.611  51.555  1.00  0.00    -0.051 Br
HETATM   25  C20 UNL     1      20.703   3.431  49.746  1.00  0.00     0.028 A 
ENDBRANCH  18  19
ENDBRANCH  17  18
ENDBRANCH  16  17
ENDBRANCH  14  15
ENDBRANCH  12  13
ENDBRANCH  11  12
ENDBRANCH   7  10
TORSDOF 7
ENDMDL
MODEL 5
REMARK VINA RESULT:      -7.2      4.781      7.005
REMARK  7 active torsions:
REMARK  status: ('A' for Active; 'I' for Inactive)
REMARK    1  A    between atoms: C6_7  and  C7_8 
REMARK    2  A    between atoms: C8_9  and  C9_10 
REMARK    3  A    between atoms: C9_10  and  C10_11 
REMARK    4  A    between atoms: C11_12  and  C12_13 
REMARK    5  A    between atoms: C13_14  and  O1_15 
REMARK    6  A    between atoms: O1_15  and  C14_16 
REMARK    7  A    between atoms: C14_16  and  C15_17 
ROOT
HETATM    1  N1  UNL     1      27.929  -2.209  52.908  1.00  0.00    -0.191 NA
HETATM    2  C1  UNL     1      27.157  -1.341  52.809  1.00  0.00     0.100 C 
HETATM    3  C2  UNL     1      26.195  -0.285  52.668  1.00  0.00     0.058 A 
HETATM    4  C3  UNL     1      26.495   0.821  52.008  1.00  0.00     0.003 A 
HETATM    5  C4  UNL     1      25.635   2.005  51.765  1.00  0.00     0.088 A 
HETATM    6  C5  UNL     1      24.312   1.787  52.392  1.00  0.00     0.037 A 
HETATM    7  C6  UNL     1      23.420   2.756  52.267  1.00  0.00     0.027 C 
HETATM    8  N2  UNL     1      23.980   0.603  53.103  1.00  0.00    -0.264 NA
HETATM    9  C21 UNL     1      24.850  -0.349  53.227  1.00  0.00     0.139 A 
ENDROOT
BRANCH   7  10
HETATM   10  C7  UNL     1      23.855   3.935  51.517  1.00  0.00    -0.002 C 
HETATM   11  C8  UNL     1      23.351   4.279  50.355  1.00  0.00    -0.023 C 
BRANCH  11  12
HETATM   12  C9  UNL     1      23.716   5.450  49.510  1.00  0.00     0.054 C 
BRANCH  12  13
HETATM   13  C10 UNL     1      25.154   5.412  49.142  1.00  0.00    -0.014 C 
HETATM   14  C11 UNL     1      26.190   4.577  49.279  1.00  0.00     0.063 C 
BRANCH  14  15
HETATM   15  C12 UNL     1      27.470   4.953  48.747  1.00  0.00    -0.049 C 
HETATM   16  C13 UNL     1      28.555   5.270  48.320  1.00  0.00     0.059 C 
BRANCH  16  17
HETATM   17  O1  UNL     1      29.784   5.639  47.855  1.00  0.00    -0.299 OA
BRANCH  17  18
HETATM   18  C14 UNL     1      30.595   6.575  48.585  1.00  0.00     0.226 C 
BRANCH  18  19
HETATM   19  C15 UNL     1      32.041   6.292  48.401  1.00  0.00    -0.032 A 
HETATM   20  C16 UNL     1      32.823   7.435  48.557  1.00  0.00     0.009 A 
HETATM   21  C17 UNL     1      34.195   7.403  48.429  1.00  0.00     0.002 A 
HETATM   22  C18 UNL     1      34.775   6.165  48.133  1.00  0.00     0.019 A 
HETATM   23  C19 UNL     1      33.998   5.049  47.982  1.00  0.00     0.011 A 
HETATM   24 BR1  UNL     1      34.792   3.365  47.580  1.00  0.00    -0.051 Br
HETATM   25  C20 UNL     1      32.618   5.082  48.111  1.00  0.00     0.028 A 
ENDBRANCH  18  19
ENDBRANCH  17  18
ENDBRANCH  16  17
ENDBRANCH  14  15
ENDBRANCH  12  13
ENDBRANCH  11  12
ENDBRANCH   7  10
TORSDOF 7
ENDMDL
MODEL 6
REMARK VINA RESULT:      -7.2      2.260      4.449
REMARK  7 active torsions:
REMARK  status: ('A' for Active; 'I' for Inactive)
REMARK    1  A    between atoms: C6_7  and  C7_8 
REMARK    2  A    between atoms: C8_9  and  C9_10 
REMARK    3  A    between atoms: C9_10  and  C10_11 
REMARK    4  A    between atoms: C11_12  and  C12_13 
REMARK    5  A    between atoms: C13_14  and  O1_15 
REMARK    6  A    between atoms: O1_15  and  C14_16 
REMARK    7  A    between atoms: C14_16  and  C15_17 
ROOT
HETATM    1  N1  UNL     1      26.944   4.465  49.045  1.00  0.00    -0.191 NA
HETATM    2  C1  UNL     1      26.599   3.711  49.864  1.00  0.00     0.100 C 
HETATM    3  C2  UNL     1      26.185   2.763  50.859  1.00  0.00     0.058 A 
HETATM    4  C3  UNL     1      24.935   2.330  50.904  1.00  0.00     0.003 A 
HETATM    5  C4  UNL     1      24.334   1.362  51.853  1.00  0.00     0.088 A 
HETATM    6  C5  UNL     1      25.368   0.907  52.810  1.00  0.00     0.037 A 
HETATM    7  C6  UNL     1      24.994   0.034  53.730  1.00  0.00     0.027 C 
HETATM    8  N2  UNL     1      26.712   1.365  52.771  1.00  0.00    -0.264 NA
HETATM    9  C21 UNL     1      27.084   2.220  51.870  1.00  0.00     0.139 A 
ENDROOT
BRANCH   7  10
HETATM   10  C7  UNL     1      23.590  -0.379  53.689  1.00  0.00    -0.002 C 
HETATM   11  C8  UNL     1      23.001  -1.034  54.661  1.00  0.00    -0.023 C 
BRANCH  11  12
HETATM   12  C9  UNL     1      21.588  -1.500  54.725  1.00  0.00     0.054 C 
BRANCH  12  13
HETATM   13  C10 UNL     1      20.783  -0.911  53.625  1.00  0.00    -0.014 C 
HETATM   14  C11 UNL     1      19.525  -0.501  53.428  1.00  0.00     0.063 C 
BRANCH  14  15
HETATM   15  C12 UNL     1      19.152   0.031  52.146  1.00  0.00    -0.049 C 
HETATM   16  C13 UNL     1      18.860   0.478  51.063  1.00  0.00     0.059 C 
BRANCH  16  17
HETATM   17  O1  UNL     1      18.548   0.992  49.837  1.00  0.00    -0.299 OA
BRANCH  17  18
HETATM   18  C14 UNL     1      18.727   2.391  49.559  1.00  0.00     0.226 C 
BRANCH  18  19
HETATM   19  C15 UNL     1      20.132   2.690  49.186  1.00  0.00    -0.032 A 
HETATM   20  C16 UNL     1      20.740   1.619  48.532  1.00  0.00     0.009 A 
HETATM   21  C17 UNL     1      22.045   1.678  48.095  1.00  0.00     0.002 A 
HETATM   22  C18 UNL     1      22.742   2.867  48.337  1.00  0.00     0.019 A 
HETATM   23  C19 UNL     1      22.135   3.912  48.980  1.00  0.00     0.011 A 
HETATM   24 BR1  UNL     1      23.087   5.529  49.307  1.00  0.00    -0.051 Br
HETATM   25  C20 UNL     1      20.821   3.852  49.419  1.00  0.00     0.028 A 
ENDBRANCH  18  19
ENDBRANCH  17  18
ENDBRANCH  16  17
ENDBRANCH  14  15
ENDBRANCH  12  13
ENDBRANCH  11  12
ENDBRANCH   7  10
TORSDOF 7
ENDMDL
MODEL 7
REMARK VINA RESULT:      -7.1      5.728      8.543
REMARK  7 active torsions:
REMARK  status: ('A' for Active; 'I' for Inactive)
REMARK    1  A    between atoms: C6_7  and  C7_8 
REMARK    2  A    between atoms: C8_9  and  C9_10 
REMARK    3  A    between atoms: C9_10  and  C10_11 
REMARK    4  A    between atoms: C11_12  and  C12_13 
REMARK    5  A    between atoms: C13_14  and  O1_15 
REMARK    6  A    between atoms: O1_15  and  C14_16 
REMARK    7  A    between atoms: C14_16  and  C15_17 
ROOT
HETATM    1  N1  UNL     1      28.479  -0.432  54.689  1.00  0.00    -0.191 NA
HETATM    2  C1  UNL     1      27.808   0.256  54.030  1.00  0.00     0.100 C 
HETATM    3  C2  UNL     1      26.971   1.083  53.207  1.00  0.00     0.058 A 
HETATM    4  C3  UNL     1      27.469   1.717  52.158  1.00  0.00     0.003 A 
HETATM    5  C4  UNL     1      26.760   2.606  51.204  1.00  0.00     0.088 A 
HETATM    6  C5  UNL     1      25.336   2.707  51.594  1.00  0.00     0.037 A 
HETATM    7  C6  UNL     1      24.558   3.467  50.840  1.00  0.00     0.027 C 
HETATM    8  N2  UNL     1      24.792   2.030  52.718  1.00  0.00    -0.264 NA
HETATM    9  C21 UNL     1      25.550   1.284  53.458  1.00  0.00     0.139 A 
ENDROOT
BRANCH   7  10
HETATM   10  C7  UNL     1      25.210   4.122  49.704  1.00  0.00    -0.002 C 
HETATM   11  C8  UNL     1      25.467   5.408  49.662  1.00  0.00    -0.023 C 
BRANCH  11  12
HETATM   12  C9  UNL     1      26.122   6.175  48.566  1.00  0.00     0.054 C 
BRANCH  12  13
HETATM   13  C10 UNL     1      27.601   6.098  48.674  1.00  0.00    -0.014 C 
HETATM   14  C11 UNL     1      28.613   5.519  48.017  1.00  0.00     0.063 C 
BRANCH  14  15
HETATM   15  C12 UNL     1      29.957   5.717  48.485  1.00  0.00    -0.049 C 
HETATM   16  C13 UNL     1      31.084   5.904  48.878  1.00  0.00     0.059 C 
BRANCH  16  17
HETATM   17  O1  UNL     1      32.357   6.134  49.312  1.00  0.00    -0.299 OA
BRANCH  17  18
HETATM   18  C14 UNL     1      33.348   6.686  48.428  1.00  0.00     0.226 C 
BRANCH  18  19
HETATM   19  C15 UNL     1      33.840   5.666  47.468  1.00  0.00    -0.032 A 
HETATM   20  C16 UNL     1      34.414   4.572  48.114  1.00  0.00     0.009 A 
HETATM   21  C17 UNL     1      34.937   3.505  47.416  1.00  0.00     0.002 A 
HETATM   22  C18 UNL     1      34.868   3.567  46.019  1.00  0.00     0.019 A 
HETATM   23  C19 UNL     1      34.303   4.646  45.396  1.00  0.00     0.011 A 
HETATM   24 BR1  UNL     1      34.211   4.725  43.495  1.00  0.00    -0.051 Br
HETATM   25  C20 UNL     1      33.776   5.718  46.100  1.00  0.00     0.028 A 
ENDBRANCH  18  19
ENDBRANCH  17  18
ENDBRANCH  16  17
ENDBRANCH  14  15
ENDBRANCH  12  13
ENDBRANCH  11  12
ENDBRANCH   7  10
TORSDOF 7
ENDMDL
MODEL 8
REMARK VINA RESULT:      -7.0      5.565      8.152
REMARK  7 active torsions:
REMARK  status: ('A' for Active; 'I' for Inactive)
REMARK    1  A    between atoms: C6_7  and  C7_8 
REMARK    2  A    between atoms: C8_9  and  C9_10 
REMARK    3  A    between atoms: C9_10  and  C10_11 
REMARK    4  A    between atoms: C11_12  and  C12_13 
REMARK    5  A    between atoms: C13_14  and  O1_15 
REMARK    6  A    between atoms: O1_15  and  C14_16 
REMARK    7  A    between atoms: C14_16  and  C15_17 
ROOT
HETATM    1  N1  UNL     1      21.782  -1.839  54.988  1.00  0.00    -0.191 NA
HETATM    2  C1  UNL     1      22.584  -1.255  54.375  1.00  0.00     0.100 C 
HETATM    3  C2  UNL     1      23.573  -0.518  53.641  1.00  0.00     0.058 A 
HETATM    4  C3  UNL     1      23.219   0.318  52.679  1.00  0.00     0.003 A 
HETATM    5  C4  UNL     1      24.096   1.154  51.822  1.00  0.00     0.088 A 
HETATM    6  C5  UNL     1      25.509   0.924  52.197  1.00  0.00     0.037 A 
HETATM    7  C6  UNL     1      26.427   1.599  51.524  1.00  0.00     0.027 C 
HETATM    8  N2  UNL     1      25.900   0.029  53.228  1.00  0.00    -0.264 NA
HETATM    9  C21 UNL     1      25.004  -0.633  53.890  1.00  0.00     0.139 A 
ENDROOT
BRANCH   7  10
HETATM   10  C7  UNL     1      25.926   2.497  50.482  1.00  0.00    -0.002 C 
HETATM   11  C8  UNL     1      25.928   3.804  50.594  1.00  0.00    -0.023 C 
BRANCH  11  12
HETATM   12  C9  UNL     1      25.447   4.808  49.603  1.00  0.00     0.054 C 
BRANCH  12  13
HETATM   13  C10 UNL     1      26.580   5.592  49.049  1.00  0.00    -0.014 C 
HETATM   14  C11 UNL     1      27.717   5.356  48.385  1.00  0.00     0.063 C 
BRANCH  14  15
HETATM   15  C12 UNL     1      28.563   6.460  48.025  1.00  0.00    -0.049 C 
HETATM   16  C13 UNL     1      29.268   7.386  47.703  1.00  0.00     0.059 C 
BRANCH  16  17
HETATM   17  O1  UNL     1      30.067   8.424  47.319  1.00  0.00    -0.299 OA
BRANCH  17  18
HETATM   18  C14 UNL     1      30.877   9.123  48.280  1.00  0.00     0.226 C 
BRANCH  18  19
HETATM   19  C15 UNL     1      32.321   8.873  48.049  1.00  0.00    -0.032 A 
HETATM   20  C16 UNL     1      32.918   9.892  47.307  1.00  0.00     0.009 A 
HETATM   21  C17 UNL     1      34.255   9.865  46.976  1.00  0.00     0.002 A 
HETATM   22  C18 UNL     1      34.996   8.764  47.418  1.00  0.00     0.019 A 
HETATM   23  C19 UNL     1      34.401   7.769  48.145  1.00  0.00     0.011 A 
HETATM   24 BR1  UNL     1      35.413   6.271  48.745  1.00  0.00    -0.051 Br
HETATM   25  C20 UNL     1      33.055   7.797  48.478  1.00  0.00     0.028 A 
ENDBRANCH  18  19
ENDBRANCH  17  18
ENDBRANCH  16  17
ENDBRANCH  14  15
ENDBRANCH  12  13
ENDBRANCH  11  12
ENDBRANCH   7  10
TORSDOF 7
ENDMDL
MODEL 9
REMARK VINA RESULT:      -6.9      2.897      5.617
REMARK  7 active torsions:
REMARK  status: ('A' for Active; 'I' for Inactive)
REMARK    1  A    between atoms: C6_7  and  C7_8 
REMARK    2  A    between atoms: C8_9  and  C9_10 
REMARK    3  A    between atoms: C9_10  and  C10_11 
REMARK    4  A    between atoms: C11_12  and  C12_13 
REMARK    5  A    between atoms: C13_14  and  O1_15 
REMARK    6  A    between atoms: O1_15  and  C14_16 
REMARK    7  A    between atoms: C14_16  and  C15_17 
ROOT
HETATM    1  N1  UNL     1      15.845   0.784  49.974  1.00  0.00    -0.191 NA
HETATM    2  C1  UNL     1      16.705   0.463  50.691  1.00  0.00     0.100 C 
HETATM    3  C2  UNL     1      17.755   0.082  51.593  1.00  0.00     0.058 A 
HETATM    4  C3  UNL     1      18.959   0.623  51.499  1.00  0.00     0.003 A 
HETATM    5  C4  UNL     1      20.154   0.352  52.336  1.00  0.00     0.088 A 
HETATM    6  C5  UNL     1      19.816  -0.664  53.357  1.00  0.00     0.037 A 
HETATM    7  C6  UNL     1      20.778  -1.021  54.192  1.00  0.00     0.027 C 
HETATM    8  N2  UNL     1      18.527  -1.252  53.468  1.00  0.00    -0.264 NA
HETATM    9  C21 UNL     1      17.581  -0.904  52.653  1.00  0.00     0.139 A 
ENDROOT
BRANCH   7  10
HETATM   10  C7  UNL     1      22.071  -0.360  54.000  1.00  0.00    -0.002 C 
HETATM   11  C8  UNL     1      23.209  -1.008  53.929  1.00  0.00    -0.023 C 
BRANCH  11  12
HETATM   12  C9  UNL     1      24.574  -0.441  53.736  1.00  0.00     0.054 C 
BRANCH  12  13
HETATM   13  C10 UNL     1      24.511   0.874  53.050  1.00  0.00    -0.014 C 
HETATM   14  C11 UNL     1      24.680   2.164  53.364  1.00  0.00     0.063 C 
BRANCH  14  15
HETATM   15  C12 UNL     1      24.516   3.162  52.344  1.00  0.00    -0.049 C 
HETATM   16  C13 UNL     1      24.391   3.990  51.474  1.00  0.00     0.059 C 
BRANCH  16  17
HETATM   17  O1  UNL     1      24.271   4.923  50.484  1.00  0.00    -0.299 OA
BRANCH  17  18
HETATM   18  C14 UNL     1      24.778   4.663  49.164  1.00  0.00     0.226 C 
BRANCH  18  19
HETATM   19  C15 UNL     1      25.966   5.502  48.870  1.00  0.00    -0.032 A 
HETATM   20  C16 UNL     1      27.129   4.741  48.750  1.00  0.00     0.009 A 
HETATM   21  C17 UNL     1      28.351   5.315  48.478  1.00  0.00     0.002 A 
HETATM   22  C18 UNL     1      28.379   6.706  48.326  1.00  0.00     0.019 A 
HETATM   23  C19 UNL     1      27.232   7.443  48.446  1.00  0.00     0.011 A 
HETATM   24 BR1  UNL     1      27.274   9.336  48.237  1.00  0.00    -0.051 Br
HETATM   25  C20 UNL     1      26.002   6.864  48.719  1.00  0.00     0.028 A 
ENDBRANCH  18  19
ENDBRANCH  17  18
ENDBRANCH  16  17
ENDBRANCH  14  15
ENDBRANCH  12  13
ENDBRANCH  11  12
ENDBRANCH   7  10
TORSDOF 7
ENDMDL
