MODEL 1
REMARK VINA RESULT:      -9.5      0.000      0.000
REMARK  5 active torsions:
REMARK  status: ('A' for Active; 'I' for Inactive)
REMARK    1  A    between atoms: C7_11  and  N3_12 
REMARK    2  A    between atoms: N3_12  and  C8_13 
REMARK    3  A    between atoms: N4_23  and  C17_24 
REMARK    4  A    between atoms: C17_24  and  C18_25 
REMARK    5  A    between atoms: C18_25  and  N5_26 
ROOT
HETATM    1  O1  UNL     1      19.773   3.453  49.060  1.00  0.00    -0.271 OA
HETATM    2  C1  UNL     1      20.044   3.205  50.279  1.00  0.00     0.248 C 
HETATM    3  C2  UNL     1      19.265   3.400  51.536  1.00  0.00     0.279 C 
HETATM    4  O2  UNL     1      19.270   2.139  52.209  1.00  0.00    -0.340 OA
HETATM    5  C3  UNL     1      20.489   1.546  52.496  1.00  0.00     0.098 A 
HETATM    6  C4  UNL     1      20.615   0.747  53.609  1.00  0.00     0.071 A 
HETATM    7  C5  UNL     1      21.861   0.177  53.847  1.00  0.00     0.075 A 
HETATM    8  N1  UNL     1      21.949  -0.594  54.943  1.00  0.00    -0.241 NA
HETATM    9  C6  UNL     1      23.105  -1.193  55.275  1.00  0.00     0.236 A 
HETATM   10  N2  UNL     1      24.147  -0.980  54.461  1.00  0.00    -0.224 NA
HETATM   11  C7  UNL     1      24.144  -0.230  53.354  1.00  0.00     0.142 A 
HETATM   12  C14 UNL     1      22.966   0.371  53.031  1.00  0.00     0.041 A 
HETATM   13  C15 UNL     1      22.752   1.183  51.945  1.00  0.00     0.050 A 
HETATM   14  C16 UNL     1      21.564   1.787  51.629  1.00  0.00     0.071 A 
HETATM   15  N4  UNL     1      21.347   2.629  50.496  1.00  0.00    -0.312 N 
ENDROOT
BRANCH  11  16
HETATM   16  N3  UNL     1      25.274  -0.042  52.521  1.00  0.00    -0.340 N 
HETATM   17  H5  UNL     1      25.286  -0.254  51.524  1.00  0.00     0.167 HD
BRANCH  16  18
HETATM   18  C8  UNL     1      26.539   0.459  52.931  1.00  0.00     0.035 A 
HETATM   19  C9  UNL     1      26.803   1.790  53.163  1.00  0.00     0.029 A 
HETATM   20  C10 UNL     1      28.020   2.307  53.581  1.00  0.00     0.004 A 
HETATM   21  C11 UNL     1      29.035   1.392  53.772  1.00  0.00     0.024 A 
HETATM   22  C12 UNL     1      28.881   0.043  53.570  1.00  0.00     0.036 A 
HETATM   23 CL1  UNL     1      30.169  -1.139  53.812  1.00  0.00    -0.084 Cl
HETATM   24  C13 UNL     1      27.645  -0.364  53.160  1.00  0.00     0.053 A 
ENDBRANCH  16  18
ENDBRANCH  11  16
BRANCH  15  25
HETATM   25  C17 UNL     1      22.489   2.834  49.630  1.00  0.00     0.151 C 
BRANCH  25  26
HETATM   26  C18 UNL     1      23.089   4.205  49.722  1.00  0.00     0.137 C 
BRANCH  26  27
HETATM   27  N5  UNL     1      24.443   4.335  49.338  1.00  0.00    -0.411 N 
HETATM   28  C19 UNL     1      24.889   5.568  48.870  1.00  0.00     0.117 C 
HETATM   29  C20 UNL     1      26.328   5.924  49.111  1.00  0.00     0.019 C 
HETATM   30  C21 UNL     1      27.183   4.692  48.819  1.00  0.00     0.003 C 
HETATM   31  C22 UNL     1      26.769   3.674  49.864  1.00  0.00     0.019 C 
HETATM   32  C23 UNL     1      25.329   3.301  49.649  1.00  0.00     0.117 C 
ENDBRANCH  26  27
ENDBRANCH  25  26
ENDBRANCH  15  25
TORSDOF 5
ENDMDL
MODEL 2
REMARK VINA RESULT:      -9.5      3.275      5.567
REMARK  5 active torsions:
REMARK  status: ('A' for Active; 'I' for Inactive)
REMARK    1  A    between atoms: C7_11  and  N3_12 
REMARK    2  A    between atoms: N3_12  and  C8_13 
REMARK    3  A    between atoms: N4_23  and  C17_24 
REMARK    4  A    between atoms: C17_24  and  C18_25 
REMARK    5  A    between atoms: C18_25  and  N5_26 
ROOT
HETATM    1  O1  UNL     1      28.665   2.247  52.858  1.00  0.00    -0.271 OA
HETATM    2  C1  UNL     1      27.974   1.226  53.177  1.00  0.00     0.248 C 
HETATM    3  C2  UNL     1      28.253   0.070  54.076  1.00  0.00     0.279 C 
HETATM    4  O2  UNL     1      27.148  -0.012  54.979  1.00  0.00    -0.340 OA
HETATM    5  C3  UNL     1      25.871  -0.120  54.453  1.00  0.00     0.098 A 
HETATM    6  C4  UNL     1      24.901  -0.802  55.152  1.00  0.00     0.071 A 
HETATM    7  C5  UNL     1      23.637  -0.879  54.577  1.00  0.00     0.075 A 
HETATM    8  N1  UNL     1      22.716  -1.555  55.284  1.00  0.00    -0.241 NA
HETATM    9  C6  UNL     1      21.461  -1.697  54.825  1.00  0.00     0.236 A 
HETATM   10  N2  UNL     1      21.187  -1.133  53.641  1.00  0.00    -0.224 NA
HETATM   11  C7  UNL     1      22.042  -0.446  52.877  1.00  0.00     0.142 A 
HETATM   12  C14 UNL     1      23.310  -0.311  53.355  1.00  0.00     0.041 A 
HETATM   13  C15 UNL     1      24.337   0.349  52.727  1.00  0.00     0.050 A 
HETATM   14  C16 UNL     1      25.611   0.477  53.212  1.00  0.00     0.071 A 
HETATM   15  N4  UNL     1      26.674   1.166  52.555  1.00  0.00    -0.312 N 
ENDROOT
BRANCH  11  16
HETATM   16  N3  UNL     1      21.699   0.139  51.633  1.00  0.00    -0.340 N 
HETATM   17  H5  UNL     1      21.471  -0.399  50.797  1.00  0.00     0.167 HD
BRANCH  16  18
HETATM   18  C8  UNL     1      21.621   1.530  51.359  1.00  0.00     0.035 A 
HETATM   19  C9  UNL     1      21.090   2.459  52.225  1.00  0.00     0.029 A 
HETATM   20  C10 UNL     1      21.017   3.824  51.994  1.00  0.00     0.004 A 
HETATM   21  C11 UNL     1      21.523   4.264  50.789  1.00  0.00     0.024 A 
HETATM   22  C12 UNL     1      22.074   3.425  49.853  1.00  0.00     0.036 A 
HETATM   23 CL1  UNL     1      22.728   3.973  48.307  1.00  0.00    -0.084 Cl
HETATM   24  C13 UNL     1      22.099   2.101  50.176  1.00  0.00     0.053 A 
ENDBRANCH  16  18
ENDBRANCH  11  16
BRANCH  15  25
HETATM   25  C17 UNL     1      26.346   1.772  51.282  1.00  0.00     0.151 C 
BRANCH  25  26
HETATM   26  C18 UNL     1      25.555   3.042  51.394  1.00  0.00     0.137 C 
BRANCH  26  27
HETATM   27  N5  UNL     1      25.742   4.001  50.373  1.00  0.00    -0.411 N 
HETATM   28  C19 UNL     1      25.135   5.246  50.507  1.00  0.00     0.117 C 
HETATM   29  C20 UNL     1      25.819   6.426  49.878  1.00  0.00     0.019 C 
HETATM   30  C21 UNL     1      26.312   6.011  48.491  1.00  0.00     0.003 C 
HETATM   31  C22 UNL     1      27.357   4.945  48.753  1.00  0.00     0.019 C 
HETATM   32  C23 UNL     1      26.700   3.751  49.388  1.00  0.00     0.117 C 
ENDBRANCH  26  27
ENDBRANCH  25  26
ENDBRANCH  15  25
TORSDOF 5
ENDMDL
MODEL 3
REMARK VINA RESULT:      -9.2      2.719      6.224
REMARK  5 active torsions:
REMARK  status: ('A' for Active; 'I' for Inactive)
REMARK    1  A    between atoms: C7_11  and  N3_12 
REMARK    2  A    between atoms: N3_12  and  C8_13 
REMARK    3  A    between atoms: N4_23  and  C17_24 
REMARK    4  A    between atoms: C17_24  and  C18_25 
REMARK    5  A    between atoms: C18_25  and  N5_26 
ROOT
HETATM    1  O1  UNL     1      23.113  -1.635  55.735  1.00  0.00    -0.271 OA
HETATM    2  C1  UNL     1      22.637  -1.251  54.618  1.00  0.00     0.248 C 
HETATM    3  C2  UNL     1      21.398  -1.624  53.878  1.00  0.00     0.279 C 
HETATM    4  O2  UNL     1      20.732  -0.398  53.567  1.00  0.00    -0.340 OA
HETATM    5  C3  UNL     1      21.427   0.573  52.864  1.00  0.00     0.098 A 
HETATM    6  C4  UNL     1      20.749   1.425  52.023  1.00  0.00     0.071 A 
HETATM    7  C5  UNL     1      21.497   2.380  51.344  1.00  0.00     0.075 A 
HETATM    8  N1  UNL     1      20.803   3.192  50.529  1.00  0.00    -0.241 NA
HETATM    9  C6  UNL     1      21.422   4.150  49.819  1.00  0.00     0.236 A 
HETATM   10  N2  UNL     1      22.749   4.247  49.970  1.00  0.00    -0.224 NA
HETATM   11  C7  UNL     1      23.512   3.482  50.757  1.00  0.00     0.142 A 
HETATM   12  C14 UNL     1      22.871   2.515  51.470  1.00  0.00     0.041 A 
HETATM   13  C15 UNL     1      23.467   1.624  52.328  1.00  0.00     0.050 A 
HETATM   14  C16 UNL     1      22.816   0.651  53.038  1.00  0.00     0.071 A 
HETATM   15  N4  UNL     1      23.442  -0.272  53.930  1.00  0.00    -0.312 N 
ENDROOT
BRANCH  11  16
HETATM   16  N3  UNL     1      24.915   3.631  50.888  1.00  0.00    -0.340 N 
HETATM   17  H5  UNL     1      25.478   3.125  51.571  1.00  0.00     0.167 HD
BRANCH  16  18
HETATM   18  C8  UNL     1      25.739   4.485  50.107  1.00  0.00     0.035 A 
HETATM   19  C9  UNL     1      26.805   4.050  49.353  1.00  0.00     0.029 A 
HETATM   20  C10 UNL     1      27.616   4.855  48.567  1.00  0.00     0.004 A 
HETATM   21  C11 UNL     1      27.309   6.200  48.558  1.00  0.00     0.024 A 
HETATM   22  C12 UNL     1      26.269   6.740  49.272  1.00  0.00     0.036 A 
HETATM   23 CL1  UNL     1      25.863   8.458  49.268  1.00  0.00    -0.084 Cl
HETATM   24  C13 UNL     1      25.532   5.864  50.013  1.00  0.00     0.053 A 
ENDBRANCH  16  18
ENDBRANCH  11  16
BRANCH  15  25
HETATM   25  C17 UNL     1      24.875  -0.137  54.079  1.00  0.00     0.151 C 
BRANCH  25  26
HETATM   26  C18 UNL     1      25.672  -0.960  53.111  1.00  0.00     0.137 C 
BRANCH  26  27
HETATM   27  N5  UNL     1      27.076  -0.814  53.155  1.00  0.00    -0.411 N 
HETATM   28  C19 UNL     1      27.613   0.270  53.844  1.00  0.00     0.117 C 
HETATM   29  C20 UNL     1      28.965   0.093  54.474  1.00  0.00     0.019 C 
HETATM   30  C21 UNL     1      29.864  -0.645  53.482  1.00  0.00     0.003 C 
HETATM   31  C22 UNL     1      29.233  -2.015  53.330  1.00  0.00     0.019 C 
HETATM   32  C23 UNL     1      27.873  -1.868  52.704  1.00  0.00     0.117 C 
ENDBRANCH  26  27
ENDBRANCH  25  26
ENDBRANCH  15  25
TORSDOF 5
ENDMDL
MODEL 4
REMARK VINA RESULT:      -9.0      2.964      5.836
REMARK  5 active torsions:
REMARK  status: ('A' for Active; 'I' for Inactive)
REMARK    1  A    between atoms: C7_11  and  N3_12 
REMARK    2  A    between atoms: N3_12  and  C8_13 
REMARK    3  A    between atoms: N4_23  and  C17_24 
REMARK    4  A    between atoms: C17_24  and  C18_25 
REMARK    5  A    between atoms: C18_25  and  N5_26 
ROOT
HETATM    1  O1  UNL     1      21.316  -2.185  53.911  1.00  0.00    -0.271 OA
HETATM    2  C1  UNL     1      22.229  -1.410  54.345  1.00  0.00     0.248 C 
HETATM    3  C2  UNL     1      22.856  -1.258  55.689  1.00  0.00     0.279 C 
HETATM    4  O2  UNL     1      24.268  -1.341  55.485  1.00  0.00    -0.340 OA
HETATM    5  C3  UNL     1      24.860  -0.468  54.586  1.00  0.00     0.098 A 
HETATM    6  C4  UNL     1      26.158  -0.058  54.787  1.00  0.00     0.071 A 
HETATM    7  C5  UNL     1      26.700   0.819  53.853  1.00  0.00     0.075 A 
HETATM    8  N1  UNL     1      27.968   1.201  54.082  1.00  0.00    -0.241 NA
HETATM    9  C6  UNL     1      28.593   2.049  53.248  1.00  0.00     0.236 A 
HETATM   10  N2  UNL     1      27.891   2.482  52.193  1.00  0.00    -0.224 NA
HETATM   11  C7  UNL     1      26.631   2.152  51.894  1.00  0.00     0.142 A 
HETATM   12  C14 UNL     1      26.009   1.292  52.748  1.00  0.00     0.041 A 
HETATM   13  C15 UNL     1      24.722   0.833  52.626  1.00  0.00     0.050 A 
HETATM   14  C16 UNL     1      24.102  -0.028  53.492  1.00  0.00     0.071 A 
HETATM   15  N4  UNL     1      22.762  -0.503  53.359  1.00  0.00    -0.312 N 
ENDROOT
BRANCH  11  16
HETATM   16  N3  UNL     1      25.934   2.633  50.758  1.00  0.00    -0.340 N 
HETATM   17  H5  UNL     1      25.227   2.096  50.257  1.00  0.00     0.167 HD
BRANCH  16  18
HETATM   18  C8  UNL     1      26.102   3.907  50.154  1.00  0.00     0.035 A 
HETATM   19  C9  UNL     1      27.056   4.191  49.203  1.00  0.00     0.029 A 
HETATM   20  C10 UNL     1      27.233   5.418  48.583  1.00  0.00     0.004 A 
HETATM   21  C11 UNL     1      26.370   6.423  48.968  1.00  0.00     0.024 A 
HETATM   22  C12 UNL     1      25.384   6.250  49.907  1.00  0.00     0.036 A 
HETATM   23 CL1  UNL     1      24.271   7.525  50.408  1.00  0.00    -0.084 Cl
HETATM   24  C13 UNL     1      25.293   5.006  50.457  1.00  0.00     0.053 A 
ENDBRANCH  16  18
ENDBRANCH  11  16
BRANCH  15  25
HETATM   25  C17 UNL     1      22.031  -0.024  52.205  1.00  0.00     0.151 C 
BRANCH  25  26
HETATM   26  C18 UNL     1      21.007   1.025  52.521  1.00  0.00     0.137 C 
BRANCH  26  27
HETATM   27  N5  UNL     1      21.180   2.287  51.909  1.00  0.00    -0.411 N 
HETATM   28  C19 UNL     1      20.174   2.770  51.077  1.00  0.00     0.117 C 
HETATM   29  C20 UNL     1      19.996   4.259  50.991  1.00  0.00     0.019 C 
HETATM   30  C21 UNL     1      21.379   4.903  50.895  1.00  0.00     0.003 C 
HETATM   31  C22 UNL     1      22.050   4.585  52.217  1.00  0.00     0.019 C 
HETATM   32  C23 UNL     1      22.237   3.097  52.333  1.00  0.00     0.117 C 
ENDBRANCH  26  27
ENDBRANCH  25  26
ENDBRANCH  15  25
TORSDOF 5
ENDMDL
MODEL 5
REMARK VINA RESULT:      -8.8      2.777      5.139
REMARK  5 active torsions:
REMARK  status: ('A' for Active; 'I' for Inactive)
REMARK    1  A    between atoms: C7_11  and  N3_12 
REMARK    2  A    between atoms: N3_12  and  C8_13 
REMARK    3  A    between atoms: N4_23  and  C17_24 
REMARK    4  A    between atoms: C17_24  and  C18_25 
REMARK    5  A    between atoms: C18_25  and  N5_26 
ROOT
HETATM    1  O1  UNL     1      19.356  -0.159  51.650  1.00  0.00    -0.271 OA
HETATM    2  C1  UNL     1      20.350   0.284  52.311  1.00  0.00     0.248 C 
HETATM    3  C2  UNL     1      20.726   0.167  53.750  1.00  0.00     0.279 C 
HETATM    4  O2  UNL     1      22.069  -0.321  53.774  1.00  0.00    -0.340 OA
HETATM    5  C3  UNL     1      23.043   0.386  53.087  1.00  0.00     0.098 A 
HETATM    6  C4  UNL     1      24.341   0.379  53.543  1.00  0.00     0.071 A 
HETATM    7  C5  UNL     1      25.277   1.105  52.814  1.00  0.00     0.075 A 
HETATM    8  N1  UNL     1      26.533   1.079  53.290  1.00  0.00    -0.241 NA
HETATM    9  C6  UNL     1      27.519   1.748  52.669  1.00  0.00     0.236 A 
HETATM   10  N2  UNL     1      27.183   2.428  51.566  1.00  0.00    -0.224 NA
HETATM   11  C7  UNL     1      25.962   2.505  51.027  1.00  0.00     0.142 A 
HETATM   12  C14 UNL     1      24.971   1.823  51.667  1.00  0.00     0.041 A 
HETATM   13  C15 UNL     1      23.654   1.776  51.284  1.00  0.00     0.050 A 
HETATM   14  C16 UNL     1      22.664   1.091  51.937  1.00  0.00     0.071 A 
HETATM   15  N4  UNL     1      21.295   1.045  51.532  1.00  0.00    -0.312 N 
ENDROOT
BRANCH  11  16
HETATM   16  N3  UNL     1      25.658   3.234  49.851  1.00  0.00    -0.340 N 
HETATM   17  H5  UNL     1      24.999   2.917  49.141  1.00  0.00     0.167 HD
BRANCH  16  18
HETATM   18  C8  UNL     1      26.208   4.492  49.485  1.00  0.00     0.035 A 
HETATM   19  C9  UNL     1      27.369   4.646  48.762  1.00  0.00     0.029 A 
HETATM   20  C10 UNL     1      27.920   5.857  48.373  1.00  0.00     0.004 A 
HETATM   21  C11 UNL     1      27.229   6.989  48.755  1.00  0.00     0.024 A 
HETATM   22  C12 UNL     1      26.063   6.950  49.478  1.00  0.00     0.036 A 
HETATM   23 CL1  UNL     1      25.167   8.389  49.972  1.00  0.00    -0.084 Cl
HETATM   24  C13 UNL     1      25.604   5.710  49.810  1.00  0.00     0.053 A 
ENDBRANCH  16  18
ENDBRANCH  11  16
BRANCH  15  25
HETATM   25  C17 UNL     1      20.963   1.782  50.332  1.00  0.00     0.151 C 
BRANCH  25  26
HETATM   26  C18 UNL     1      20.034   2.938  50.561  1.00  0.00     0.137 C 
BRANCH  26  27
HETATM   27  N5  UNL     1      20.623   4.217  50.667  1.00  0.00    -0.411 N 
HETATM   28  C19 UNL     1      21.346   4.527  51.816  1.00  0.00     0.117 C 
HETATM   29  C20 UNL     1      22.482   5.500  51.682  1.00  0.00     0.019 C 
HETATM   30  C21 UNL     1      22.024   6.653  50.789  1.00  0.00     0.003 C 
HETATM   31  C22 UNL     1      21.783   6.021  49.431  1.00  0.00     0.019 C 
HETATM   32  C23 UNL     1      20.651   5.037  49.536  1.00  0.00     0.117 C 
ENDBRANCH  26  27
ENDBRANCH  25  26
ENDBRANCH  15  25
TORSDOF 5
ENDMDL
MODEL 6
REMARK VINA RESULT:      -8.8      2.594      6.183
REMARK  5 active torsions:
REMARK  status: ('A' for Active; 'I' for Inactive)
REMARK    1  A    between atoms: C7_11  and  N3_12 
REMARK    2  A    between atoms: N3_12  and  C8_13 
REMARK    3  A    between atoms: N4_23  and  C17_24 
REMARK    4  A    between atoms: C17_24  and  C18_25 
REMARK    5  A    between atoms: C18_25  and  N5_26 
ROOT
HETATM    1  O1  UNL     1      27.918   4.413  48.957  1.00  0.00    -0.271 OA
HETATM    2  C1  UNL     1      26.730   4.731  49.288  1.00  0.00     0.248 C 
HETATM    3  C2  UNL     1      26.021   6.042  49.328  1.00  0.00     0.279 C 
HETATM    4  O2  UNL     1      24.812   5.867  48.586  1.00  0.00    -0.340 OA
HETATM    5  C3  UNL     1      23.947   4.850  48.959  1.00  0.00     0.098 A 
HETATM    6  C4  UNL     1      22.594   4.998  48.760  1.00  0.00     0.071 A 
HETATM    7  C5  UNL     1      21.773   3.945  49.153  1.00  0.00     0.075 A 
HETATM    8  N1  UNL     1      20.458   4.125  48.947  1.00  0.00    -0.241 NA
HETATM    9  C6  UNL     1      19.571   3.177  49.291  1.00  0.00     0.236 A 
HETATM   10  N2  UNL     1      20.066   2.060  49.841  1.00  0.00    -0.224 NA
HETATM   11  C7  UNL     1      21.356   1.803  50.078  1.00  0.00     0.142 A 
HETATM   12  C14 UNL     1      22.245   2.773  49.725  1.00  0.00     0.041 A 
HETATM   13  C15 UNL     1      23.606   2.711  49.888  1.00  0.00     0.050 A 
HETATM   14  C16 UNL     1      24.492   3.693  49.533  1.00  0.00     0.071 A 
HETATM   15  N4  UNL     1      25.908   3.622  49.704  1.00  0.00    -0.312 N 
ENDROOT
BRANCH  11  16
HETATM   16  N3  UNL     1      21.831   0.600  50.656  1.00  0.00    -0.340 N 
HETATM   17  H5  UNL     1      22.301  -0.136  50.130  1.00  0.00     0.167 HD
BRANCH  16  18
HETATM   18  C8  UNL     1      21.733   0.237  52.026  1.00  0.00     0.035 A 
HETATM   19  C9  UNL     1      20.548   0.171  52.724  1.00  0.00     0.029 A 
HETATM   20  C10 UNL     1      20.417  -0.198  54.054  1.00  0.00     0.004 A 
HETATM   21  C11 UNL     1      21.586  -0.519  54.712  1.00  0.00     0.024 A 
HETATM   22  C12 UNL     1      22.821  -0.486  54.114  1.00  0.00     0.036 A 
HETATM   23 CL1  UNL     1      24.325  -0.897  54.942  1.00  0.00    -0.084 Cl
HETATM   24  C13 UNL     1      22.841  -0.111  52.803  1.00  0.00     0.053 A 
ENDBRANCH  16  18
ENDBRANCH  11  16
BRANCH  15  25
HETATM   25  C17 UNL     1      26.415   2.401  50.292  1.00  0.00     0.151 C 
BRANCH  25  26
HETATM   26  C18 UNL     1      26.646   2.483  51.772  1.00  0.00     0.137 C 
BRANCH  26  27
HETATM   27  N5  UNL     1      27.410   1.449  52.356  1.00  0.00    -0.411 N 
HETATM   28  C19 UNL     1      28.333   1.776  53.346  1.00  0.00     0.117 C 
HETATM   29  C20 UNL     1      28.618   0.745  54.400  1.00  0.00     0.019 C 
HETATM   30  C21 UNL     1      28.750  -0.616  53.717  1.00  0.00     0.003 C 
HETATM   31  C22 UNL     1      27.375  -0.898  53.143  1.00  0.00     0.019 C 
HETATM   32  C23 UNL     1      27.060   0.124  52.085  1.00  0.00     0.117 C 
ENDBRANCH  26  27
ENDBRANCH  25  26
ENDBRANCH  15  25
TORSDOF 5
ENDMDL
MODEL 7
REMARK VINA RESULT:      -8.6      3.296      5.872
REMARK  5 active torsions:
REMARK  status: ('A' for Active; 'I' for Inactive)
REMARK    1  A    between atoms: C7_11  and  N3_12 
REMARK    2  A    between atoms: N3_12  and  C8_13 
REMARK    3  A    between atoms: N4_23  and  C17_24 
REMARK    4  A    between atoms: C17_24  and  C18_25 
REMARK    5  A    between atoms: C18_25  and  N5_26 
ROOT
HETATM    1  O1  UNL     1      25.240   6.738  50.113  1.00  0.00    -0.271 OA
HETATM    2  C1  UNL     1      25.419   5.483  49.997  1.00  0.00     0.248 C 
HETATM    3  C2  UNL     1      26.322   4.678  49.124  1.00  0.00     0.279 C 
HETATM    4  O2  UNL     1      27.036   3.796  49.993  1.00  0.00    -0.340 OA
HETATM    5  C3  UNL     1      26.313   2.957  50.825  1.00  0.00     0.098 A 
HETATM    6  C4  UNL     1      26.832   1.732  51.178  1.00  0.00     0.071 A 
HETATM    7  C5  UNL     1      26.063   0.932  52.016  1.00  0.00     0.075 A 
HETATM    8  N1  UNL     1      26.598  -0.257  52.338  1.00  0.00    -0.241 NA
HETATM    9  C6  UNL     1      25.943  -1.115  53.138  1.00  0.00     0.236 A 
HETATM   10  N2  UNL     1      24.745  -0.720  53.589  1.00  0.00    -0.224 NA
HETATM   11  C7  UNL     1      24.143   0.442  53.319  1.00  0.00     0.142 A 
HETATM   12  C14 UNL     1      24.819   1.301  52.506  1.00  0.00     0.041 A 
HETATM   13  C15 UNL     1      24.378   2.537  52.103  1.00  0.00     0.050 A 
HETATM   14  C16 UNL     1      25.062   3.394  51.282  1.00  0.00     0.071 A 
HETATM   15  N4  UNL     1      24.598   4.678  50.867  1.00  0.00    -0.312 N 
ENDROOT
BRANCH  11  16
HETATM   16  N3  UNL     1      22.876   0.816  53.829  1.00  0.00    -0.340 N 
HETATM   17  H5  UNL     1      22.713   1.655  54.386  1.00  0.00     0.167 HD
BRANCH  16  18
HETATM   18  C8  UNL     1      21.661   0.102  53.651  1.00  0.00     0.035 A 
HETATM   19  C9  UNL     1      21.319  -1.028  54.357  1.00  0.00     0.029 A 
HETATM   20  C10 UNL     1      20.135  -1.735  54.219  1.00  0.00     0.004 A 
HETATM   21  C11 UNL     1      19.240  -1.246  53.289  1.00  0.00     0.024 A 
HETATM   22  C12 UNL     1      19.480  -0.128  52.530  1.00  0.00     0.036 A 
HETATM   23 CL1  UNL     1      18.346   0.510  51.338  1.00  0.00    -0.084 Cl
HETATM   24  C13 UNL     1      20.674   0.495  52.742  1.00  0.00     0.053 A 
ENDBRANCH  16  18
ENDBRANCH  11  16
BRANCH  15  25
HETATM   25  C17 UNL     1      23.305   5.081  51.378  1.00  0.00     0.151 C 
BRANCH  25  26
HETATM   26  C18 UNL     1      22.233   5.166  50.332  1.00  0.00     0.137 C 
BRANCH  26  27
HETATM   27  N5  UNL     1      21.951   3.984  49.613  1.00  0.00    -0.411 N 
HETATM   28  C19 UNL     1      22.335   3.906  48.277  1.00  0.00     0.117 C 
HETATM   29  C20 UNL     1      22.678   2.551  47.728  1.00  0.00     0.019 C 
HETATM   30  C21 UNL     1      21.640   1.551  48.237  1.00  0.00     0.003 C 
HETATM   31  C22 UNL     1      21.838   1.514  49.739  1.00  0.00     0.019 C 
HETATM   32  C23 UNL     1      21.505   2.862  50.317  1.00  0.00     0.117 C 
ENDBRANCH  26  27
ENDBRANCH  25  26
ENDBRANCH  15  25
TORSDOF 5
ENDMDL
MODEL 8
REMARK VINA RESULT:      -8.5      1.464      1.829
REMARK  5 active torsions:
REMARK  status: ('A' for Active; 'I' for Inactive)
REMARK    1  A    between atoms: C7_11  and  N3_12 
REMARK    2  A    between atoms: N3_12  and  C8_13 
REMARK    3  A    between atoms: N4_23  and  C17_24 
REMARK    4  A    between atoms: C17_24  and  C18_25 
REMARK    5  A    between atoms: C18_25  and  N5_26 
ROOT
HETATM    1  O1  UNL     1      18.025   1.709  48.929  1.00  0.00    -0.271 OA
HETATM    2  C1  UNL     1      18.356   1.579  50.151  1.00  0.00     0.248 C 
HETATM    3  C2  UNL     1      17.549   1.497  51.403  1.00  0.00     0.279 C 
HETATM    4  O2  UNL     1      17.989   0.322  52.087  1.00  0.00    -0.340 OA
HETATM    5  C3  UNL     1      19.336   0.195  52.385  1.00  0.00     0.098 A 
HETATM    6  C4  UNL     1      19.725  -0.502  53.506  1.00  0.00     0.071 A 
HETATM    7  C5  UNL     1      21.090  -0.598  53.755  1.00  0.00     0.075 A 
HETATM    8  N1  UNL     1      21.433  -1.283  54.859  1.00  0.00    -0.241 NA
HETATM    9  C6  UNL     1      22.723  -1.437  55.201  1.00  0.00     0.236 A 
HETATM   10  N2  UNL     1      23.631  -0.878  54.391  1.00  0.00    -0.224 NA
HETATM   11  C7  UNL     1      23.375  -0.184  53.278  1.00  0.00     0.142 A 
HETATM   12  C14 UNL     1      22.063  -0.035  52.943  1.00  0.00     0.041 A 
HETATM   13  C15 UNL     1      21.588   0.643  51.849  1.00  0.00     0.050 A 
HETATM   14  C16 UNL     1      20.266   0.791  51.521  1.00  0.00     0.071 A 
HETATM   15  N4  UNL     1      19.777   1.497  50.381  1.00  0.00    -0.312 N 
ENDROOT
BRANCH  11  16
HETATM   16  N3  UNL     1      24.374   0.382  52.448  1.00  0.00    -0.340 N 
HETATM   17  H5  UNL     1      24.211   0.686  51.489  1.00  0.00     0.167 HD
BRANCH  16  18
HETATM   18  C8  UNL     1      25.728   0.610  52.812  1.00  0.00     0.035 A 
HETATM   19  C9  UNL     1      26.225   1.829  53.213  1.00  0.00     0.029 A 
HETATM   20  C10 UNL     1      27.535   2.080  53.591  1.00  0.00     0.004 A 
HETATM   21  C11 UNL     1      28.394   1.001  53.553  1.00  0.00     0.024 A 
HETATM   22  C12 UNL     1      28.006  -0.258  53.169  1.00  0.00     0.036 A 
HETATM   23 CL1  UNL     1      29.092  -1.648  53.116  1.00  0.00    -0.084 Cl
HETATM   24  C13 UNL     1      26.696  -0.399  52.816  1.00  0.00     0.053 A 
ENDBRANCH  16  18
ENDBRANCH  11  16
BRANCH  15  25
HETATM   25  C17 UNL     1      20.782   2.082  49.519  1.00  0.00     0.151 C 
BRANCH  25  26
HETATM   26  C18 UNL     1      21.048   3.534  49.787  1.00  0.00     0.137 C 
BRANCH  26  27
HETATM   27  N5  UNL     1      22.384   3.894  50.076  1.00  0.00    -0.411 N 
HETATM   28  C19 UNL     1      23.311   3.908  49.038  1.00  0.00     0.117 C 
HETATM   29  C20 UNL     1      24.451   4.881  49.136  1.00  0.00     0.019 C 
HETATM   30  C21 UNL     1      24.978   4.859  50.571  1.00  0.00     0.003 C 
HETATM   31  C22 UNL     1      23.834   5.387  51.414  1.00  0.00     0.019 C 
HETATM   32  C23 UNL     1      22.674   4.433  51.331  1.00  0.00     0.117 C 
ENDBRANCH  26  27
ENDBRANCH  25  26
ENDBRANCH  15  25
TORSDOF 5
ENDMDL
MODEL 9
REMARK VINA RESULT:      -8.4      1.809      2.535
REMARK  5 active torsions:
REMARK  status: ('A' for Active; 'I' for Inactive)
REMARK    1  A    between atoms: C7_11  and  N3_12 
REMARK    2  A    between atoms: N3_12  and  C8_13 
REMARK    3  A    between atoms: N4_23  and  C17_24 
REMARK    4  A    between atoms: C17_24  and  C18_25 
REMARK    5  A    between atoms: C18_25  and  N5_26 
ROOT
HETATM    1  O1  UNL     1      22.804   5.958  48.635  1.00  0.00    -0.271 OA
HETATM    2  C1  UNL     1      22.685   5.466  49.803  1.00  0.00     0.248 C 
HETATM    3  C2  UNL     1      21.864   5.871  50.980  1.00  0.00     0.279 C 
HETATM    4  O2  UNL     1      21.144   4.705  51.387  1.00  0.00    -0.340 OA
HETATM    5  C3  UNL     1      21.858   3.555  51.683  1.00  0.00     0.098 A 
HETATM    6  C4  UNL     1      21.375   2.674  52.623  1.00  0.00     0.071 A 
HETATM    7  C5  UNL     1      22.133   1.537  52.879  1.00  0.00     0.075 A 
HETATM    8  N1  UNL     1      21.633   0.701  53.804  1.00  0.00    -0.241 NA
HETATM    9  C6  UNL     1      22.282  -0.428  54.137  1.00  0.00     0.236 A 
HETATM   10  N2  UNL     1      23.436  -0.667  53.501  1.00  0.00    -0.224 NA
HETATM   11  C7  UNL     1      24.001   0.110  52.571  1.00  0.00     0.142 A 
HETATM   12  C14 UNL     1      23.333   1.251  52.245  1.00  0.00     0.041 A 
HETATM   13  C15 UNL     1      23.741   2.183  51.324  1.00  0.00     0.050 A 
HETATM   14  C16 UNL     1      23.064   3.330  51.005  1.00  0.00     0.071 A 
HETATM   15  N4  UNL     1      23.493   4.296  50.045  1.00  0.00    -0.312 N 
ENDROOT
BRANCH  11  16
HETATM   16  N3  UNL     1      25.223  -0.192  51.921  1.00  0.00    -0.340 N 
HETATM   17  H5  UNL     1      25.295  -0.440  50.935  1.00  0.00     0.167 HD
BRANCH  16  18
HETATM   18  C8  UNL     1      26.509  -0.197  52.524  1.00  0.00     0.035 A 
HETATM   19  C9  UNL     1      27.243  -1.335  52.770  1.00  0.00     0.029 A 
HETATM   20  C10 UNL     1      28.506  -1.370  53.338  1.00  0.00     0.004 A 
HETATM   21  C11 UNL     1      29.053  -0.150  53.679  1.00  0.00     0.024 A 
HETATM   22  C12 UNL     1      28.410   1.046  53.478  1.00  0.00     0.036 A 
HETATM   23 CL1  UNL     1      29.097   2.614  53.906  1.00  0.00    -0.084 Cl
HETATM   24  C13 UNL     1      27.171   0.972  52.912  1.00  0.00     0.053 A 
ENDBRANCH  16  18
ENDBRANCH  11  16
BRANCH  15  25
HETATM   25  C17 UNL     1      24.739   4.007  49.368  1.00  0.00     0.151 C 
BRANCH  25  26
HETATM   26  C18 UNL     1      25.923   4.743  49.923  1.00  0.00     0.137 C 
BRANCH  26  27
HETATM   27  N5  UNL     1      26.710   5.470  49.001  1.00  0.00    -0.411 N 
HETATM   28  C19 UNL     1      26.368   6.791  48.728  1.00  0.00     0.117 C 
HETATM   29  C20 UNL     1      27.477   7.734  48.355  1.00  0.00     0.019 C 
HETATM   30  C21 UNL     1      28.409   7.016  47.380  1.00  0.00     0.003 C 
HETATM   31  C22 UNL     1      29.010   5.877  48.182  1.00  0.00     0.019 C 
HETATM   32  C23 UNL     1      27.920   4.918  48.573  1.00  0.00     0.117 C 
ENDBRANCH  26  27
ENDBRANCH  25  26
ENDBRANCH  15  25
TORSDOF 5
ENDMDL
