MODEL 1
REMARK VINA RESULT:      -8.4      0.000      0.000
REMARK  7 active torsions:
REMARK  status: ('A' for Active; 'I' for Inactive)
REMARK    1  A    between atoms: N1_8  and  C7_9 
REMARK    2  A    between atoms: C7_9  and  C8_10 
REMARK    3  A    between atoms: C9_11  and  N2_12 
REMARK    4  A    between atoms: N2_12  and  C10_13 
REMARK    5  A    between atoms: C10_13  and  C11_14 
REMARK    6  A    between atoms: C11_14  and  C12_15 
REMARK    7  A    between atoms: C12_15  and  N3_16 
ROOT
HETATM    1  C7  UNL     1      25.308   1.215  52.426  1.00  0.00     0.259 C 
HETATM    2  N4  UNL     1      26.309   0.149  52.128  1.00  0.00    -0.221 NA
HETATM    3  C17 UNL     1      26.306  -1.037  52.474  1.00  0.00     0.232 C 
HETATM    4  N5  UNL     1      27.324  -2.049  52.176  1.00  0.00    -0.254 NA
HETATM    5  C18 UNL     1      28.438  -1.915  52.914  1.00  0.00     0.120 C 
HETATM    6  C19 UNL     1      28.894  -0.988  53.954  1.00  0.00     0.043 C 
HETATM    7  C20 UNL     1      28.667   0.088  54.701  1.00  0.00     0.139 C 
HETATM    8  O2  UNL     1      27.712   1.151  54.985  1.00  0.00    -0.338 OA
HETATM    9  C21 UNL     1      26.781   1.140  53.984  1.00  0.00     0.349 C 
HETATM   10  O3  UNL     1      25.966   2.031  53.437  1.00  0.00    -0.314 OA
ENDROOT
BRANCH   1  11
HETATM   11  N1  UNL     1      24.101   0.694  52.834  1.00  0.00    -0.353 N 
HETATM   12  C2  UNL     1      22.975   1.035  51.978  1.00  0.00     0.085 C 
HETATM   13  C1  UNL     1      22.192   2.165  52.608  1.00  0.00     0.032 C 
HETATM   14  C3  UNL     1      22.034  -0.136  51.802  1.00  0.00     0.075 C 
HETATM   15  C4  UNL     1      21.382  -0.352  53.136  1.00  0.00     0.011 C 
HETATM   16 CL1  UNL     1      19.713  -0.486  53.633  1.00  0.00    -0.089 Cl
HETATM   17  C5  UNL     1      22.385  -0.443  54.039  1.00  0.00     0.012 C 
HETATM   18  C6  UNL     1      23.878  -0.342  53.722  1.00  0.00     0.151 C 
ENDBRANCH   1  11
BRANCH   1  19
HETATM   19  C8  UNL     1      25.234   2.018  51.221  1.00  0.00     0.076 C 
HETATM   20  C9  UNL     1      25.816   3.204  51.147  1.00  0.00     0.085 C 
BRANCH  20  21
HETATM   21  N2  UNL     1      26.086   4.346  50.359  1.00  0.00    -0.399 N 
HETATM   22  H12 UNL     1      25.714   5.297  50.544  1.00  0.00     0.158 HD
BRANCH  21  23
HETATM   23  C10 UNL     1      26.946   4.164  49.211  1.00  0.00     0.120 C 
BRANCH  23  24
HETATM   24  C11 UNL     1      27.326   5.493  48.579  1.00  0.00     0.050 C 
BRANCH  24  25
HETATM   25  C12 UNL     1      28.810   5.449  48.302  1.00  0.00     0.274 C 
BRANCH  25  26
HETATM   26  N3  UNL     1      29.433   6.734  48.212  1.00  0.00     0.092 N 
HETATM   27  C13 UNL     1      30.773   6.807  48.708  1.00  0.00     0.298 C 
HETATM   28  C14 UNL     1      31.428   8.039  48.084  1.00  0.00     0.198 C 
HETATM   29  O1  UNL     1      30.480   9.047  47.917  1.00  0.00    -0.388 OA
HETATM   30  C15 UNL     1      29.506   9.017  48.917  1.00  0.00     0.198 C 
HETATM   31  C16 UNL     1      28.586   7.827  48.632  1.00  0.00     0.298 C 
ENDBRANCH  25  26
ENDBRANCH  24  25
ENDBRANCH  23  24
ENDBRANCH  21  23
ENDBRANCH  20  21
ENDBRANCH   1  19
TORSDOF 7
ENDMDL
MODEL 2
REMARK VINA RESULT:      -8.4      3.043      4.717
REMARK  7 active torsions:
REMARK  status: ('A' for Active; 'I' for Inactive)
REMARK    1  A    between atoms: N1_8  and  C7_9 
REMARK    2  A    between atoms: C7_9  and  C8_10 
REMARK    3  A    between atoms: C9_11  and  N2_12 
REMARK    4  A    between atoms: N2_12  and  C10_13 
REMARK    5  A    between atoms: C10_13  and  C11_14 
REMARK    6  A    between atoms: C11_14  and  C12_15 
REMARK    7  A    between atoms: C12_15  and  N3_16 
ROOT
HETATM    1  C7  UNL     1      25.665   1.057  52.421  1.00  0.00     0.259 C 
HETATM    2  N4  UNL     1      26.602  -0.066  52.129  1.00  0.00    -0.221 NA
HETATM    3  C17 UNL     1      26.556  -1.238  52.520  1.00  0.00     0.232 C 
HETATM    4  N5  UNL     1      27.513  -2.308  52.225  1.00  0.00    -0.254 NA
HETATM    5  C18 UNL     1      28.659  -2.202  52.917  1.00  0.00     0.120 C 
HETATM    6  C19 UNL     1      29.197  -1.261  53.904  1.00  0.00     0.043 C 
HETATM    7  C20 UNL     1      29.049  -0.149  54.616  1.00  0.00     0.139 C 
HETATM    8  O2  UNL     1      28.157   0.969  54.893  1.00  0.00    -0.338 OA
HETATM    9  C21 UNL     1      27.190   0.968  53.928  1.00  0.00     0.349 C 
HETATM   10  O3  UNL     1      26.398   1.877  53.376  1.00  0.00    -0.314 OA
ENDROOT
BRANCH   1  11
HETATM   11  N1  UNL     1      24.450   0.611  52.892  1.00  0.00    -0.353 N 
HETATM   12  C2  UNL     1      23.303   1.045  52.111  1.00  0.00     0.085 C 
HETATM   13  C1  UNL     1      22.637   2.212  52.804  1.00  0.00     0.032 C 
HETATM   14  C3  UNL     1      22.274  -0.055  51.972  1.00  0.00     0.075 C 
HETATM   15  C4  UNL     1      21.689  -0.254  53.339  1.00  0.00     0.011 C 
HETATM   16 CL1  UNL     1      20.046  -0.285  53.932  1.00  0.00    -0.089 Cl
HETATM   17  C5  UNL     1      22.733  -0.432  54.178  1.00  0.00     0.012 C 
HETATM   18  C6  UNL     1      24.208  -0.425  53.775  1.00  0.00     0.151 C 
ENDBRANCH   1  11
BRANCH   1  19
HETATM   19  C8  UNL     1      25.583   1.818  51.190  1.00  0.00     0.076 C 
HETATM   20  C9  UNL     1      26.213   2.974  51.052  1.00  0.00     0.085 C 
BRANCH  20  21
HETATM   21  N2  UNL     1      26.504   4.073  50.213  1.00  0.00    -0.399 N 
HETATM   22  H12 UNL     1      27.385   4.196  49.678  1.00  0.00     0.158 HD
BRANCH  21  23
HETATM   23  C10 UNL     1      25.490   5.098  50.096  1.00  0.00     0.120 C 
BRANCH  23  24
HETATM   24  C11 UNL     1      24.418   4.713  49.091  1.00  0.00     0.050 C 
BRANCH  24  25
HETATM   25  C12 UNL     1      23.144   4.473  49.867  1.00  0.00     0.274 C 
BRANCH  25  26
HETATM   26  N3  UNL     1      22.206   3.613  49.212  1.00  0.00     0.092 N 
HETATM   27  C13 UNL     1      22.739   2.381  48.716  1.00  0.00     0.298 C 
HETATM   28  C14 UNL     1      21.569   1.414  48.536  1.00  0.00     0.198 C 
HETATM   29  O1  UNL     1      20.430   2.115  48.147  1.00  0.00    -0.388 OA
HETATM   30  C15 UNL     1      20.744   3.226  47.361  1.00  0.00     0.198 C 
HETATM   31  C16 UNL     1      21.333   4.296  48.284  1.00  0.00     0.298 C 
ENDBRANCH  25  26
ENDBRANCH  24  25
ENDBRANCH  23  24
ENDBRANCH  21  23
ENDBRANCH  20  21
ENDBRANCH   1  19
TORSDOF 7
ENDMDL
MODEL 3
REMARK VINA RESULT:      -8.1      2.809      5.041
REMARK  7 active torsions:
REMARK  status: ('A' for Active; 'I' for Inactive)
REMARK    1  A    between atoms: N1_8  and  C7_9 
REMARK    2  A    between atoms: C7_9  and  C8_10 
REMARK    3  A    between atoms: C9_11  and  N2_12 
REMARK    4  A    between atoms: N2_12  and  C10_13 
REMARK    5  A    between atoms: C10_13  and  C11_14 
REMARK    6  A    between atoms: C11_14  and  C12_15 
REMARK    7  A    between atoms: C12_15  and  N3_16 
ROOT
HETATM    1  C7  UNL     1      23.786   2.025  52.497  1.00  0.00     0.259 C 
HETATM    2  N4  UNL     1      22.499   1.607  53.124  1.00  0.00    -0.221 NA
HETATM    3  C17 UNL     1      22.157   0.488  53.526  1.00  0.00     0.232 C 
HETATM    4  N5  UNL     1      20.870   0.115  54.119  1.00  0.00    -0.254 NA
HETATM    5  C18 UNL     1      19.880   0.010  53.217  1.00  0.00     0.120 C 
HETATM    6  C19 UNL     1      19.768   0.186  51.766  1.00  0.00     0.043 C 
HETATM    7  C20 UNL     1      20.341   0.507  50.610  1.00  0.00     0.139 C 
HETATM    8  O2  UNL     1      21.583   0.941  49.985  1.00  0.00    -0.338 OA
HETATM    9  C21 UNL     1      22.425   1.340  50.986  1.00  0.00     0.349 C 
HETATM   10  O3  UNL     1      23.447   2.178  51.088  1.00  0.00    -0.314 OA
ENDROOT
BRANCH   1  11
HETATM   11  N1  UNL     1      24.795   1.119  52.729  1.00  0.00    -0.353 N 
HETATM   12  C2  UNL     1      26.123   1.705  52.826  1.00  0.00     0.085 C 
HETATM   13  C1  UNL     1      26.855   1.506  51.518  1.00  0.00     0.032 C 
HETATM   14  C3  UNL     1      26.943   1.050  53.916  1.00  0.00     0.075 C 
HETATM   15  C4  UNL     1      27.229  -0.345  53.441  1.00  0.00     0.011 C 
HETATM   16 CL1  UNL     1      28.707  -1.264  53.284  1.00  0.00    -0.089 Cl
HETATM   17  C5  UNL     1      26.037  -0.884  53.101  1.00  0.00     0.012 C 
HETATM   18  C6  UNL     1      24.684  -0.178  53.196  1.00  0.00     0.151 C 
ENDBRANCH   1  11
BRANCH   1  19
HETATM   19  C8  UNL     1      24.048   3.354  53.012  1.00  0.00     0.076 C 
HETATM   20  C9  UNL     1      23.792   4.435  52.292  1.00  0.00     0.085 C 
BRANCH  20  21
HETATM   21  N2  UNL     1      23.816   5.846  52.222  1.00  0.00    -0.399 N 
HETATM   22  H12 UNL     1      23.712   6.484  53.034  1.00  0.00     0.158 HD
BRANCH  21  23
HETATM   23  C10 UNL     1      24.001   6.436  50.914  1.00  0.00     0.120 C 
BRANCH  23  24
HETATM   24  C11 UNL     1      24.668   5.467  49.952  1.00  0.00     0.050 C 
BRANCH  24  25
HETATM   25  C12 UNL     1      24.952   6.228  48.678  1.00  0.00     0.274 C 
BRANCH  25  26
HETATM   26  N3  UNL     1      26.344   6.399  48.389  1.00  0.00     0.092 N 
HETATM   27  C13 UNL     1      27.219   5.428  48.970  1.00  0.00     0.298 C 
HETATM   28  C14 UNL     1      28.523   5.449  48.171  1.00  0.00     0.198 C 
HETATM   29  O1  UNL     1      28.790   6.744  47.732  1.00  0.00    -0.388 OA
HETATM   30  C15 UNL     1      28.330   7.705  48.635  1.00  0.00     0.198 C 
HETATM   31  C16 UNL     1      26.805   7.763  48.515  1.00  0.00     0.298 C 
ENDBRANCH  25  26
ENDBRANCH  24  25
ENDBRANCH  23  24
ENDBRANCH  21  23
ENDBRANCH  20  21
ENDBRANCH   1  19
TORSDOF 7
ENDMDL
MODEL 4
REMARK VINA RESULT:      -8.1      4.297      6.436
REMARK  7 active torsions:
REMARK  status: ('A' for Active; 'I' for Inactive)
REMARK    1  A    between atoms: N1_8  and  C7_9 
REMARK    2  A    between atoms: C7_9  and  C8_10 
REMARK    3  A    between atoms: C9_11  and  N2_12 
REMARK    4  A    between atoms: N2_12  and  C10_13 
REMARK    5  A    between atoms: C10_13  and  C11_14 
REMARK    6  A    between atoms: C11_14  and  C12_15 
REMARK    7  A    between atoms: C12_15  and  N3_16 
ROOT
HETATM    1  C7  UNL     1      23.830   2.025  52.502  1.00  0.00     0.259 C 
HETATM    2  N4  UNL     1      22.535   1.615  53.120  1.00  0.00    -0.221 NA
HETATM    3  C17 UNL     1      22.185   0.500  53.522  1.00  0.00     0.232 C 
HETATM    4  N5  UNL     1      20.891   0.136  54.106  1.00  0.00    -0.254 NA
HETATM    5  C18 UNL     1      19.908   0.033  53.196  1.00  0.00     0.120 C 
HETATM    6  C19 UNL     1      19.809   0.205  51.743  1.00  0.00     0.043 C 
HETATM    7  C20 UNL     1      20.393   0.519  50.591  1.00  0.00     0.139 C 
HETATM    8  O2  UNL     1      21.643   0.945  49.976  1.00  0.00    -0.338 OA
HETATM    9  C21 UNL     1      22.478   1.343  50.981  1.00  0.00     0.349 C 
HETATM   10  O3  UNL     1      23.504   2.175  51.090  1.00  0.00    -0.314 OA
ENDROOT
BRANCH   1  11
HETATM   11  N1  UNL     1      24.833   1.114  52.745  1.00  0.00    -0.353 N 
HETATM   12  C2  UNL     1      26.169   1.686  52.797  1.00  0.00     0.085 C 
HETATM   13  C1  UNL     1      26.873   1.434  51.483  1.00  0.00     0.032 C 
HETATM   14  C3  UNL     1      27.002   1.057  53.892  1.00  0.00     0.075 C 
HETATM   15  C4  UNL     1      27.262  -0.356  53.460  1.00  0.00     0.011 C 
HETATM   16 CL1  UNL     1      28.725  -1.298  53.305  1.00  0.00    -0.089 Cl
HETATM   17  C5  UNL     1      26.057  -0.890  53.161  1.00  0.00     0.012 C 
HETATM   18  C6  UNL     1      24.714  -0.165  53.258  1.00  0.00     0.151 C 
ENDBRANCH   1  11
BRANCH   1  19
HETATM   19  C8  UNL     1      24.096   3.355  53.015  1.00  0.00     0.076 C 
HETATM   20  C9  UNL     1      23.785   4.437  52.319  1.00  0.00     0.085 C 
BRANCH  20  21
HETATM   21  N2  UNL     1      23.781   5.848  52.260  1.00  0.00    -0.399 N 
HETATM   22  H12 UNL     1      23.507   6.475  53.041  1.00  0.00     0.158 HD
BRANCH  21  23
HETATM   23  C10 UNL     1      24.192   6.456  51.013  1.00  0.00     0.120 C 
BRANCH  23  24
HETATM   24  C11 UNL     1      24.386   5.416  49.922  1.00  0.00     0.050 C 
BRANCH  24  25
HETATM   25  C12 UNL     1      23.637   5.902  48.704  1.00  0.00     0.274 C 
BRANCH  25  26
HETATM   26  N3  UNL     1      22.766   4.929  48.118  1.00  0.00     0.092 N 
HETATM   27  C13 UNL     1      22.287   5.238  46.806  1.00  0.00     0.298 C 
HETATM   28  C14 UNL     1      21.832   3.928  46.162  1.00  0.00     0.198 C 
HETATM   29  O1  UNL     1      21.297   3.084  47.133  1.00  0.00    -0.388 OA
HETATM   30  C15 UNL     1      20.661   3.796  48.151  1.00  0.00     0.198 C 
HETATM   31  C16 UNL     1      21.748   4.436  49.019  1.00  0.00     0.298 C 
ENDBRANCH  25  26
ENDBRANCH  24  25
ENDBRANCH  23  24
ENDBRANCH  21  23
ENDBRANCH  20  21
ENDBRANCH   1  19
TORSDOF 7
ENDMDL
MODEL 5
REMARK VINA RESULT:      -8.0      3.292      8.251
REMARK  7 active torsions:
REMARK  status: ('A' for Active; 'I' for Inactive)
REMARK    1  A    between atoms: N1_8  and  C7_9 
REMARK    2  A    between atoms: C7_9  and  C8_10 
REMARK    3  A    between atoms: C9_11  and  N2_12 
REMARK    4  A    between atoms: N2_12  and  C10_13 
REMARK    5  A    between atoms: C10_13  and  C11_14 
REMARK    6  A    between atoms: C11_14  and  C12_15 
REMARK    7  A    between atoms: C12_15  and  N3_16 
ROOT
HETATM    1  C7  UNL     1      24.629   3.694  50.156  1.00  0.00     0.259 C 
HETATM    2  N4  UNL     1      25.515   4.436  49.213  1.00  0.00    -0.221 NA
HETATM    3  C17 UNL     1      26.719   4.696  49.319  1.00  0.00     0.232 C 
HETATM    4  N5  UNL     1      27.549   5.449  48.375  1.00  0.00    -0.254 NA
HETATM    5  C18 UNL     1      27.337   6.775  48.421  1.00  0.00     0.120 C 
HETATM    6  C19 UNL     1      26.461   7.664  49.190  1.00  0.00     0.043 C 
HETATM    7  C20 UNL     1      25.503   7.812  50.099  1.00  0.00     0.139 C 
HETATM    8  O2  UNL     1      24.612   7.101  51.006  1.00  0.00    -0.338 OA
HETATM    9  C21 UNL     1      24.652   5.779  50.663  1.00  0.00     0.349 C 
HETATM   10  O3  UNL     1      23.832   4.744  50.776  1.00  0.00    -0.314 OA
ENDROOT
BRANCH   1  11
HETATM   11  N1  UNL     1      25.345   2.938  51.055  1.00  0.00    -0.353 N 
HETATM   12  C2  UNL     1      24.533   2.229  52.032  1.00  0.00     0.085 C 
HETATM   13  C1  UNL     1      24.549   2.987  53.340  1.00  0.00     0.032 C 
HETATM   14  C3  UNL     1      25.067   0.839  52.299  1.00  0.00     0.075 C 
HETATM   15  C4  UNL     1      26.369   1.025  53.022  1.00  0.00     0.011 C 
HETATM   16 CL1  UNL     1      26.999   0.373  54.515  1.00  0.00    -0.089 Cl
HETATM   17  C5  UNL     1      27.102   1.879  52.273  1.00  0.00     0.012 C 
HETATM   18  C6  UNL     1      26.657   2.510  50.953  1.00  0.00     0.151 C 
ENDBRANCH   1  11
BRANCH   1  19
HETATM   19  C8  UNL     1      23.731   2.927  49.314  1.00  0.00     0.076 C 
HETATM   20  C9  UNL     1      22.418   3.064  49.404  1.00  0.00     0.085 C 
BRANCH  20  21
HETATM   21  N2  UNL     1      21.149   2.662  48.930  1.00  0.00    -0.399 N 
HETATM   22  H12 UNL     1      20.499   3.264  48.389  1.00  0.00     0.158 HD
BRANCH  21  23
HETATM   23  C10 UNL     1      20.734   1.309  49.227  1.00  0.00     0.120 C 
BRANCH  23  24
HETATM   24  C11 UNL     1      20.517   1.104  50.717  1.00  0.00     0.050 C 
BRANCH  24  25
HETATM   25  C12 UNL     1      21.539   0.094  51.182  1.00  0.00     0.274 C 
BRANCH  25  26
HETATM   26  N3  UNL     1      21.448  -0.244  52.571  1.00  0.00     0.092 N 
HETATM   27  C13 UNL     1      21.314   0.862  53.468  1.00  0.00     0.298 C 
HETATM   28  C14 UNL     1      20.729   0.326  54.774  1.00  0.00     0.198 C 
HETATM   29  O1  UNL     1      21.198  -0.964  55.010  1.00  0.00    -0.388 OA
HETATM   30  C15 UNL     1      22.494  -1.145  54.522  1.00  0.00     0.198 C 
HETATM   31  C16 UNL     1      22.406  -1.239  52.996  1.00  0.00     0.298 C 
ENDBRANCH  25  26
ENDBRANCH  24  25
ENDBRANCH  23  24
ENDBRANCH  21  23
ENDBRANCH  20  21
ENDBRANCH   1  19
TORSDOF 7
ENDMDL
MODEL 6
REMARK VINA RESULT:      -8.0      2.929      4.120
REMARK  7 active torsions:
REMARK  status: ('A' for Active; 'I' for Inactive)
REMARK    1  A    between atoms: N1_8  and  C7_9 
REMARK    2  A    between atoms: C7_9  and  C8_10 
REMARK    3  A    between atoms: C9_11  and  N2_12 
REMARK    4  A    between atoms: N2_12  and  C10_13 
REMARK    5  A    between atoms: C10_13  and  C11_14 
REMARK    6  A    between atoms: C11_14  and  C12_15 
REMARK    7  A    between atoms: C12_15  and  N3_16 
ROOT
HETATM    1  C7  UNL     1      25.885   1.060  52.262  1.00  0.00     0.259 C 
HETATM    2  N4  UNL     1      26.782  -0.111  52.039  1.00  0.00    -0.221 NA
HETATM    3  C17 UNL     1      26.700  -1.253  52.505  1.00  0.00     0.232 C 
HETATM    4  N5  UNL     1      27.619  -2.372  52.274  1.00  0.00    -0.254 NA
HETATM    5  C18 UNL     1      28.773  -2.260  52.952  1.00  0.00     0.120 C 
HETATM    6  C19 UNL     1      29.350  -1.277  53.873  1.00  0.00     0.043 C 
HETATM    7  C20 UNL     1      29.244  -0.116  54.513  1.00  0.00     0.139 C 
HETATM    8  O2  UNL     1      28.392   1.047  54.722  1.00  0.00    -0.338 OA
HETATM    9  C21 UNL     1      27.418   1.016  53.763  1.00  0.00     0.349 C 
HETATM   10  O3  UNL     1      26.653   1.913  53.158  1.00  0.00    -0.314 OA
ENDROOT
BRANCH   1  11
HETATM   11  N1  UNL     1      24.660   0.686  52.767  1.00  0.00    -0.353 N 
HETATM   12  C2  UNL     1      23.520   1.275  52.083  1.00  0.00     0.085 C 
HETATM   13  C1  UNL     1      22.997   2.440  52.894  1.00  0.00     0.032 C 
HETATM   14  C3  UNL     1      22.390   0.281  51.925  1.00  0.00     0.075 C 
HETATM   15  C4  UNL     1      21.857   0.031  53.305  1.00  0.00     0.011 C 
HETATM   16 CL1  UNL     1      20.249   0.098  53.985  1.00  0.00    -0.089 Cl
HETATM   17  C5  UNL     1      22.921  -0.298  54.070  1.00  0.00     0.012 C 
HETATM   18  C6  UNL     1      24.370  -0.389  53.587  1.00  0.00     0.151 C 
ENDBRANCH   1  11
BRANCH   1  19
HETATM   19  C8  UNL     1      25.820   1.742  50.985  1.00  0.00     0.076 C 
HETATM   20  C9  UNL     1      26.450   2.889  50.784  1.00  0.00     0.085 C 
BRANCH  20  21
HETATM   21  N2  UNL     1      26.751   3.934  49.882  1.00  0.00    -0.399 N 
HETATM   22  H12 UNL     1      27.586   3.966  49.267  1.00  0.00     0.158 HD
BRANCH  21  23
HETATM   23  C10 UNL     1      25.818   5.037  49.819  1.00  0.00     0.120 C 
BRANCH  23  24
HETATM   24  C11 UNL     1      24.480   4.606  49.241  1.00  0.00     0.050 C 
BRANCH  24  25
HETATM   25  C12 UNL     1      23.425   4.919  50.276  1.00  0.00     0.274 C 
BRANCH  25  26
HETATM   26  N3  UNL     1      22.379   5.780  49.813  1.00  0.00     0.092 N 
HETATM   27  C13 UNL     1      22.558   6.317  48.499  1.00  0.00     0.298 C 
HETATM   28  C14 UNL     1      21.183   6.754  47.991  1.00  0.00     0.198 C 
HETATM   29  O1  UNL     1      20.413   7.225  49.051  1.00  0.00    -0.388 OA
HETATM   30  C15 UNL     1      21.194   7.845  50.029  1.00  0.00     0.198 C 
HETATM   31  C16 UNL     1      21.938   6.747  50.793  1.00  0.00     0.298 C 
ENDBRANCH  25  26
ENDBRANCH  24  25
ENDBRANCH  23  24
ENDBRANCH  21  23
ENDBRANCH  20  21
ENDBRANCH   1  19
TORSDOF 7
ENDMDL
MODEL 7
REMARK VINA RESULT:      -7.8      1.416      1.919
REMARK  7 active torsions:
REMARK  status: ('A' for Active; 'I' for Inactive)
REMARK    1  A    between atoms: N1_8  and  C7_9 
REMARK    2  A    between atoms: C7_9  and  C8_10 
REMARK    3  A    between atoms: C9_11  and  N2_12 
REMARK    4  A    between atoms: N2_12  and  C10_13 
REMARK    5  A    between atoms: C10_13  and  C11_14 
REMARK    6  A    between atoms: C11_14  and  C12_15 
REMARK    7  A    between atoms: C12_15  and  N3_16 
ROOT
HETATM    1  C7  UNL     1      25.670   1.142  52.384  1.00  0.00     0.259 C 
HETATM    2  N4  UNL     1      26.599   0.009  52.105  1.00  0.00    -0.221 NA
HETATM    3  C17 UNL     1      26.534  -1.163  52.494  1.00  0.00     0.232 C 
HETATM    4  N5  UNL     1      27.484  -2.243  52.212  1.00  0.00    -0.254 NA
HETATM    5  C18 UNL     1      28.620  -2.150  52.923  1.00  0.00     0.120 C 
HETATM    6  C19 UNL     1      29.153  -1.217  53.919  1.00  0.00     0.043 C 
HETATM    7  C20 UNL     1      29.006  -0.103  54.630  1.00  0.00     0.139 C 
HETATM    8  O2  UNL     1      28.122   1.024  54.895  1.00  0.00    -0.338 OA
HETATM    9  C21 UNL     1      27.170   1.034  53.914  1.00  0.00     0.349 C 
HETATM   10  O3  UNL     1      26.397   1.952  53.351  1.00  0.00    -0.314 OA
ENDROOT
BRANCH   1  11
HETATM   11  N1  UNL     1      24.443   0.709  52.835  1.00  0.00    -0.353 N 
HETATM   12  C2  UNL     1      23.315   1.141  52.025  1.00  0.00     0.085 C 
HETATM   13  C1  UNL     1      22.642   2.319  52.691  1.00  0.00     0.032 C 
HETATM   14  C3  UNL     1      22.282   0.045  51.878  1.00  0.00     0.075 C 
HETATM   15  C4  UNL     1      21.668  -0.134  53.235  1.00  0.00     0.011 C 
HETATM   16 CL1  UNL     1      20.013  -0.148  53.794  1.00  0.00    -0.089 Cl
HETATM   17  C5  UNL     1      22.694  -0.308  54.098  1.00  0.00     0.012 C 
HETATM   18  C6  UNL     1      24.177  -0.316  53.725  1.00  0.00     0.151 C 
ENDBRANCH   1  11
BRANCH   1  19
HETATM   19  C8  UNL     1      25.616   1.905  51.152  1.00  0.00     0.076 C 
HETATM   20  C9  UNL     1      26.250   3.061  51.031  1.00  0.00     0.085 C 
BRANCH  20  21
HETATM   21  N2  UNL     1      26.560   4.162  50.200  1.00  0.00    -0.399 N 
HETATM   22  H12 UNL     1      27.399   4.764  50.301  1.00  0.00     0.158 HD
BRANCH  21  23
HETATM   23  C10 UNL     1      25.632   4.461  49.131  1.00  0.00     0.120 C 
BRANCH  23  24
HETATM   24  C11 UNL     1      24.896   5.768  49.379  1.00  0.00     0.050 C 
BRANCH  24  25
HETATM   25  C12 UNL     1      25.925   6.784  49.814  1.00  0.00     0.274 C 
BRANCH  25  26
HETATM   26  N3  UNL     1      26.464   7.574  48.748  1.00  0.00     0.092 N 
HETATM   27  C13 UNL     1      25.635   7.693  47.588  1.00  0.00     0.298 C 
HETATM   28  C14 UNL     1      26.101   8.928  46.817  1.00  0.00     0.198 C 
HETATM   29  O1  UNL     1      27.480   9.078  46.949  1.00  0.00    -0.388 OA
HETATM   30  C15 UNL     1      28.130   7.847  47.057  1.00  0.00     0.198 C 
HETATM   31  C16 UNL     1      27.853   7.296  48.458  1.00  0.00     0.298 C 
ENDBRANCH  25  26
ENDBRANCH  24  25
ENDBRANCH  23  24
ENDBRANCH  21  23
ENDBRANCH  20  21
ENDBRANCH   1  19
TORSDOF 7
ENDMDL
MODEL 8
REMARK VINA RESULT:      -7.8      4.576      8.651
REMARK  7 active torsions:
REMARK  status: ('A' for Active; 'I' for Inactive)
REMARK    1  A    between atoms: N1_8  and  C7_9 
REMARK    2  A    between atoms: C7_9  and  C8_10 
REMARK    3  A    between atoms: C9_11  and  N2_12 
REMARK    4  A    between atoms: N2_12  and  C10_13 
REMARK    5  A    between atoms: C10_13  and  C11_14 
REMARK    6  A    between atoms: C11_14  and  C12_15 
REMARK    7  A    between atoms: C12_15  and  N3_16 
ROOT
HETATM    1  C7  UNL     1      23.257   3.552  50.770  1.00  0.00     0.259 C 
HETATM    2  N4  UNL     1      22.274   2.669  50.078  1.00  0.00    -0.221 NA
HETATM    3  C17 UNL     1      21.392   2.974  49.267  1.00  0.00     0.232 C 
HETATM    4  N5  UNL     1      20.430   2.073  48.625  1.00  0.00    -0.254 NA
HETATM    5  C18 UNL     1      19.437   1.686  49.443  1.00  0.00     0.120 C 
HETATM    6  C19 UNL     1      19.080   1.940  50.842  1.00  0.00     0.043 C 
HETATM    7  C20 UNL     1      19.366   2.519  52.004  1.00  0.00     0.139 C 
HETATM    8  O2  UNL     1      20.331   3.359  52.701  1.00  0.00    -0.338 OA
HETATM    9  C21 UNL     1      21.450   3.429  51.920  1.00  0.00     0.349 C 
HETATM   10  O3  UNL     1      22.742   3.641  52.129  1.00  0.00    -0.314 OA
ENDROOT
BRANCH   1  11
HETATM   11  N1  UNL     1      23.388   4.772  50.146  1.00  0.00    -0.353 N 
HETATM   12  C2  UNL     1      23.141   5.919  51.005  1.00  0.00     0.085 C 
HETATM   13  C1  UNL     1      21.746   6.444  50.751  1.00  0.00     0.032 C 
HETATM   14  C3  UNL     1      24.113   7.045  50.725  1.00  0.00     0.075 C 
HETATM   15  C4  UNL     1      23.765   7.568  49.363  1.00  0.00     0.011 C 
HETATM   16 CL1  UNL     1      23.423   9.172  48.761  1.00  0.00    -0.089 Cl
HETATM   17  C5  UNL     1      23.742   6.498  48.538  1.00  0.00     0.012 C 
HETATM   18  C6  UNL     1      24.024   5.052  48.950  1.00  0.00     0.151 C 
ENDBRANCH   1  11
BRANCH   1  19
HETATM   19  C8  UNL     1      24.484   2.781  50.835  1.00  0.00     0.076 C 
HETATM   20  C9  UNL     1      25.314   2.895  51.860  1.00  0.00     0.085 C 
BRANCH  20  21
HETATM   21  N2  UNL     1      26.526   2.478  52.456  1.00  0.00    -0.399 N 
HETATM   22  H12 UNL     1      27.466   2.836  52.203  1.00  0.00     0.158 HD
BRANCH  21  23
HETATM   23  C10 UNL     1      26.437   1.477  53.496  1.00  0.00     0.120 C 
BRANCH  23  24
HETATM   24  C11 UNL     1      25.839   0.180  52.975  1.00  0.00     0.050 C 
BRANCH  24  25
HETATM   25  C12 UNL     1      25.126  -0.479  54.132  1.00  0.00     0.274 C 
BRANCH  25  26
HETATM   26  N3  UNL     1      23.727  -0.695  53.919  1.00  0.00     0.092 N 
HETATM   27  C13 UNL     1      23.042   0.343  53.213  1.00  0.00     0.298 C 
HETATM   28  C14 UNL     1      21.758  -0.259  52.642  1.00  0.00     0.198 C 
HETATM   29  O1  UNL     1      21.260  -1.227  53.512  1.00  0.00    -0.388 OA
HETATM   30  C15 UNL     1      21.536  -0.920  54.846  1.00  0.00     0.198 C 
HETATM   31  C16 UNL     1      23.025  -1.182  55.085  1.00  0.00     0.298 C 
ENDBRANCH  25  26
ENDBRANCH  24  25
ENDBRANCH  23  24
ENDBRANCH  21  23
ENDBRANCH  20  21
ENDBRANCH   1  19
TORSDOF 7
ENDMDL
MODEL 9
REMARK VINA RESULT:      -7.7      4.157      8.203
REMARK  7 active torsions:
REMARK  status: ('A' for Active; 'I' for Inactive)
REMARK    1  A    between atoms: N1_8  and  C7_9 
REMARK    2  A    between atoms: C7_9  and  C8_10 
REMARK    3  A    between atoms: C9_11  and  N2_12 
REMARK    4  A    between atoms: N2_12  and  C10_13 
REMARK    5  A    between atoms: C10_13  and  C11_14 
REMARK    6  A    between atoms: C11_14  and  C12_15 
REMARK    7  A    between atoms: C12_15  and  N3_16 
ROOT
HETATM    1  C7  UNL     1      24.615   1.417  52.440  1.00  0.00     0.259 C 
HETATM    2  N4  UNL     1      24.445   2.173  51.165  1.00  0.00    -0.221 NA
HETATM    3  C17 UNL     1      25.276   2.844  50.543  1.00  0.00     0.232 C 
HETATM    4  N5  UNL     1      25.059   3.590  49.299  1.00  0.00    -0.254 NA
HETATM    5  C18 UNL     1      24.379   4.735  49.478  1.00  0.00     0.120 C 
HETATM    6  C19 UNL     1      23.787   5.427  50.626  1.00  0.00     0.043 C 
HETATM    7  C20 UNL     1      23.517   5.450  51.927  1.00  0.00     0.139 C 
HETATM    8  O2  UNL     1      23.652   4.713  53.177  1.00  0.00    -0.338 OA
HETATM    9  C21 UNL     1      24.043   3.442  52.860  1.00  0.00     0.349 C 
HETATM   10  O3  UNL     1      23.934   2.247  53.424  1.00  0.00    -0.314 OA
ENDROOT
BRANCH   1  11
HETATM   11  N1  UNL     1      25.940   1.186  52.733  1.00  0.00    -0.353 N 
HETATM   12  C2  UNL     1      26.211  -0.118  53.317  1.00  0.00     0.085 C 
HETATM   13  C1  UNL     1      26.370   0.027  54.814  1.00  0.00     0.032 C 
HETATM   14  C3  UNL     1      27.490  -0.717  52.776  1.00  0.00     0.075 C 
HETATM   15  C4  UNL     1      28.608   0.127  53.315  1.00  0.00     0.011 C 
HETATM   16 CL1  UNL     1      30.076  -0.261  54.179  1.00  0.00    -0.089 Cl
HETATM   17  C5  UNL     1      28.300   1.407  53.009  1.00  0.00     0.012 C 
HETATM   18  C6  UNL     1      27.048   1.865  52.259  1.00  0.00     0.151 C 
ENDBRANCH   1  11
BRANCH   1  19
HETATM   19  C8  UNL     1      23.821   0.215  52.282  1.00  0.00     0.076 C 
HETATM   20  C9  UNL     1      23.144  -0.301  53.295  1.00  0.00     0.085 C 
BRANCH  20  21
HETATM   21  N2  UNL     1      22.283  -1.327  53.746  1.00  0.00    -0.399 N 
HETATM   22  H12 UNL     1      22.337  -2.320  53.451  1.00  0.00     0.158 HD
BRANCH  21  23
HETATM   23  C10 UNL     1      21.254  -0.954  54.692  1.00  0.00     0.120 C 
BRANCH  23  24
HETATM   24  C11 UNL     1      20.466   0.254  54.213  1.00  0.00     0.050 C 
BRANCH  24  25
HETATM   25  C12 UNL     1      19.497  -0.233  53.162  1.00  0.00     0.274 C 
BRANCH  25  26
HETATM   26  N3  UNL     1      19.690   0.346  51.867  1.00  0.00     0.092 N 
HETATM   27  C13 UNL     1      20.340   1.621  51.850  1.00  0.00     0.298 C 
HETATM   28  C14 UNL     1      20.907   1.828  50.446  1.00  0.00     0.198 C 
HETATM   29  O1  UNL     1      20.067   1.241  49.503  1.00  0.00    -0.388 OA
HETATM   30  C15 UNL     1      18.728   1.292  49.894  1.00  0.00     0.198 C 
HETATM   31  C16 UNL     1      18.530   0.261  51.009  1.00  0.00     0.298 C 
ENDBRANCH  25  26
ENDBRANCH  24  25
ENDBRANCH  23  24
ENDBRANCH  21  23
ENDBRANCH  20  21
ENDBRANCH   1  19
TORSDOF 7
ENDMDL
