MODEL 1
REMARK VINA RESULT:      -8.3      0.000      0.000
REMARK  5 active torsions:
REMARK  status: ('A' for Active; 'I' for Inactive)
REMARK    1  A    between atoms: C1_2  and  C2_3 
REMARK       I    between atoms: C1_2  and  N1_5 
REMARK    2  A    between atoms: N1_5  and  C3_6 
REMARK    3  A    between atoms: C7_10  and  N2_11 
REMARK    4  A    between atoms: N2_11  and  C8_12 
REMARK    5  A    between atoms: C11_16  and  C12_17 
ROOT
HETATM    1  N2  UNL     1      23.276   1.482  51.268  1.00  0.00    -0.188 N 
HETATM    2  H7  UNL     1      22.893   1.049  50.401  1.00  0.00     0.184 HD
ENDROOT
BRANCH   1   3
HETATM    3  C7  UNL     1      23.642   0.680  52.383  1.00  0.00     0.051 A 
HETATM    4  C6  UNL     1      22.707   0.292  53.318  1.00  0.00     0.030 A 
HETATM    5  C5  UNL     1      23.031  -0.489  54.408  1.00  0.00     0.004 A 
HETATM    6  C4  UNL     1      24.324  -0.897  54.574  1.00  0.00     0.029 A 
HETATM    7  C3  UNL     1      25.245  -0.495  53.622  1.00  0.00     0.036 A 
HETATM    8  C17 UNL     1      24.956   0.284  52.523  1.00  0.00     0.059 A 
BRANCH   7   9
HETATM    9  N1  UNL     1      26.605  -0.941  53.817  1.00  0.00    -0.326 N 
HETATM   10  C1  UNL     1      27.276   0.143  54.447  1.00  0.00     0.235 C 
HETATM   11  O1  UNL     1      26.721   1.232  54.739  1.00  0.00    -0.272 OA
HETATM   12  H3  UNL     1      27.267  -1.733  53.676  1.00  0.00     0.169 HD
BRANCH  10  13
HETATM   13  C2  UNL     1      28.681   0.309  54.905  1.00  0.00     0.217 C 
HETATM   14 CL1  UNL     1      29.734  -0.363  53.644  1.00  0.00    -0.121 Cl
ENDBRANCH  10  13
ENDBRANCH   7   9
ENDBRANCH   1   3
BRANCH   1  15
HETATM   15  C8  UNL     1      23.413   2.899  51.283  1.00  0.00     0.727 A 
HETATM   16  N3  UNL     1      22.575   3.755  51.935  1.00  0.00    -0.075 NA
HETATM   17  C9  UNL     1      22.812   5.096  51.867  1.00  0.00     0.139 A 
HETATM   18  C10 UNL     1      23.908   5.525  51.129  1.00  0.00     0.053 A 
HETATM   19  C11 UNL     1      24.757   4.674  50.470  1.00  0.00     0.089 A 
HETATM   20  N5  UNL     1      24.463   3.365  50.581  1.00  0.00    -0.062 NA
BRANCH  19  21
HETATM   21  C12 UNL     1      25.904   5.127  49.694  1.00  0.00     0.011 A 
HETATM   22  C13 UNL     1      26.084   6.425  49.264  1.00  0.00     0.017 A 
HETATM   23  C14 UNL     1      27.175   6.838  48.526  1.00  0.00     0.020 A 
HETATM   24  C15 UNL     1      28.099   5.865  48.234  1.00  0.00     0.116 A 
HETATM   25  N4  UNL     1      27.969   4.581  48.630  1.00  0.00    -0.272 NA
HETATM   26  C16 UNL     1      26.878   4.203  49.359  1.00  0.00     0.130 A 
ENDBRANCH  19  21
ENDBRANCH   1  15
TORSDOF 5
ENDMDL
MODEL 2
REMARK VINA RESULT:      -8.1      1.604      1.943
REMARK  5 active torsions:
REMARK  status: ('A' for Active; 'I' for Inactive)
REMARK    1  A    between atoms: C1_2  and  C2_3 
REMARK       I    between atoms: C1_2  and  N1_5 
REMARK    2  A    between atoms: N1_5  and  C3_6 
REMARK    3  A    between atoms: C7_10  and  N2_11 
REMARK    4  A    between atoms: N2_11  and  C8_12 
REMARK    5  A    between atoms: C11_16  and  C12_17 
ROOT
HETATM    1  N2  UNL     1      24.130   3.728  52.722  1.00  0.00    -0.188 N 
HETATM    2  H7  UNL     1      23.983   4.491  53.417  1.00  0.00     0.184 HD
ENDROOT
BRANCH   1   3
HETATM    3  C7  UNL     1      24.458   2.411  53.145  1.00  0.00     0.051 A 
HETATM    4  C6  UNL     1      23.580   1.366  52.961  1.00  0.00     0.030 A 
HETATM    5  C5  UNL     1      23.871   0.076  53.359  1.00  0.00     0.004 A 
HETATM    6  C4  UNL     1      25.071  -0.180  53.957  1.00  0.00     0.029 A 
HETATM    7  C3  UNL     1      25.937   0.886  54.131  1.00  0.00     0.036 A 
HETATM    8  C17 UNL     1      25.678   2.183  53.747  1.00  0.00     0.059 A 
BRANCH   7   9
HETATM    9  N1  UNL     1      27.200   0.589  54.764  1.00  0.00    -0.326 N 
HETATM   10  C1  UNL     1      28.103   0.306  53.704  1.00  0.00     0.235 C 
HETATM   11  O1  UNL     1      27.783   0.334  52.489  1.00  0.00    -0.272 OA
HETATM   12  H3  UNL     1      27.692   0.503  55.680  1.00  0.00     0.169 HD
BRANCH  10  13
HETATM   13  C2  UNL     1      29.543  -0.066  53.698  1.00  0.00     0.217 C 
HETATM   14 CL1  UNL     1      29.635  -1.831  53.537  1.00  0.00    -0.121 Cl
ENDBRANCH  10  13
ENDBRANCH   7   9
ENDBRANCH   1   3
BRANCH   1  15
HETATM   15  C8  UNL     1      23.990   4.063  51.346  1.00  0.00     0.727 A 
HETATM   16  N3  UNL     1      22.851   3.891  50.616  1.00  0.00    -0.075 NA
HETATM   17  C9  UNL     1      22.845   4.247  49.300  1.00  0.00     0.139 A 
HETATM   18  C10 UNL     1      24.015   4.773  48.765  1.00  0.00     0.053 A 
HETATM   19  C11 UNL     1      25.166   4.950  49.489  1.00  0.00     0.089 A 
HETATM   20  N5  UNL     1      25.098   4.577  50.781  1.00  0.00    -0.062 NA
BRANCH  19  21
HETATM   21  C12 UNL     1      26.392   5.499  48.924  1.00  0.00     0.011 A 
HETATM   22  C13 UNL     1      27.559   4.782  48.765  1.00  0.00     0.017 A 
HETATM   23  C14 UNL     1      28.715   5.317  48.231  1.00  0.00     0.020 A 
HETATM   24  C15 UNL     1      28.640   6.636  47.856  1.00  0.00     0.116 A 
HETATM   25  N4  UNL     1      27.523   7.382  47.993  1.00  0.00    -0.272 NA
HETATM   26  C16 UNL     1      26.397   6.823  48.524  1.00  0.00     0.130 A 
ENDBRANCH  19  21
ENDBRANCH   1  15
TORSDOF 5
ENDMDL
MODEL 3
REMARK VINA RESULT:      -7.9      2.378      3.935
REMARK  5 active torsions:
REMARK  status: ('A' for Active; 'I' for Inactive)
REMARK    1  A    between atoms: C1_2  and  C2_3 
REMARK       I    between atoms: C1_2  and  N1_5 
REMARK    2  A    between atoms: N1_5  and  C3_6 
REMARK    3  A    between atoms: C7_10  and  N2_11 
REMARK    4  A    between atoms: N2_11  and  C8_12 
REMARK    5  A    between atoms: C11_16  and  C12_17 
ROOT
HETATM    1  N2  UNL     1      26.439   3.086  49.445  1.00  0.00    -0.188 N 
HETATM    2  H7  UNL     1      26.548   2.344  48.721  1.00  0.00     0.184 HD
ENDROOT
BRANCH   1   3
HETATM    3  C7  UNL     1      26.018   2.762  50.763  1.00  0.00     0.051 A 
HETATM    4  C6  UNL     1      24.681   2.643  51.073  1.00  0.00     0.030 A 
HETATM    5  C5  UNL     1      24.242   2.326  52.343  1.00  0.00     0.004 A 
HETATM    6  C4  UNL     1      25.160   2.121  53.333  1.00  0.00     0.029 A 
HETATM    7  C3  UNL     1      26.497   2.246  52.997  1.00  0.00     0.036 A 
HETATM    8  C17 UNL     1      26.969   2.562  51.742  1.00  0.00     0.059 A 
BRANCH   7   9
HETATM    9  N1  UNL     1      27.448   2.024  54.060  1.00  0.00    -0.326 N 
HETATM   10  C1  UNL     1      27.864   0.671  53.926  1.00  0.00     0.235 C 
HETATM   11  O1  UNL     1      27.438  -0.104  53.033  1.00  0.00    -0.272 OA
HETATM   12  H3  UNL     1      27.935   2.465  54.870  1.00  0.00     0.169 HD
BRANCH  10  13
HETATM   13  C2  UNL     1      28.820  -0.156  54.709  1.00  0.00     0.217 C 
HETATM   14 CL1  UNL     1      30.068  -0.731  53.586  1.00  0.00    -0.121 Cl
ENDBRANCH  10  13
ENDBRANCH   7   9
ENDBRANCH   1   3
BRANCH   1  15
HETATM   15  C8  UNL     1      26.729   4.424  49.055  1.00  0.00     0.727 A 
HETATM   16  N3  UNL     1      25.814   5.435  49.003  1.00  0.00    -0.075 NA
HETATM   17  C9  UNL     1      26.218   6.675  48.606  1.00  0.00     0.139 A 
HETATM   18  C10 UNL     1      27.555   6.847  48.272  1.00  0.00     0.053 A 
HETATM   19  C11 UNL     1      28.483   5.839  48.320  1.00  0.00     0.089 A 
HETATM   20  N5  UNL     1      28.014   4.642  48.721  1.00  0.00    -0.062 NA
BRANCH  19  21
HETATM   21  C12 UNL     1      29.885   6.021  47.966  1.00  0.00     0.011 A 
HETATM   22  C13 UNL     1      30.739   4.992  47.631  1.00  0.00     0.017 A 
HETATM   23  C14 UNL     1      32.066   5.180  47.300  1.00  0.00     0.020 A 
HETATM   24  C15 UNL     1      32.505   6.481  47.322  1.00  0.00     0.116 A 
HETATM   25  N4  UNL     1      31.710   7.523  47.644  1.00  0.00    -0.272 NA
HETATM   26  C16 UNL     1      30.402   7.304  47.966  1.00  0.00     0.130 A 
ENDBRANCH  19  21
ENDBRANCH   1  15
TORSDOF 5
ENDMDL
MODEL 4
REMARK VINA RESULT:      -7.6      2.838      6.459
REMARK  5 active torsions:
REMARK  status: ('A' for Active; 'I' for Inactive)
REMARK    1  A    between atoms: C1_2  and  C2_3 
REMARK       I    between atoms: C1_2  and  N1_5 
REMARK    2  A    between atoms: N1_5  and  C3_6 
REMARK    3  A    between atoms: C7_10  and  N2_11 
REMARK    4  A    between atoms: N2_11  and  C8_12 
REMARK    5  A    between atoms: C11_16  and  C12_17 
ROOT
HETATM    1  N2  UNL     1      21.227   1.761  52.414  1.00  0.00    -0.188 N 
HETATM    2  H7  UNL     1      20.504   2.378  52.842  1.00  0.00     0.184 HD
ENDROOT
BRANCH   1   3
HETATM    3  C7  UNL     1      21.644   1.952  51.069  1.00  0.00     0.051 A 
HETATM    4  C6  UNL     1      21.359   1.019  50.096  1.00  0.00     0.030 A 
HETATM    5  C5  UNL     1      21.748   1.179  48.781  1.00  0.00     0.004 A 
HETATM    6  C4  UNL     1      22.441   2.300  48.424  1.00  0.00     0.029 A 
HETATM    7  C3  UNL     1      22.716   3.222  49.419  1.00  0.00     0.036 A 
HETATM    8  C17 UNL     1      22.344   3.094  50.739  1.00  0.00     0.059 A 
BRANCH   7   9
HETATM    9  N1  UNL     1      23.449   4.400  49.016  1.00  0.00    -0.326 N 
HETATM   10  C1  UNL     1      24.801   4.151  49.377  1.00  0.00     0.235 C 
HETATM   11  O1  UNL     1      25.192   3.092  49.930  1.00  0.00    -0.272 OA
HETATM   12  H3  UNL     1      23.368   5.340  48.574  1.00  0.00     0.169 HD
BRANCH  10  13
HETATM   13  C2  UNL     1      26.035   4.969  49.230  1.00  0.00     0.217 C 
HETATM   14 CL1  UNL     1      25.736   6.529  50.022  1.00  0.00    -0.121 Cl
ENDBRANCH  10  13
ENDBRANCH   7   9
ENDBRANCH   1   3
BRANCH   1  15
HETATM   15  C8  UNL     1      21.770   0.730  53.232  1.00  0.00     0.727 A 
HETATM   16  N3  UNL     1      21.036  -0.109  54.018  1.00  0.00    -0.075 NA
HETATM   17  C9  UNL     1      21.678  -1.054  54.761  1.00  0.00     0.139 A 
HETATM   18  C10 UNL     1      23.063  -1.115  54.678  1.00  0.00     0.053 A 
HETATM   19  C11 UNL     1      23.812  -0.277  53.892  1.00  0.00     0.089 A 
HETATM   20  N5  UNL     1      23.112   0.631  53.186  1.00  0.00    -0.062 NA
BRANCH  19  21
HETATM   21  C12 UNL     1      25.265  -0.341  53.810  1.00  0.00     0.011 A 
HETATM   22  C13 UNL     1      25.963  -0.647  52.660  1.00  0.00     0.017 A 
HETATM   23  C14 UNL     1      27.341  -0.706  52.599  1.00  0.00     0.020 A 
HETATM   24  C15 UNL     1      28.001  -0.438  53.773  1.00  0.00     0.116 A 
HETATM   25  N4  UNL     1      27.365  -0.135  54.925  1.00  0.00    -0.272 NA
HETATM   26  C16 UNL     1      26.001  -0.084  54.953  1.00  0.00     0.130 A 
ENDBRANCH  19  21
ENDBRANCH   1  15
TORSDOF 5
ENDMDL
MODEL 5
REMARK VINA RESULT:      -7.6      3.943      7.865
REMARK  5 active torsions:
REMARK  status: ('A' for Active; 'I' for Inactive)
REMARK    1  A    between atoms: C1_2  and  C2_3 
REMARK       I    between atoms: C1_2  and  N1_5 
REMARK    2  A    between atoms: N1_5  and  C3_6 
REMARK    3  A    between atoms: C7_10  and  N2_11 
REMARK    4  A    between atoms: N2_11  and  C8_12 
REMARK    5  A    between atoms: C11_16  and  C12_17 
ROOT
HETATM    1  N2  UNL     1      25.560   3.309  49.715  1.00  0.00    -0.188 N 
HETATM    2  H7  UNL     1      25.098   2.708  48.999  1.00  0.00     0.184 HD
ENDROOT
BRANCH   1   3
HETATM    3  C7  UNL     1      26.221   4.511  49.341  1.00  0.00     0.051 A 
HETATM    4  C6  UNL     1      27.478   4.485  48.779  1.00  0.00     0.030 A 
HETATM    5  C5  UNL     1      28.144   5.634  48.403  1.00  0.00     0.004 A 
HETATM    6  C4  UNL     1      27.540   6.845  48.591  1.00  0.00     0.029 A 
HETATM    7  C3  UNL     1      26.277   6.845  49.157  1.00  0.00     0.036 A 
HETATM    8  C17 UNL     1      25.585   5.718  49.544  1.00  0.00     0.059 A 
BRANCH   7   9
HETATM    9  N1  UNL     1      25.659   8.136  49.344  1.00  0.00    -0.326 N 
HETATM   10  C1  UNL     1      24.854   8.347  48.191  1.00  0.00     0.235 C 
HETATM   11  O1  UNL     1      24.758   7.522  47.248  1.00  0.00    -0.272 OA
HETATM   12  H3  UNL     1      25.579   8.955  49.985  1.00  0.00     0.169 HD
BRANCH  10  13
HETATM   13  C2  UNL     1      23.976   9.476  47.786  1.00  0.00     0.217 C 
HETATM   14 CL1  UNL     1      22.463   9.329  48.703  1.00  0.00    -0.121 Cl
ENDBRANCH  10  13
ENDBRANCH   7   9
ENDBRANCH   1   3
BRANCH   1  15
HETATM   15  C8  UNL     1      25.497   2.875  51.070  1.00  0.00     0.727 A 
HETATM   16  N3  UNL     1      24.574   3.296  51.980  1.00  0.00    -0.075 NA
HETATM   17  C9  UNL     1      24.625   2.807  53.252  1.00  0.00     0.139 A 
HETATM   18  C10 UNL     1      25.627   1.896  53.557  1.00  0.00     0.053 A 
HETATM   19  C11 UNL     1      26.561   1.465  52.651  1.00  0.00     0.089 A 
HETATM   20  N5  UNL     1      26.450   1.989  51.415  1.00  0.00    -0.062 NA
BRANCH  19  21
HETATM   21  C12 UNL     1      27.614   0.511  52.975  1.00  0.00     0.011 A 
HETATM   22  C13 UNL     1      28.895   0.866  53.339  1.00  0.00     0.017 A 
HETATM   23  C14 UNL     1      29.883  -0.050  53.640  1.00  0.00     0.020 A 
HETATM   24  C15 UNL     1      29.515  -1.370  53.557  1.00  0.00     0.116 A 
HETATM   25  N4  UNL     1      28.274  -1.770  53.204  1.00  0.00    -0.272 NA
HETATM   26  C16 UNL     1      27.320  -0.839  52.912  1.00  0.00     0.130 A 
ENDBRANCH  19  21
ENDBRANCH   1  15
TORSDOF 5
ENDMDL
MODEL 6
REMARK VINA RESULT:      -7.4      3.079      6.781
REMARK  5 active torsions:
REMARK  status: ('A' for Active; 'I' for Inactive)
REMARK    1  A    between atoms: C1_2  and  C2_3 
REMARK       I    between atoms: C1_2  and  N1_5 
REMARK    2  A    between atoms: N1_5  and  C3_6 
REMARK    3  A    between atoms: C7_10  and  N2_11 
REMARK    4  A    between atoms: N2_11  and  C8_12 
REMARK    5  A    between atoms: C11_16  and  C12_17 
ROOT
HETATM    1  N2  UNL     1      23.734   3.178  50.010  1.00  0.00    -0.188 N 
HETATM    2  H7  UNL     1      23.773   2.817  49.032  1.00  0.00     0.184 HD
ENDROOT
BRANCH   1   3
HETATM    3  C7  UNL     1      23.739   4.575  50.271  1.00  0.00     0.051 A 
HETATM    4  C6  UNL     1      22.564   5.268  50.456  1.00  0.00     0.030 A 
HETATM    5  C5  UNL     1      22.537   6.624  50.715  1.00  0.00     0.004 A 
HETATM    6  C4  UNL     1      23.716   7.310  50.790  1.00  0.00     0.029 A 
HETATM    7  C3  UNL     1      24.884   6.592  50.600  1.00  0.00     0.036 A 
HETATM    8  C17 UNL     1      24.946   5.240  50.341  1.00  0.00     0.059 A 
BRANCH   7   9
HETATM    9  N1  UNL     1      26.116   7.339  50.686  1.00  0.00    -0.326 N 
HETATM   10  C1  UNL     1      26.557   7.508  49.345  1.00  0.00     0.235 C 
HETATM   11  O1  UNL     1      25.936   7.064  48.346  1.00  0.00    -0.272 OA
HETATM   12  H3  UNL     1      26.792   7.790  51.340  1.00  0.00     0.169 HD
BRANCH  10  13
HETATM   13  C2  UNL     1      27.750   8.183  48.770  1.00  0.00     0.217 C 
HETATM   14 CL1  UNL     1      28.443   7.093  47.553  1.00  0.00    -0.121 Cl
ENDBRANCH  10  13
ENDBRANCH   7   9
ENDBRANCH   1   3
BRANCH   1  15
HETATM   15  C8  UNL     1      23.675   2.216  51.058  1.00  0.00     0.727 A 
HETATM   16  N3  UNL     1      22.541   1.575  51.462  1.00  0.00    -0.075 NA
HETATM   17  C9  UNL     1      22.616   0.677  52.485  1.00  0.00     0.139 A 
HETATM   18  C10 UNL     1      23.857   0.460  53.069  1.00  0.00     0.053 A 
HETATM   19  C11 UNL     1      25.003   1.099  52.672  1.00  0.00     0.089 A 
HETATM   20  N5  UNL     1      24.855   1.971  51.657  1.00  0.00    -0.062 NA
BRANCH  19  21
HETATM   21  C12 UNL     1      26.303   0.872  53.289  1.00  0.00     0.011 A 
HETATM   22  C13 UNL     1      27.468   1.493  52.891  1.00  0.00     0.017 A 
HETATM   23  C14 UNL     1      28.694   1.265  53.483  1.00  0.00     0.020 A 
HETATM   24  C15 UNL     1      28.695   0.363  54.519  1.00  0.00     0.116 A 
HETATM   25  N4  UNL     1      27.583  -0.272  54.946  1.00  0.00    -0.272 NA
HETATM   26  C16 UNL     1      26.386  -0.025  54.339  1.00  0.00     0.130 A 
ENDBRANCH  19  21
ENDBRANCH   1  15
TORSDOF 5
ENDMDL
MODEL 7
REMARK VINA RESULT:      -7.1      3.468      7.642
REMARK  5 active torsions:
REMARK  status: ('A' for Active; 'I' for Inactive)
REMARK    1  A    between atoms: C1_2  and  C2_3 
REMARK       I    between atoms: C1_2  and  N1_5 
REMARK    2  A    between atoms: N1_5  and  C3_6 
REMARK    3  A    between atoms: C7_10  and  N2_11 
REMARK    4  A    between atoms: N2_11  and  C8_12 
REMARK    5  A    between atoms: C11_16  and  C12_17 
ROOT
HETATM    1  N2  UNL     1      26.525   2.716  49.800  1.00  0.00    -0.188 N 
HETATM    2  H7  UNL     1      26.926   2.039  49.116  1.00  0.00     0.184 HD
ENDROOT
BRANCH   1   3
HETATM    3  C7  UNL     1      26.008   3.968  49.367  1.00  0.00     0.051 A 
HETATM    4  C6  UNL     1      24.650   4.183  49.276  1.00  0.00     0.030 A 
HETATM    5  C5  UNL     1      24.119   5.389  48.862  1.00  0.00     0.004 A 
HETATM    6  C4  UNL     1      24.964   6.409  48.529  1.00  0.00     0.029 A 
HETATM    7  C3  UNL     1      26.323   6.168  48.629  1.00  0.00     0.036 A 
HETATM    8  C17 UNL     1      26.887   4.979  49.037  1.00  0.00     0.059 A 
BRANCH   7   9
HETATM    9  N1  UNL     1      27.196   7.262  48.272  1.00  0.00    -0.326 N 
HETATM   10  C1  UNL     1      27.134   8.172  49.363  1.00  0.00     0.235 C 
HETATM   11  O1  UNL     1      26.436   7.982  50.391  1.00  0.00    -0.272 OA
HETATM   12  H3  UNL     1      27.837   7.632  47.539  1.00  0.00     0.169 HD
BRANCH  10  13
HETATM   13  C2  UNL     1      27.799   9.480  49.603  1.00  0.00     0.217 C 
HETATM   14 CL1  UNL     1      28.812   9.830  48.189  1.00  0.00    -0.121 Cl
ENDBRANCH  10  13
ENDBRANCH   7   9
ENDBRANCH   1   3
BRANCH   1  15
HETATM   15  C8  UNL     1      26.518   2.333  51.171  1.00  0.00     0.727 A 
HETATM   16  N3  UNL     1      27.562   2.506  52.032  1.00  0.00    -0.075 NA
HETATM   17  C9  UNL     1      27.433   2.089  53.323  1.00  0.00     0.139 A 
HETATM   18  C10 UNL     1      26.231   1.503  53.699  1.00  0.00     0.053 A 
HETATM   19  C11 UNL     1      25.175   1.323  52.842  1.00  0.00     0.089 A 
HETATM   20  N5  UNL     1      25.373   1.758  51.584  1.00  0.00    -0.062 NA
BRANCH  19  21
HETATM   21  C12 UNL     1      23.917   0.704  53.239  1.00  0.00     0.011 A 
HETATM   22  C13 UNL     1      22.674   1.237  52.970  1.00  0.00     0.017 A 
HETATM   23  C14 UNL     1      21.490   0.640  53.355  1.00  0.00     0.020 A 
HETATM   24  C15 UNL     1      21.616  -0.545  54.038  1.00  0.00     0.116 A 
HETATM   25  N4  UNL     1      22.809  -1.107  54.327  1.00  0.00    -0.272 NA
HETATM   26  C16 UNL     1      23.962  -0.492  53.933  1.00  0.00     0.130 A 
ENDBRANCH  19  21
ENDBRANCH   1  15
TORSDOF 5
ENDMDL
MODEL 8
REMARK VINA RESULT:      -7.0      4.074      8.142
REMARK  5 active torsions:
REMARK  status: ('A' for Active; 'I' for Inactive)
REMARK    1  A    between atoms: C1_2  and  C2_3 
REMARK       I    between atoms: C1_2  and  N1_5 
REMARK    2  A    between atoms: N1_5  and  C3_6 
REMARK    3  A    between atoms: C7_10  and  N2_11 
REMARK    4  A    between atoms: N2_11  and  C8_12 
REMARK    5  A    between atoms: C11_16  and  C12_17 
ROOT
HETATM    1  N2  UNL     1      27.095   4.486  48.824  1.00  0.00    -0.188 N 
HETATM    2  H7  UNL     1      27.702   3.987  48.138  1.00  0.00     0.184 HD
ENDROOT
BRANCH   1   3
HETATM    3  C7  UNL     1      27.046   5.906  48.855  1.00  0.00     0.051 A 
HETATM    4  C6  UNL     1      26.147   6.569  49.660  1.00  0.00     0.030 A 
HETATM    5  C5  UNL     1      26.077   7.947  49.714  1.00  0.00     0.004 A 
HETATM    6  C4  UNL     1      26.928   8.687  48.942  1.00  0.00     0.029 A 
HETATM    7  C3  UNL     1      27.823   7.998  48.142  1.00  0.00     0.036 A 
HETATM    8  C17 UNL     1      27.918   6.626  48.064  1.00  0.00     0.059 A 
BRANCH   7   9
HETATM    9  N1  UNL     1      28.713   8.801  47.337  1.00  0.00    -0.326 N 
HETATM   10  C1  UNL     1      29.848   9.052  48.156  1.00  0.00     0.235 C 
HETATM   11  O1  UNL     1      29.969   8.622  49.330  1.00  0.00    -0.272 OA
HETATM   12  H3  UNL     1      28.839   9.258  46.409  1.00  0.00     0.169 HD
BRANCH  10  13
HETATM   13  C2  UNL     1      31.102   9.813  47.909  1.00  0.00     0.217 C 
HETATM   14 CL1  UNL     1      30.816  10.870  46.512  1.00  0.00    -0.121 Cl
ENDBRANCH  10  13
ENDBRANCH   7   9
ENDBRANCH   1   3
BRANCH   1  15
HETATM   15  C8  UNL     1      26.328   3.687  49.718  1.00  0.00     0.727 A 
HETATM   16  N3  UNL     1      24.972   3.545  49.666  1.00  0.00    -0.075 NA
HETATM   17  C9  UNL     1      24.353   2.752  50.586  1.00  0.00     0.139 A 
HETATM   18  C10 UNL     1      25.144   2.124  51.539  1.00  0.00     0.053 A 
HETATM   19  C11 UNL     1      26.507   2.259  51.601  1.00  0.00     0.089 A 
HETATM   20  N5  UNL     1      27.050   3.056  50.662  1.00  0.00    -0.062 NA
BRANCH  19  21
HETATM   21  C12 UNL     1      27.334   1.601  52.605  1.00  0.00     0.011 A 
HETATM   22  C13 UNL     1      27.365   0.238  52.809  1.00  0.00     0.017 A 
HETATM   23  C14 UNL     1      28.152  -0.371  53.767  1.00  0.00     0.020 A 
HETATM   24  C15 UNL     1      28.924   0.474  54.526  1.00  0.00     0.116 A 
HETATM   25  N4  UNL     1      28.928   1.815  54.367  1.00  0.00    -0.272 NA
HETATM   26  C16 UNL     1      28.139   2.386  53.411  1.00  0.00     0.130 A 
ENDBRANCH  19  21
ENDBRANCH   1  15
TORSDOF 5
ENDMDL
MODEL 9
REMARK VINA RESULT:      -6.9      3.397      7.415
REMARK  5 active torsions:
REMARK  status: ('A' for Active; 'I' for Inactive)
REMARK    1  A    between atoms: C1_2  and  C2_3 
REMARK       I    between atoms: C1_2  and  N1_5 
REMARK    2  A    between atoms: N1_5  and  C3_6 
REMARK    3  A    between atoms: C7_10  and  N2_11 
REMARK    4  A    between atoms: N2_11  and  C8_12 
REMARK    5  A    between atoms: C11_16  and  C12_17 
ROOT
HETATM    1  N2  UNL     1      25.619  -0.089  52.806  1.00  0.00    -0.188 N 
HETATM    2  H7  UNL     1      26.461  -0.704  52.794  1.00  0.00     0.184 HD
ENDROOT
BRANCH   1   3
HETATM    3  C7  UNL     1      25.563   1.085  52.006  1.00  0.00     0.051 A 
HETATM    4  C6  UNL     1      26.711   1.760  51.653  1.00  0.00     0.030 A 
HETATM    5  C5  UNL     1      26.689   2.900  50.875  1.00  0.00     0.004 A 
HETATM    6  C4  UNL     1      25.489   3.384  50.437  1.00  0.00     0.029 A 
HETATM    7  C3  UNL     1      24.350   2.688  50.805  1.00  0.00     0.036 A 
HETATM    8  C17 UNL     1      24.336   1.549  51.579  1.00  0.00     0.059 A 
BRANCH   7   9
HETATM    9  N1  UNL     1      23.094   3.218  50.328  1.00  0.00    -0.326 N 
HETATM   10  C1  UNL     1      22.627   4.082  51.356  1.00  0.00     0.235 C 
HETATM   11  O1  UNL     1      23.248   4.287  52.430  1.00  0.00    -0.272 OA
HETATM   12  H3  UNL     1      22.414   3.208  49.538  1.00  0.00     0.169 HD
BRANCH  10  13
HETATM   13  C2  UNL     1      21.403   4.919  51.470  1.00  0.00     0.217 C 
HETATM   14 CL1  UNL     1      20.057   3.838  51.882  1.00  0.00    -0.121 Cl
ENDBRANCH  10  13
ENDBRANCH   7   9
ENDBRANCH   1   3
BRANCH   1  15
HETATM   15  C8  UNL     1      24.540  -0.478  53.649  1.00  0.00     0.727 A 
HETATM   16  N3  UNL     1      24.679  -0.962  54.917  1.00  0.00    -0.075 NA
HETATM   17  C9  UNL     1      23.564  -1.305  55.622  1.00  0.00     0.139 A 
HETATM   18  C10 UNL     1      22.331  -1.142  55.006  1.00  0.00     0.053 A 
HETATM   19  C11 UNL     1      22.178  -0.656  53.733  1.00  0.00     0.089 A 
HETATM   20  N5  UNL     1      23.321  -0.338  53.096  1.00  0.00    -0.062 NA
BRANCH  19  21
HETATM   21  C12 UNL     1      20.882  -0.489  53.087  1.00  0.00     0.011 A 
HETATM   22  C13 UNL     1      20.692   0.172  51.892  1.00  0.00     0.017 A 
HETATM   23  C14 UNL     1      19.457   0.325  51.294  1.00  0.00     0.020 A 
HETATM   24  C15 UNL     1      18.398  -0.230  51.969  1.00  0.00     0.116 A 
HETATM   25  N4  UNL     1      18.530  -0.885  53.142  1.00  0.00    -0.272 NA
HETATM   26  C16 UNL     1      19.765  -1.019  53.708  1.00  0.00     0.130 A 
ENDBRANCH  19  21
ENDBRANCH   1  15
TORSDOF 5
ENDMDL
