MODEL 1
REMARK VINA RESULT:      -8.1      0.000      0.000
REMARK  2 active torsions:
REMARK  status: ('A' for Active; 'I' for Inactive)
REMARK    1  A    between atoms: C10_14  and  O1_15 
REMARK    2  A    between atoms: C13_18  and  O2_19 
ROOT
HETATM    1  C1  UNL     1      28.524   5.869  48.204  1.00  0.00     0.038 C 
HETATM    2  C2  UNL     1      27.599   4.848  48.748  1.00  0.00    -0.002 C 
HETATM    3  C3  UNL     1      26.359   4.698  49.300  1.00  0.00     0.022 C 
HETATM    4  C4  UNL     1      25.627   6.001  49.438  1.00  0.00     0.035 C 
HETATM    5  C5  UNL     1      24.483   5.597  49.990  1.00  0.00     0.148 A 
HETATM    6 CL1  UNL     1      24.289   7.382  49.849  1.00  0.00    -0.132 Cl
HETATM    7  C6  UNL     1      23.237   5.982  50.624  1.00  0.00     0.289 A 
HETATM    8  F1  UNL     1      22.228   6.701  51.155  1.00  0.00    -0.197 F 
HETATM    9  N1  UNL     1      22.973   4.731  50.724  1.00  0.00    -0.224 NA
HETATM   10  C7  UNL     1      21.774   4.277  51.317  1.00  0.00     0.401 C 
HETATM   11  N2  UNL     1      20.869   3.633  51.935  1.00  0.00    -0.381 NA
HETATM   12  C8  UNL     1      21.073   2.384  52.574  1.00  0.00     0.081 C 
HETATM   13  C9  UNL     1      21.665   1.291  53.006  1.00  0.00     0.053 C 
HETATM   14  C10 UNL     1      23.028   0.891  52.819  1.00  0.00     0.072 C 
HETATM   15  C12 UNL     1      24.275   0.938  52.433  1.00  0.00     0.074 C 
HETATM   16  C13 UNL     1      25.664   0.850  52.073  1.00  0.00     0.085 C 
HETATM   17  C14 UNL     1      26.415   1.714  51.447  1.00  0.00     0.030 C 
HETATM   18  C15 UNL     1      26.183   3.043  50.905  1.00  0.00     0.150 C 
HETATM   19  N3  UNL     1      26.296   3.256  49.519  1.00  0.00    -0.387 N 
HETATM   20  H16 UNL     1      26.346   2.700  48.626  1.00  0.00     0.160 HD
ENDROOT
BRANCH  16  21
HETATM   21  O2  UNL     1      25.524  -0.355  52.680  1.00  0.00    -0.271 OA
HETATM   22 BR1  UNL     1      26.830  -1.692  52.671  1.00  0.00     0.105 Br
ENDBRANCH  16  21
BRANCH  14  23
HETATM   23  O1  UNL     1      23.478  -0.324  53.325  1.00  0.00    -0.356 OA
HETATM   24  C11 UNL     1      22.774  -1.066  54.285  1.00  0.00     0.210 C 
ENDBRANCH  14  23
TORSDOF 2
ENDMDL
MODEL 2
REMARK VINA RESULT:      -7.9      4.360      5.546
REMARK  2 active torsions:
REMARK  status: ('A' for Active; 'I' for Inactive)
REMARK    1  A    between atoms: C10_14  and  O1_15 
REMARK    2  A    between atoms: C13_18  and  O2_19 
ROOT
HETATM    1  C1  UNL     1      26.796   4.046  49.328  1.00  0.00     0.038 C 
HETATM    2  C2  UNL     1      25.552   3.579  49.980  1.00  0.00    -0.002 C 
HETATM    3  C3  UNL     1      25.082   2.676  50.891  1.00  0.00     0.022 C 
HETATM    4  C4  UNL     1      26.170   1.818  51.467  1.00  0.00     0.035 C 
HETATM    5  C5  UNL     1      25.475   1.041  52.297  1.00  0.00     0.148 A 
HETATM    6 CL1  UNL     1      27.170   0.462  52.481  1.00  0.00    -0.132 Cl
HETATM    7  C6  UNL     1      25.479  -0.120  53.166  1.00  0.00     0.289 A 
HETATM    8  F1  UNL     1      25.858  -1.217  53.850  1.00  0.00    -0.197 F 
HETATM    9  N1  UNL     1      24.242   0.129  53.402  1.00  0.00    -0.224 NA
HETATM   10  C7  UNL     1      23.480  -0.686  54.267  1.00  0.00     0.401 C 
HETATM   11  N2  UNL     1      22.566  -1.341  54.860  1.00  0.00    -0.381 NA
HETATM   12  C8  UNL     1      21.209  -1.369  54.449  1.00  0.00     0.081 C 
HETATM   13  C9  UNL     1      20.114  -1.123  53.764  1.00  0.00     0.053 C 
HETATM   14  C10 UNL     1      19.961  -0.291  52.607  1.00  0.00     0.072 C 
HETATM   15  C12 UNL     1      20.280   0.508  51.625  1.00  0.00     0.074 C 
HETATM   16  C13 UNL     1      20.481   1.388  50.505  1.00  0.00     0.085 C 
HETATM   17  C14 UNL     1      21.585   1.912  50.051  1.00  0.00     0.030 C 
HETATM   18  C15 UNL     1      22.982   1.819  50.446  1.00  0.00     0.150 C 
HETATM   19  N3  UNL     1      23.652   2.969  50.900  1.00  0.00    -0.387 N 
HETATM   20  H16 UNL     1      23.432   3.943  51.234  1.00  0.00     0.160 HD
ENDROOT
BRANCH  16  21
HETATM   21  O2  UNL     1      19.135   1.237  50.420  1.00  0.00    -0.271 OA
HETATM   22 BR1  UNL     1      18.021   2.325  49.386  1.00  0.00     0.105 Br
ENDBRANCH  16  21
BRANCH  14  23
HETATM   23  O1  UNL     1      18.709  -0.121  52.025  1.00  0.00    -0.356 OA
HETATM   24  C11 UNL     1      17.550  -0.758  52.493  1.00  0.00     0.210 C 
ENDBRANCH  14  23
TORSDOF 2
ENDMDL
MODEL 3
REMARK VINA RESULT:      -7.7      4.045      5.940
REMARK  2 active torsions:
REMARK  status: ('A' for Active; 'I' for Inactive)
REMARK    1  A    between atoms: C10_14  and  O1_15 
REMARK    2  A    between atoms: C13_18  and  O2_19 
ROOT
HETATM    1  C1  UNL     1      28.642  -0.528  53.592  1.00  0.00     0.038 C 
HETATM    2  C2  UNL     1      27.932   0.664  53.074  1.00  0.00    -0.002 C 
HETATM    3  C3  UNL     1      26.682   1.188  52.902  1.00  0.00     0.022 C 
HETATM    4  C4  UNL     1      25.600   0.270  53.388  1.00  0.00     0.035 C 
HETATM    5  C5  UNL     1      24.510   0.986  53.112  1.00  0.00     0.148 A 
HETATM    6 CL1  UNL     1      23.860  -0.531  53.832  1.00  0.00    -0.132 Cl
HETATM    7  C6  UNL     1      23.063   1.013  53.029  1.00  0.00     0.289 A 
HETATM    8  F1  UNL     1      21.762   0.664  53.067  1.00  0.00    -0.197 F 
HETATM    9  N1  UNL     1      23.170   2.233  52.644  1.00  0.00    -0.224 NA
HETATM   10  C7  UNL     1      22.032   3.009  52.332  1.00  0.00     0.401 C 
HETATM   11  N2  UNL     1      21.197   3.839  51.854  1.00  0.00    -0.381 NA
HETATM   12  C8  UNL     1      21.501   4.783  50.840  1.00  0.00     0.081 C 
HETATM   13  C9  UNL     1      22.177   5.469  49.944  1.00  0.00     0.053 C 
HETATM   14  C10 UNL     1      23.557   5.334  49.582  1.00  0.00     0.072 C 
HETATM   15  C12 UNL     1      24.779   4.872  49.570  1.00  0.00     0.074 C 
HETATM   16  C13 UNL     1      26.155   4.473  49.451  1.00  0.00     0.085 C 
HETATM   17  C14 UNL     1      26.792   3.505  50.050  1.00  0.00     0.030 C 
HETATM   18  C15 UNL     1      26.402   2.483  51.008  1.00  0.00     0.150 C 
HETATM   19  N3  UNL     1      26.976   2.482  52.292  1.00  0.00    -0.387 N 
HETATM   20  H16 UNL     1      27.534   3.117  52.919  1.00  0.00     0.160 HD
ENDROOT
BRANCH  16  21
HETATM   21  O2  UNL     1      26.159   5.516  48.583  1.00  0.00    -0.271 OA
HETATM   22 BR1  UNL     1      27.662   6.562  48.207  1.00  0.00     0.105 Br
ENDBRANCH  16  21
BRANCH  14  23
HETATM   23  O1  UNL     1      24.118   6.174  48.626  1.00  0.00    -0.356 OA
HETATM   24  C11 UNL     1      23.357   7.016  47.801  1.00  0.00     0.210 C 
ENDBRANCH  14  23
TORSDOF 2
ENDMDL
MODEL 4
REMARK VINA RESULT:      -7.7      4.254      6.566
REMARK  2 active torsions:
REMARK  status: ('A' for Active; 'I' for Inactive)
REMARK    1  A    between atoms: C10_14  and  O1_15 
REMARK    2  A    between atoms: C13_18  and  O2_19 
ROOT
HETATM    1  C1  UNL     1      18.500   1.481  49.508  1.00  0.00     0.038 C 
HETATM    2  C2  UNL     1      19.934   1.323  49.840  1.00  0.00    -0.002 C 
HETATM    3  C3  UNL     1      20.774   0.843  50.805  1.00  0.00     0.022 C 
HETATM    4  C4  UNL     1      20.036   0.264  51.976  1.00  0.00     0.035 C 
HETATM    5  C5  UNL     1      21.047  -0.117  52.757  1.00  0.00     0.148 A 
HETATM    6 CL1  UNL     1      19.580  -0.565  53.700  1.00  0.00    -0.132 Cl
HETATM    7  C6  UNL     1      21.461  -0.608  54.056  1.00  0.00     0.289 A 
HETATM    8  F1  UNL     1      21.458  -1.042  55.332  1.00  0.00    -0.197 F 
HETATM    9  N1  UNL     1      22.666  -0.578  53.615  1.00  0.00    -0.224 NA
HETATM   10  C7  UNL     1      23.756  -0.964  54.426  1.00  0.00     0.401 C 
HETATM   11  N2  UNL     1      24.886  -1.102  54.992  1.00  0.00    -0.381 NA
HETATM   12  C8  UNL     1      26.047  -0.365  54.646  1.00  0.00     0.081 C 
HETATM   13  C9  UNL     1      26.842   0.485  54.033  1.00  0.00     0.053 C 
HETATM   14  C10 UNL     1      26.526   1.371  52.952  1.00  0.00     0.072 C 
HETATM   15  C12 UNL     1      25.821   1.983  52.038  1.00  0.00     0.074 C 
HETATM   16  C13 UNL     1      25.176   2.730  50.993  1.00  0.00     0.085 C 
HETATM   17  C14 UNL     1      23.926   2.727  50.622  1.00  0.00     0.030 C 
HETATM   18  C15 UNL     1      22.739   2.028  51.087  1.00  0.00     0.150 C 
HETATM   19  N3  UNL     1      22.087   1.121  50.231  1.00  0.00    -0.387 N 
HETATM   20  H16 UNL     1      22.264   0.603  49.332  1.00  0.00     0.160 HD
ENDROOT
BRANCH  16  21
HETATM   21  O2  UNL     1      26.441   3.196  50.839  1.00  0.00    -0.271 OA
HETATM   22 BR1  UNL     1      27.040   4.126  49.333  1.00  0.00     0.105 Br
ENDBRANCH  16  21
BRANCH  14  23
HETATM   23  O1  UNL     1      27.510   2.186  52.401  1.00  0.00    -0.356 OA
HETATM   24  C11 UNL     1      28.716   2.483  53.053  1.00  0.00     0.210 C 
ENDBRANCH  14  23
TORSDOF 2
ENDMDL
MODEL 5
REMARK VINA RESULT:      -7.6      4.423      7.432
REMARK  2 active torsions:
REMARK  status: ('A' for Active; 'I' for Inactive)
REMARK    1  A    between atoms: C10_14  and  O1_15 
REMARK    2  A    between atoms: C13_18  and  O2_19 
ROOT
HETATM    1  C1  UNL     1      17.883  -0.575  52.585  1.00  0.00     0.038 C 
HETATM    2  C2  UNL     1      19.127  -0.063  51.967  1.00  0.00    -0.002 C 
HETATM    3  C3  UNL     1      20.480  -0.003  52.150  1.00  0.00     0.022 C 
HETATM    4  C4  UNL     1      20.922  -0.672  53.417  1.00  0.00     0.035 C 
HETATM    5  C5  UNL     1      22.239  -0.477  53.368  1.00  0.00     0.148 A 
HETATM    6 CL1  UNL     1      21.992  -1.370  54.913  1.00  0.00    -0.132 Cl
HETATM    7  C6  UNL     1      23.507  -0.561  54.066  1.00  0.00     0.289 A 
HETATM    8  F1  UNL     1      24.452  -0.774  55.003  1.00  0.00    -0.197 F 
HETATM    9  N1  UNL     1      24.051  -0.083  53.006  1.00  0.00    -0.224 NA
HETATM   10  C7  UNL     1      25.442   0.146  52.933  1.00  0.00     0.401 C 
HETATM   11  N2  UNL     1      26.611   0.580  52.684  1.00  0.00    -0.381 NA
HETATM   12  C8  UNL     1      26.889   1.685  51.839  1.00  0.00     0.081 C 
HETATM   13  C9  UNL     1      26.709   2.698  51.020  1.00  0.00     0.053 C 
HETATM   14  C10 UNL     1      25.474   3.207  50.500  1.00  0.00     0.072 C 
HETATM   15  C12 UNL     1      24.190   3.330  50.298  1.00  0.00     0.074 C 
HETATM   16  C13 UNL     1      22.810   3.580  49.980  1.00  0.00     0.085 C 
HETATM   17  C14 UNL     1      21.736   2.995  50.432  1.00  0.00     0.030 C 
HETATM   18  C15 UNL     1      21.497   1.930  51.392  1.00  0.00     0.150 C 
HETATM   19  N3  UNL     1      20.915   0.724  50.961  1.00  0.00    -0.387 N 
HETATM   20  H16 UNL     1      20.710   0.211  50.064  1.00  0.00     0.160 HD
ENDROOT
BRANCH  16  21
HETATM   21  O2  UNL     1      23.387   4.512  49.180  1.00  0.00    -0.271 OA
HETATM   22 BR1  UNL     1      22.588   5.215  47.644  1.00  0.00     0.105 Br
ENDBRANCH  16  21
BRANCH  14  23
HETATM   23  O1  UNL     1      25.475   4.278  49.612  1.00  0.00    -0.356 OA
HETATM   24  C11 UNL     1      26.644   4.802  49.040  1.00  0.00     0.210 C 
ENDBRANCH  14  23
TORSDOF 2
ENDMDL
MODEL 6
REMARK VINA RESULT:      -7.6      1.637      1.737
REMARK  2 active torsions:
REMARK  status: ('A' for Active; 'I' for Inactive)
REMARK    1  A    between atoms: C10_14  and  O1_15 
REMARK    2  A    between atoms: C13_18  and  O2_19 
ROOT
HETATM    1  C1  UNL     1      27.865   5.925  48.197  1.00  0.00     0.038 C 
HETATM    2  C2  UNL     1      27.343   4.736  48.908  1.00  0.00    -0.002 C 
HETATM    3  C3  UNL     1      26.183   4.158  49.340  1.00  0.00     0.022 C 
HETATM    4  C4  UNL     1      24.971   4.979  49.012  1.00  0.00     0.035 C 
HETATM    5  C5  UNL     1      24.000   4.226  49.528  1.00  0.00     0.148 A 
HETATM    6 CL1  UNL     1      23.130   5.651  48.853  1.00  0.00    -0.132 Cl
HETATM    7  C6  UNL     1      22.598   4.125  49.881  1.00  0.00     0.289 A 
HETATM    8  F1  UNL     1      21.291   4.400  50.065  1.00  0.00    -0.197 F 
HETATM    9  N1  UNL     1      22.854   2.944  50.310  1.00  0.00    -0.224 NA
HETATM   10  C7  UNL     1      21.847   2.131  50.873  1.00  0.00     0.401 C 
HETATM   11  N2  UNL     1      21.170   1.292  51.548  1.00  0.00    -0.381 NA
HETATM   12  C8  UNL     1      21.717   0.440  52.541  1.00  0.00     0.081 C 
HETATM   13  C9  UNL     1      22.589  -0.144  53.334  1.00  0.00     0.053 C 
HETATM   14  C10 UNL     1      24.000   0.091  53.423  1.00  0.00     0.072 C 
HETATM   15  C12 UNL     1      25.170   0.618  53.179  1.00  0.00     0.074 C 
HETATM   16  C13 UNL     1      26.515   1.099  53.016  1.00  0.00     0.085 C 
HETATM   17  C14 UNL     1      26.966   2.056  52.253  1.00  0.00     0.030 C 
HETATM   18  C15 UNL     1      26.340   2.985  51.326  1.00  0.00     0.150 C 
HETATM   19  N3  UNL     1      26.669   2.928  49.959  1.00  0.00    -0.387 N 
HETATM   20  H16 UNL     1      27.144   2.281  49.278  1.00  0.00     0.160 HD
ENDROOT
BRANCH  16  21
HETATM   21  O2  UNL     1      26.747   0.122  53.928  1.00  0.00    -0.271 OA
HETATM   22 BR1  UNL     1      28.327  -0.040  54.913  1.00  0.00     0.105 Br
ENDBRANCH  16  21
BRANCH  14  23
HETATM   23  O1  UNL     1      24.780  -0.648  54.306  1.00  0.00    -0.356 OA
HETATM   24  C11 UNL     1      24.248  -1.366  55.387  1.00  0.00     0.210 C 
ENDBRANCH  14  23
TORSDOF 2
ENDMDL
MODEL 7
REMARK VINA RESULT:      -7.5      2.552      4.511
REMARK  2 active torsions:
REMARK  status: ('A' for Active; 'I' for Inactive)
REMARK    1  A    between atoms: C10_14  and  O1_15 
REMARK    2  A    between atoms: C13_18  and  O2_19 
ROOT
HETATM    1  C1  UNL     1      21.592   7.745  49.917  1.00  0.00     0.038 C 
HETATM    2  C2  UNL     1      21.923   6.561  50.742  1.00  0.00    -0.002 C 
HETATM    3  C3  UNL     1      22.875   5.596  50.916  1.00  0.00     0.022 C 
HETATM    4  C4  UNL     1      24.014   5.728  49.950  1.00  0.00     0.035 C 
HETATM    5  C5  UNL     1      24.780   4.699  50.310  1.00  0.00     0.148 A 
HETATM    6 CL1  UNL     1      25.677   5.445  48.938  1.00  0.00    -0.132 Cl
HETATM    7  C6  UNL     1      25.929   3.872  50.000  1.00  0.00     0.289 A 
HETATM    8  F1  UNL     1      27.015   3.345  49.400  1.00  0.00    -0.197 F 
HETATM    9  N1  UNL     1      25.661   3.207  51.064  1.00  0.00    -0.224 NA
HETATM   10  C7  UNL     1      26.448   2.105  51.461  1.00  0.00     0.401 C 
HETATM   11  N2  UNL     1      26.894   1.010  51.930  1.00  0.00    -0.381 NA
HETATM   12  C8  UNL     1      26.100   0.051  52.610  1.00  0.00     0.081 C 
HETATM   13  C9  UNL     1      25.058  -0.533  53.161  1.00  0.00     0.053 C 
HETATM   14  C10 UNL     1      23.710  -0.051  53.237  1.00  0.00     0.072 C 
HETATM   15  C12 UNL     1      22.681   0.734  53.066  1.00  0.00     0.074 C 
HETATM   16  C13 UNL     1      21.465   1.495  52.958  1.00  0.00     0.085 C 
HETATM   17  C14 UNL     1      21.247   2.627  52.349  1.00  0.00     0.030 C 
HETATM   18  C15 UNL     1      22.078   3.525  51.563  1.00  0.00     0.150 C 
HETATM   19  N3  UNL     1      22.327   4.828  52.030  1.00  0.00    -0.387 N 
HETATM   20  H16 UNL     1      22.239   5.389  52.916  1.00  0.00     0.160 HD
ENDROOT
BRANCH  16  21
HETATM   21  O2  UNL     1      21.004   0.460  53.705  1.00  0.00    -0.271 OA
HETATM   22 BR1  UNL     1      19.450  -0.503  53.318  1.00  0.00     0.105 Br
ENDBRANCH  16  21
BRANCH  14  23
HETATM   23  O1  UNL     1      22.734  -0.796  53.890  1.00  0.00    -0.356 OA
HETATM   24  C11 UNL     1      22.938  -1.405  55.137  1.00  0.00     0.210 C 
ENDBRANCH  14  23
TORSDOF 2
ENDMDL
MODEL 8
REMARK VINA RESULT:      -7.1      3.797      6.393
REMARK  2 active torsions:
REMARK  status: ('A' for Active; 'I' for Inactive)
REMARK    1  A    between atoms: C10_14  and  O1_15 
REMARK    2  A    between atoms: C13_18  and  O2_19 
ROOT
HETATM    1  C1  UNL     1      24.468  -0.032  52.986  1.00  0.00     0.038 C 
HETATM    2  C2  UNL     1      24.863   1.289  52.445  1.00  0.00    -0.002 C 
HETATM    3  C3  UNL     1      24.353   2.497  52.064  1.00  0.00     0.022 C 
HETATM    4  C4  UNL     1      22.863   2.571  52.221  1.00  0.00     0.035 C 
HETATM    5  C5  UNL     1      22.618   3.808  51.791  1.00  0.00     0.148 A 
HETATM    6 CL1  UNL     1      20.988   3.165  52.210  1.00  0.00    -0.132 Cl
HETATM    7  C6  UNL     1      21.618   4.785  51.407  1.00  0.00     0.289 A 
HETATM    8  F1  UNL     1      20.447   5.395  51.137  1.00  0.00    -0.197 F 
HETATM    9  N1  UNL     1      22.587   5.592  51.171  1.00  0.00    -0.224 NA
HETATM   10  C7  UNL     1      22.356   6.904  50.702  1.00  0.00     0.401 C 
HETATM   11  N2  UNL     1      22.413   8.042  50.139  1.00  0.00    -0.381 NA
HETATM   12  C8  UNL     1      23.479   8.468  49.306  1.00  0.00     0.081 C 
HETATM   13  C9  UNL     1      24.615   8.463  48.643  1.00  0.00     0.053 C 
HETATM   14  C10 UNL     1      25.593   7.419  48.569  1.00  0.00     0.072 C 
HETATM   15  C12 UNL     1      26.164   6.262  48.771  1.00  0.00     0.074 C 
HETATM   16  C13 UNL     1      26.911   5.041  48.908  1.00  0.00     0.085 C 
HETATM   17  C14 UNL     1      26.594   3.941  49.532  1.00  0.00     0.030 C 
HETATM   18  C15 UNL     1      25.427   3.510  50.286  1.00  0.00     0.150 C 
HETATM   19  N3  UNL     1      25.555   3.219  51.656  1.00  0.00    -0.387 N 
HETATM   20  H16 UNL     1      26.237   3.365  52.444  1.00  0.00     0.160 HD
ENDROOT
BRANCH  16  21
HETATM   21  O2  UNL     1      27.796   5.751  48.163  1.00  0.00    -0.271 OA
HETATM   22 BR1  UNL     1      29.641   5.451  48.158  1.00  0.00     0.105 Br
ENDBRANCH  16  21
BRANCH  14  23
HETATM   23  O1  UNL     1      26.761   7.601  47.837  1.00  0.00    -0.356 OA
HETATM   24  C11 UNL     1      26.925   8.627  46.893  1.00  0.00     0.210 C 
ENDBRANCH  14  23
TORSDOF 2
ENDMDL
MODEL 9
REMARK VINA RESULT:      -7.1      1.138      1.296
REMARK  2 active torsions:
REMARK  status: ('A' for Active; 'I' for Inactive)
REMARK    1  A    between atoms: C10_14  and  O1_15 
REMARK    2  A    between atoms: C13_18  and  O2_19 
ROOT
HETATM    1  C1  UNL     1      28.572   5.430  48.248  1.00  0.00     0.038 C 
HETATM    2  C2  UNL     1      27.460   4.618  48.793  1.00  0.00    -0.002 C 
HETATM    3  C3  UNL     1      26.141   4.687  49.139  1.00  0.00     0.022 C 
HETATM    4  C4  UNL     1      25.555   6.051  48.917  1.00  0.00     0.035 C 
HETATM    5  C5  UNL     1      24.301   5.863  49.325  1.00  0.00     0.148 A 
HETATM    6 CL1  UNL     1      24.344   7.598  48.841  1.00  0.00    -0.132 Cl
HETATM    7  C6  UNL     1      23.027   6.471  49.655  1.00  0.00     0.289 A 
HETATM    8  F1  UNL     1      22.041   7.364  49.869  1.00  0.00    -0.197 F 
HETATM    9  N1  UNL     1      22.604   5.290  49.926  1.00  0.00    -0.224 NA
HETATM   10  C7  UNL     1      21.283   5.066  50.372  1.00  0.00     0.401 C 
HETATM   11  N2  UNL     1      20.223   4.635  50.927  1.00  0.00    -0.381 NA
HETATM   12  C8  UNL     1      20.177   3.519  51.801  1.00  0.00     0.081 C 
HETATM   13  C9  UNL     1      20.561   2.483  52.513  1.00  0.00     0.053 C 
HETATM   14  C10 UNL     1      21.880   1.935  52.639  1.00  0.00     0.072 C 
HETATM   15  C12 UNL     1      23.168   1.798  52.472  1.00  0.00     0.074 C 
HETATM   16  C13 UNL     1      24.576   1.521  52.380  1.00  0.00     0.085 C 
HETATM   17  C14 UNL     1      25.511   2.179  51.753  1.00  0.00     0.030 C 
HETATM   18  C15 UNL     1      25.525   3.394  50.953  1.00  0.00     0.150 C 
HETATM   19  N3  UNL     1      25.875   3.325  49.593  1.00  0.00    -0.387 N 
HETATM   20  H16 UNL     1      25.995   2.606  48.834  1.00  0.00     0.160 HD
ENDROOT
BRANCH  16  21
HETATM   21  O2  UNL     1      24.202   0.472  53.156  1.00  0.00    -0.271 OA
HETATM   22 BR1  UNL     1      25.400  -0.695  53.990  1.00  0.00     0.105 Br
ENDBRANCH  16  21
BRANCH  14  23
HETATM   23  O1  UNL     1      22.099   0.805  53.419  1.00  0.00    -0.356 OA
HETATM   24  C11 UNL     1      21.299  -0.345  53.350  1.00  0.00     0.210 C 
ENDBRANCH  14  23
TORSDOF 2
ENDMDL
