MODEL 1
REMARK VINA RESULT:      -6.8      0.000      0.000
REMARK  7 active torsions:
REMARK  status: ('A' for Active; 'I' for Inactive)
REMARK    1  A    between atoms: C2_2  and  C3_3 
REMARK    2  A    between atoms: C4_5  and  C5_6 
REMARK    3  A    between atoms: C6_7  and  N1_8 
REMARK    4  A    between atoms: N1_8  and  C7_9 
REMARK    5  A    between atoms: C11_15  and  O1_16 
REMARK    6  A    between atoms: C14_19  and  O2_20 
REMARK    7  A    between atoms: O2_20  and  C15_21 
ROOT
HETATM    1  C7  UNL     1      23.864   1.051  52.351  1.00  0.00     0.150 C 
HETATM    2  N2  UNL     1      23.516   0.483  53.413  1.00  0.00    -0.225 NA
HETATM    3  C8  UNL     1      22.331  -0.116  53.819  1.00  0.00     0.235 C 
HETATM    4  N3  UNL     1      21.333  -0.161  52.955  1.00  0.00    -0.242 NA
HETATM    5  C9  UNL     1      21.579   0.395  51.644  1.00  0.00     0.085 A 
HETATM    6  C10 UNL     1      21.107   0.209  50.423  1.00  0.00     0.067 A 
HETATM    7  C11 UNL     1      21.840   1.137  49.564  1.00  0.00     0.070 A 
HETATM    8  C13 UNL     1      22.727   1.858  50.270  1.00  0.00     0.062 A 
HETATM    9  C14 UNL     1      22.607   1.431  51.669  1.00  0.00     0.186 A 
ENDROOT
BRANCH   1  10
HETATM   10  N1  UNL     1      24.986   1.677  51.751  1.00  0.00    -0.351 N 
HETATM   11  H9  UNL     1      24.937   2.514  51.166  1.00  0.00     0.166 HD
BRANCH  10  12
HETATM   12  C6  UNL     1      26.159   0.926  52.102  1.00  0.00     0.089 C 
HETATM   13  C5  UNL     1      26.328  -0.344  52.427  1.00  0.00     0.018 C 
BRANCH  13  14
HETATM   14  C4  UNL     1      27.615  -0.888  52.746  1.00  0.00     0.021 C 
HETATM   15  C3  UNL     1      28.457  -0.523  53.689  1.00  0.00     0.011 C 
HETATM   16 CL1  UNL     1      29.981  -1.421  53.810  1.00  0.00    -0.089 Cl
BRANCH  15  17
HETATM   17  C2  UNL     1      28.622   0.449  54.785  1.00  0.00     0.047 C 
HETATM   18  C1  UNL     1      29.187   1.750  54.226  1.00  0.00     0.011 C 
ENDBRANCH  15  17
ENDBRANCH  13  14
ENDBRANCH  10  12
ENDBRANCH   1  10
BRANCH   9  19
HETATM   19  O2  UNL     1      22.059   2.583  52.326  1.00  0.00    -0.357 OA
BRANCH  19  20
HETATM   20  C15 UNL     1      22.165   3.752  51.662  1.00  0.00     0.116 C 
HETATM   21  C16 UNL     1      23.037   4.772  52.404  1.00  0.00     0.039 C 
HETATM   22  C17 UNL     1      20.757   4.383  51.692  1.00  0.00     0.039 C 
ENDBRANCH  19  20
ENDBRANCH   9  19
BRANCH   7  23
HETATM   23  O1  UNL     1      21.613   1.226  48.185  1.00  0.00    -0.356 OA
HETATM   24  C12 UNL     1      22.362   2.201  47.479  1.00  0.00     0.210 C 
ENDBRANCH   7  23
TORSDOF 7
ENDMDL
MODEL 2
REMARK VINA RESULT:      -6.6      1.634      2.972
REMARK  7 active torsions:
REMARK  status: ('A' for Active; 'I' for Inactive)
REMARK    1  A    between atoms: C2_2  and  C3_3 
REMARK    2  A    between atoms: C4_5  and  C5_6 
REMARK    3  A    between atoms: C6_7  and  N1_8 
REMARK    4  A    between atoms: N1_8  and  C7_9 
REMARK    5  A    between atoms: C11_15  and  O1_16 
REMARK    6  A    between atoms: C14_19  and  O2_20 
REMARK    7  A    between atoms: O2_20  and  C15_21 
ROOT
HETATM    1  C7  UNL     1      23.750   1.161  53.004  1.00  0.00     0.150 C 
HETATM    2  N2  UNL     1      24.346   2.263  52.999  1.00  0.00    -0.225 NA
HETATM    3  C8  UNL     1      23.940   3.555  52.689  1.00  0.00     0.235 C 
HETATM    4  N3  UNL     1      22.677   3.743  52.353  1.00  0.00    -0.242 NA
HETATM    5  C9  UNL     1      21.818   2.580  52.368  1.00  0.00     0.085 A 
HETATM    6  C10 UNL     1      20.526   2.349  52.529  1.00  0.00     0.067 A 
HETATM    7  C11 UNL     1      20.363   0.900  52.427  1.00  0.00     0.070 A 
HETATM    8  C13 UNL     1      21.540   0.291  52.207  1.00  0.00     0.062 A 
HETATM    9  C14 UNL     1      22.560   1.344  52.143  1.00  0.00     0.186 A 
ENDROOT
BRANCH   1  10
HETATM   10  N1  UNL     1      23.966  -0.209  53.301  1.00  0.00    -0.351 N 
HETATM   11  H9  UNL     1      23.221  -0.896  53.433  1.00  0.00     0.166 HD
BRANCH  10  12
HETATM   12  C6  UNL     1      25.382  -0.430  53.392  1.00  0.00     0.089 C 
HETATM   13  C5  UNL     1      26.264  -0.865  52.510  1.00  0.00     0.018 C 
BRANCH  13  14
HETATM   14  C4  UNL     1      27.655  -1.010  52.825  1.00  0.00     0.021 C 
HETATM   15  C3  UNL     1      28.429  -0.219  53.537  1.00  0.00     0.011 C 
HETATM   16 CL1  UNL     1      30.124  -0.703  53.734  1.00  0.00    -0.089 Cl
BRANCH  15  17
HETATM   17  C2  UNL     1      28.410   1.039  54.304  1.00  0.00     0.047 C 
HETATM   18  C1  UNL     1      28.249   2.213  53.344  1.00  0.00     0.011 C 
ENDBRANCH  15  17
ENDBRANCH  13  14
ENDBRANCH  10  12
ENDBRANCH   1  10
BRANCH   9  19
HETATM   19  O2  UNL     1      22.979   1.322  50.771  1.00  0.00    -0.357 OA
BRANCH  19  20
HETATM   20  C15 UNL     1      22.193   1.985  49.899  1.00  0.00     0.116 C 
HETATM   21  C16 UNL     1      21.516   1.050  48.890  1.00  0.00     0.039 C 
HETATM   22  C17 UNL     1      23.147   2.832  49.030  1.00  0.00     0.039 C 
ENDBRANCH  19  20
ENDBRANCH   9  19
BRANCH   7  23
HETATM   23  O1  UNL     1      19.117   0.272  52.551  1.00  0.00    -0.356 OA
HETATM   24  C12 UNL     1      18.451  -0.062  51.345  1.00  0.00     0.210 C 
ENDBRANCH   7  23
TORSDOF 7
ENDMDL
MODEL 3
REMARK VINA RESULT:      -6.5      3.080      5.008
REMARK  7 active torsions:
REMARK  status: ('A' for Active; 'I' for Inactive)
REMARK    1  A    between atoms: C2_2  and  C3_3 
REMARK    2  A    between atoms: C4_5  and  C5_6 
REMARK    3  A    between atoms: C6_7  and  N1_8 
REMARK    4  A    between atoms: N1_8  and  C7_9 
REMARK    5  A    between atoms: C11_15  and  O1_16 
REMARK    6  A    between atoms: C14_19  and  O2_20 
REMARK    7  A    between atoms: O2_20  and  C15_21 
ROOT
HETATM    1  C7  UNL     1      25.868   3.878  50.610  1.00  0.00     0.150 C 
HETATM    2  N2  UNL     1      26.886   3.714  49.897  1.00  0.00    -0.225 NA
HETATM    3  C8  UNL     1      27.449   4.461  48.870  1.00  0.00     0.235 C 
HETATM    4  N3  UNL     1      26.869   5.601  48.544  1.00  0.00    -0.242 NA
HETATM    5  C9  UNL     1      25.707   5.986  49.312  1.00  0.00     0.085 A 
HETATM    6  C10 UNL     1      25.108   7.119  49.636  1.00  0.00     0.067 A 
HETATM    7  C11 UNL     1      23.961   6.744  50.463  1.00  0.00     0.070 A 
HETATM    8  C13 UNL     1      23.887   5.412  50.618  1.00  0.00     0.062 A 
HETATM    9  C14 UNL     1      25.010   4.832  49.872  1.00  0.00     0.186 A 
ENDROOT
BRANCH   1  10
HETATM   10  N1  UNL     1      25.165   3.275  51.684  1.00  0.00    -0.351 N 
HETATM   11  H9  UNL     1      24.488   3.761  52.276  1.00  0.00     0.166 HD
BRANCH  10  12
HETATM   12  C6  UNL     1      25.584   1.905  51.781  1.00  0.00     0.089 C 
HETATM   13  C5  UNL     1      25.483   1.019  52.756  1.00  0.00     0.018 C 
BRANCH  13  14
HETATM   14  C4  UNL     1      25.982  -0.319  52.631  1.00  0.00     0.021 C 
HETATM   15  C3  UNL     1      27.190  -0.778  52.885  1.00  0.00     0.011 C 
HETATM   16 CL1  UNL     1      27.473  -2.508  52.620  1.00  0.00    -0.089 Cl
BRANCH  15  17
HETATM   17  C2  UNL     1      28.520  -0.349  53.351  1.00  0.00     0.047 C 
HETATM   18  C1  UNL     1      28.432   0.068  54.816  1.00  0.00     0.011 C 
ENDBRANCH  15  17
ENDBRANCH  13  14
ENDBRANCH  10  12
ENDBRANCH   1  10
BRANCH   9  19
HETATM   19  O2  UNL     1      24.371   4.134  48.794  1.00  0.00    -0.357 OA
BRANCH  19  20
HETATM   20  C15 UNL     1      23.054   3.890  48.942  1.00  0.00     0.116 C 
HETATM   21  C16 UNL     1      22.738   2.391  49.019  1.00  0.00     0.039 C 
HETATM   22  C17 UNL     1      22.390   4.337  47.621  1.00  0.00     0.039 C 
ENDBRANCH  19  20
ENDBRANCH   9  19
BRANCH   7  23
HETATM   23  O1  UNL     1      23.081   7.690  51.002  1.00  0.00    -0.356 OA
HETATM   24  C12 UNL     1      21.706   7.523  50.698  1.00  0.00     0.210 C 
ENDBRANCH   7  23
TORSDOF 7
ENDMDL
MODEL 4
REMARK VINA RESULT:      -6.5      2.480      3.413
REMARK  7 active torsions:
REMARK  status: ('A' for Active; 'I' for Inactive)
REMARK    1  A    between atoms: C2_2  and  C3_3 
REMARK    2  A    between atoms: C4_5  and  C5_6 
REMARK    3  A    between atoms: C6_7  and  N1_8 
REMARK    4  A    between atoms: N1_8  and  C7_9 
REMARK    5  A    between atoms: C11_15  and  O1_16 
REMARK    6  A    between atoms: C14_19  and  O2_20 
REMARK    7  A    between atoms: O2_20  and  C15_21 
ROOT
HETATM    1  C7  UNL     1      23.022   2.785  51.458  1.00  0.00     0.150 C 
HETATM    2  N2  UNL     1      22.657   3.573  52.362  1.00  0.00    -0.225 NA
HETATM    3  C8  UNL     1      22.077   4.834  52.336  1.00  0.00     0.235 C 
HETATM    4  N3  UNL     1      21.795   5.362  51.160  1.00  0.00    -0.242 NA
HETATM    5  C9  UNL     1      22.092   4.558  49.996  1.00  0.00     0.085 A 
HETATM    6  C10 UNL     1      21.634   4.463  48.759  1.00  0.00     0.067 A 
HETATM    7  C11 UNL     1      22.417   3.403  48.123  1.00  0.00     0.070 A 
HETATM    8  C13 UNL     1      23.321   2.888  48.973  1.00  0.00     0.062 A 
HETATM    9  C14 UNL     1      23.176   3.613  50.241  1.00  0.00     0.186 A 
ENDROOT
BRANCH   1  10
HETATM   10  N1  UNL     1      23.586   1.495  51.280  1.00  0.00    -0.351 N 
HETATM   11  H9  UNL     1      23.249   0.805  50.605  1.00  0.00     0.166 HD
BRANCH  10  12
HETATM   12  C6  UNL     1      24.673   1.349  52.207  1.00  0.00     0.089 C 
HETATM   13  C5  UNL     1      24.895   0.477  53.174  1.00  0.00     0.018 C 
BRANCH  13  14
HETATM   14  C4  UNL     1      26.072   0.522  53.992  1.00  0.00     0.021 C 
HETATM   15  C3  UNL     1      27.202  -0.138  53.853  1.00  0.00     0.011 C 
HETATM   16 CL1  UNL     1      28.470   0.158  55.056  1.00  0.00    -0.089 Cl
BRANCH  15  17
HETATM   17  C2  UNL     1      27.868  -1.128  52.987  1.00  0.00     0.047 C 
HETATM   18  C1  UNL     1      29.320  -1.287  53.427  1.00  0.00     0.011 C 
ENDBRANCH  15  17
ENDBRANCH  13  14
ENDBRANCH  10  12
ENDBRANCH   1  10
BRANCH   9  19
HETATM   19  O2  UNL     1      24.398   4.356  50.344  1.00  0.00    -0.357 OA
BRANCH  19  20
HETATM   20  C15 UNL     1      25.323   4.112  49.394  1.00  0.00     0.116 C 
HETATM   21  C16 UNL     1      26.605   3.495  49.967  1.00  0.00     0.039 C 
HETATM   22  C17 UNL     1      25.780   5.496  48.884  1.00  0.00     0.039 C 
ENDBRANCH  19  20
ENDBRANCH   9  19
BRANCH   7  23
HETATM   23  O1  UNL     1      22.212   3.011  46.795  1.00  0.00    -0.356 OA
HETATM   24  C12 UNL     1      21.838   4.029  45.882  1.00  0.00     0.210 C 
ENDBRANCH   7  23
TORSDOF 7
ENDMDL
MODEL 5
REMARK VINA RESULT:      -6.3      3.835      6.097
REMARK  7 active torsions:
REMARK  status: ('A' for Active; 'I' for Inactive)
REMARK    1  A    between atoms: C2_2  and  C3_3 
REMARK    2  A    between atoms: C4_5  and  C5_6 
REMARK    3  A    between atoms: C6_7  and  N1_8 
REMARK    4  A    between atoms: N1_8  and  C7_9 
REMARK    5  A    between atoms: C11_15  and  O1_16 
REMARK    6  A    between atoms: C14_19  and  O2_20 
REMARK    7  A    between atoms: O2_20  and  C15_21 
ROOT
HETATM    1  C7  UNL     1      22.790   3.600  50.370  1.00  0.00     0.150 C 
HETATM    2  N2  UNL     1      22.069   4.483  50.891  1.00  0.00    -0.225 NA
HETATM    3  C8  UNL     1      22.340   5.751  51.388  1.00  0.00     0.235 C 
HETATM    4  N3  UNL     1      23.580   6.198  51.301  1.00  0.00    -0.242 NA
HETATM    5  C9  UNL     1      24.543   5.330  50.663  1.00  0.00     0.085 A 
HETATM    6  C10 UNL     1      25.679   5.484  50.003  1.00  0.00     0.067 A 
HETATM    7  C11 UNL     1      26.113   4.138  49.632  1.00  0.00     0.070 A 
HETATM    8  C13 UNL     1      25.246   3.209  50.069  1.00  0.00     0.062 A 
HETATM    9  C14 UNL     1      24.176   3.922  50.777  1.00  0.00     0.186 A 
ENDROOT
BRANCH   1  10
HETATM   10  N1  UNL     1      22.708   2.306  49.796  1.00  0.00    -0.351 N 
HETATM   11  H9  UNL     1      23.332   1.957  49.065  1.00  0.00     0.166 HD
BRANCH  10  12
HETATM   12  C6  UNL     1      21.610   1.612  50.409  1.00  0.00     0.089 C 
HETATM   13  C5  UNL     1      21.543   0.459  51.050  1.00  0.00     0.018 C 
BRANCH  13  14
HETATM   14  C4  UNL     1      20.315  -0.048  51.589  1.00  0.00     0.021 C 
HETATM   15  C3  UNL     1      19.975  -0.224  52.849  1.00  0.00     0.011 C 
HETATM   16 CL1  UNL     1      18.358  -0.878  53.169  1.00  0.00    -0.089 Cl
BRANCH  15  17
HETATM   17  C2  UNL     1      20.486  -0.065  54.221  1.00  0.00     0.047 C 
HETATM   18  C1  UNL     1      21.505  -1.162  54.510  1.00  0.00     0.011 C 
ENDBRANCH  15  17
ENDBRANCH  13  14
ENDBRANCH  10  12
ENDBRANCH   1  10
BRANCH   9  19
HETATM   19  O2  UNL     1      24.357   3.526  52.144  1.00  0.00    -0.357 OA
BRANCH  19  20
HETATM   20  C15 UNL     1      24.955   2.335  52.344  1.00  0.00     0.116 C 
HETATM   21  C16 UNL     1      24.055   1.343  53.091  1.00  0.00     0.039 C 
HETATM   22  C17 UNL     1      26.108   2.602  53.335  1.00  0.00     0.039 C 
ENDBRANCH  19  20
ENDBRANCH   9  19
BRANCH   7  23
HETATM   23  O1  UNL     1      27.289   3.898  48.911  1.00  0.00    -0.356 OA
HETATM   24  C12 UNL     1      28.034   5.038  48.514  1.00  0.00     0.210 C 
ENDBRANCH   7  23
TORSDOF 7
ENDMDL
MODEL 6
REMARK VINA RESULT:      -6.3      2.449      3.990
REMARK  7 active torsions:
REMARK  status: ('A' for Active; 'I' for Inactive)
REMARK    1  A    between atoms: C2_2  and  C3_3 
REMARK    2  A    between atoms: C4_5  and  C5_6 
REMARK    3  A    between atoms: C6_7  and  N1_8 
REMARK    4  A    between atoms: N1_8  and  C7_9 
REMARK    5  A    between atoms: C11_15  and  O1_16 
REMARK    6  A    between atoms: C14_19  and  O2_20 
REMARK    7  A    between atoms: O2_20  and  C15_21 
ROOT
HETATM    1  C7  UNL     1      22.265   2.610  51.067  1.00  0.00     0.150 C 
HETATM    2  N2  UNL     1      22.701   2.050  50.034  1.00  0.00    -0.225 NA
HETATM    3  C8  UNL     1      22.074   1.453  48.948  1.00  0.00     0.235 C 
HETATM    4  N3  UNL     1      20.754   1.467  48.910  1.00  0.00    -0.242 NA
HETATM    5  C9  UNL     1      20.078   2.135  49.999  1.00  0.00     0.085 A 
HETATM    6  C10 UNL     1      18.917   2.744  50.171  1.00  0.00     0.067 A 
HETATM    7  C11 UNL     1      18.906   3.198  51.562  1.00  0.00     0.070 A 
HETATM    8  C13 UNL     1      20.042   2.859  52.194  1.00  0.00     0.062 A 
HETATM    9  C14 UNL     1      20.872   2.136  51.223  1.00  0.00     0.186 A 
ENDROOT
BRANCH   1  10
HETATM   10  N1  UNL     1      22.716   3.280  52.233  1.00  0.00    -0.351 N 
HETATM   11  H9  UNL     1      22.151   3.933  52.779  1.00  0.00     0.166 HD
BRANCH  10  12
HETATM   12  C6  UNL     1      24.075   2.885  52.478  1.00  0.00     0.089 C 
HETATM   13  C5  UNL     1      24.740   2.664  53.599  1.00  0.00     0.018 C 
BRANCH  13  14
HETATM   14  C4  UNL     1      26.119   2.271  53.606  1.00  0.00     0.021 C 
HETATM   15  C3  UNL     1      26.714   1.328  52.907  1.00  0.00     0.011 C 
HETATM   16 CL1  UNL     1      28.454   1.103  53.162  1.00  0.00    -0.089 Cl
BRANCH  15  17
HETATM   17  C2  UNL     1      26.447   0.289  51.897  1.00  0.00     0.047 C 
HETATM   18  C1  UNL     1      26.669  -1.087  52.516  1.00  0.00     0.011 C 
ENDBRANCH  15  17
ENDBRANCH  13  14
ENDBRANCH  10  12
ENDBRANCH   1  10
BRANCH   9  19
HETATM   19  O2  UNL     1      20.898   0.796  51.735  1.00  0.00    -0.357 OA
BRANCH  19  20
HETATM   20  C15 UNL     1      20.669   0.661  53.057  1.00  0.00     0.116 C 
HETATM   21  C16 UNL     1      21.873   0.074  53.804  1.00  0.00     0.039 C 
HETATM   22  C17 UNL     1      19.587  -0.432  53.189  1.00  0.00     0.039 C 
ENDBRANCH  19  20
ENDBRANCH   9  19
BRANCH   7  23
HETATM   23  O1  UNL     1      17.827   3.896  52.117  1.00  0.00    -0.356 OA
HETATM   24  C12 UNL     1      16.616   3.886  51.379  1.00  0.00     0.210 C 
ENDBRANCH   7  23
TORSDOF 7
ENDMDL
MODEL 7
REMARK VINA RESULT:      -6.2      4.359      5.237
REMARK  7 active torsions:
REMARK  status: ('A' for Active; 'I' for Inactive)
REMARK    1  A    between atoms: C2_2  and  C3_3 
REMARK    2  A    between atoms: C4_5  and  C5_6 
REMARK    3  A    between atoms: C6_7  and  N1_8 
REMARK    4  A    between atoms: N1_8  and  C7_9 
REMARK    5  A    between atoms: C11_15  and  O1_16 
REMARK    6  A    between atoms: C14_19  and  O2_20 
REMARK    7  A    between atoms: O2_20  and  C15_21 
ROOT
HETATM    1  C7  UNL     1      26.221   2.663  50.776  1.00  0.00     0.150 C 
HETATM    2  N2  UNL     1      27.032   2.558  51.725  1.00  0.00    -0.225 NA
HETATM    3  C8  UNL     1      26.908   2.086  53.026  1.00  0.00     0.235 C 
HETATM    4  N3  UNL     1      25.736   1.605  53.400  1.00  0.00    -0.242 NA
HETATM    5  C9  UNL     1      24.690   1.587  52.404  1.00  0.00     0.085 A 
HETATM    6  C10 UNL     1      23.600   0.874  52.176  1.00  0.00     0.067 A 
HETATM    7  C11 UNL     1      23.012   1.421  50.954  1.00  0.00     0.070 A 
HETATM    8  C13 UNL     1      23.744   2.440  50.474  1.00  0.00     0.062 A 
HETATM    9  C14 UNL     1      24.875   2.621  51.391  1.00  0.00     0.186 A 
ENDROOT
BRANCH   1  10
HETATM   10  N1  UNL     1      26.156   3.074  49.420  1.00  0.00    -0.351 N 
HETATM   11  H9  UNL     1      25.628   2.588  48.693  1.00  0.00     0.166 HD
BRANCH  10  12
HETATM   12  C6  UNL     1      26.959   4.256  49.272  1.00  0.00     0.089 C 
HETATM   13  C5  UNL     1      26.794   5.349  48.548  1.00  0.00     0.018 C 
BRANCH  13  14
HETATM   14  C4  UNL     1      27.743   6.423  48.554  1.00  0.00     0.021 C 
HETATM   15  C3  UNL     1      29.027   6.395  48.263  1.00  0.00     0.011 C 
HETATM   16 CL1  UNL     1      29.918   7.924  48.374  1.00  0.00    -0.089 Cl
BRANCH  15  17
HETATM   17  C2  UNL     1      30.101   5.479  47.840  1.00  0.00     0.047 C 
HETATM   18  C1  UNL     1      31.299   6.293  47.362  1.00  0.00     0.011 C 
ENDBRANCH  15  17
ENDBRANCH  13  14
ENDBRANCH  10  12
ENDBRANCH   1  10
BRANCH   9  19
HETATM   19  O2  UNL     1      24.611   3.892  52.002  1.00  0.00    -0.357 OA
BRANCH  19  20
HETATM   20  C15 UNL     1      23.645   4.638  51.429  1.00  0.00     0.116 C 
HETATM   21  C16 UNL     1      24.117   6.059  51.099  1.00  0.00     0.039 C 
HETATM   22  C17 UNL     1      22.574   4.851  52.519  1.00  0.00     0.039 C 
ENDBRANCH  19  20
ENDBRANCH   9  19
BRANCH   7  23
HETATM   23  O1  UNL     1      21.834   0.912  50.392  1.00  0.00    -0.356 OA
HETATM   24  C12 UNL     1      21.530   1.327  49.071  1.00  0.00     0.210 C 
ENDBRANCH   7  23
TORSDOF 7
ENDMDL
MODEL 8
REMARK VINA RESULT:      -6.2      3.901      5.798
REMARK  7 active torsions:
REMARK  status: ('A' for Active; 'I' for Inactive)
REMARK    1  A    between atoms: C2_2  and  C3_3 
REMARK    2  A    between atoms: C4_5  and  C5_6 
REMARK    3  A    between atoms: C6_7  and  N1_8 
REMARK    4  A    between atoms: N1_8  and  C7_9 
REMARK    5  A    between atoms: C11_15  and  O1_16 
REMARK    6  A    between atoms: C14_19  and  O2_20 
REMARK    7  A    between atoms: O2_20  and  C15_21 
ROOT
HETATM    1  C7  UNL     1      24.089   3.604  50.918  1.00  0.00     0.150 C 
HETATM    2  N2  UNL     1      23.520   4.601  51.421  1.00  0.00    -0.225 NA
HETATM    3  C8  UNL     1      23.312   5.006  52.733  1.00  0.00     0.235 C 
HETATM    4  N3  UNL     1      23.811   4.257  53.699  1.00  0.00    -0.242 NA
HETATM    5  C9  UNL     1      24.562   3.089  53.297  1.00  0.00     0.085 A 
HETATM    6  C10 UNL     1      25.531   2.353  53.812  1.00  0.00     0.067 A 
HETATM    7  C11 UNL     1      25.809   1.309  52.826  1.00  0.00     0.070 A 
HETATM    8  C13 UNL     1      25.013   1.430  51.751  1.00  0.00     0.062 A 
HETATM    9  C14 UNL     1      24.144   2.588  51.992  1.00  0.00     0.186 A 
ENDROOT
BRANCH   1  10
HETATM   10  N1  UNL     1      24.420   3.042  49.658  1.00  0.00    -0.351 N 
HETATM   11  H9  UNL     1      23.971   2.216  49.258  1.00  0.00     0.166 HD
BRANCH  10  12
HETATM   12  C6  UNL     1      25.479   3.824  49.083  1.00  0.00     0.089 C 
HETATM   13  C5  UNL     1      26.739   4.001  49.442  1.00  0.00     0.018 C 
BRANCH  13  14
HETATM   14  C4  UNL     1      27.634   4.844  48.705  1.00  0.00     0.021 C 
HETATM   15  C3  UNL     1      27.467   6.091  48.320  1.00  0.00     0.011 C 
HETATM   16 CL1  UNL     1      28.792   6.845  47.414  1.00  0.00    -0.089 Cl
BRANCH  15  17
HETATM   17  C2  UNL     1      26.497   7.199  48.364  1.00  0.00     0.047 C 
HETATM   18  C1  UNL     1      26.401   7.730  49.791  1.00  0.00     0.011 C 
ENDBRANCH  15  17
ENDBRANCH  13  14
ENDBRANCH  10  12
ENDBRANCH   1  10
BRANCH   9  19
HETATM   19  O2  UNL     1      22.841   2.004  52.138  1.00  0.00    -0.357 OA
BRANCH  19  20
HETATM   20  C15 UNL     1      22.657   0.807  51.546  1.00  0.00     0.116 C 
HETATM   21  C16 UNL     1      21.586   0.853  50.449  1.00  0.00     0.039 C 
HETATM   22  C17 UNL     1      22.037  -0.106  52.625  1.00  0.00     0.039 C 
ENDBRANCH  19  20
ENDBRANCH   9  19
BRANCH   7  23
HETATM   23  O1  UNL     1      26.791   0.330  53.023  1.00  0.00    -0.356 OA
HETATM   24  C12 UNL     1      26.601  -0.904  52.350  1.00  0.00     0.210 C 
ENDBRANCH   7  23
TORSDOF 7
ENDMDL
MODEL 9
REMARK VINA RESULT:      -6.2      3.436      5.739
REMARK  7 active torsions:
REMARK  status: ('A' for Active; 'I' for Inactive)
REMARK    1  A    between atoms: C2_2  and  C3_3 
REMARK    2  A    between atoms: C4_5  and  C5_6 
REMARK    3  A    between atoms: C6_7  and  N1_8 
REMARK    4  A    between atoms: N1_8  and  C7_9 
REMARK    5  A    between atoms: C11_15  and  O1_16 
REMARK    6  A    between atoms: C14_19  and  O2_20 
REMARK    7  A    between atoms: O2_20  and  C15_21 
ROOT
HETATM    1  C7  UNL     1      22.660   3.298  51.237  1.00  0.00     0.150 C 
HETATM    2  N2  UNL     1      22.469   3.289  49.998  1.00  0.00    -0.225 NA
HETATM    3  C8  UNL     1      22.131   2.282  49.103  1.00  0.00     0.235 C 
HETATM    4  N3  UNL     1      21.921   1.071  49.584  1.00  0.00    -0.242 NA
HETATM    5  C9  UNL     1      22.034   0.909  51.016  1.00  0.00     0.085 A 
HETATM    6  C10 UNL     1      21.536   0.091  51.927  1.00  0.00     0.067 A 
HETATM    7  C11 UNL     1      22.093   0.529  53.206  1.00  0.00     0.070 A 
HETATM    8  C13 UNL     1      22.909   1.585  53.047  1.00  0.00     0.062 A 
HETATM    9  C14 UNL     1      22.932   1.893  51.612  1.00  0.00     0.186 A 
ENDROOT
BRANCH   1  10
HETATM   10  N1  UNL     1      22.972   4.186  52.298  1.00  0.00    -0.351 N 
HETATM   11  H9  UNL     1      22.566   4.133  53.235  1.00  0.00     0.166 HD
BRANCH  10  12
HETATM   12  C6  UNL     1      23.925   5.146  51.814  1.00  0.00     0.089 C 
HETATM   13  C5  UNL     1      23.772   6.318  51.224  1.00  0.00     0.018 C 
BRANCH  13  14
HETATM   14  C4  UNL     1      24.888   7.122  50.818  1.00  0.00     0.021 C 
HETATM   15  C3  UNL     1      25.683   6.970  49.780  1.00  0.00     0.011 C 
HETATM   16 CL1  UNL     1      26.980   8.160  49.569  1.00  0.00    -0.089 Cl
BRANCH  15  17
HETATM   17  C2  UNL     1      25.920   6.094  48.619  1.00  0.00     0.047 C 
HETATM   18  C1  UNL     1      26.658   4.840  49.074  1.00  0.00     0.011 C 
ENDBRANCH  15  17
ENDBRANCH  13  14
ENDBRANCH  10  12
ENDBRANCH   1  10
BRANCH   9  19
HETATM   19  O2  UNL     1      24.272   1.565  51.220  1.00  0.00    -0.357 OA
BRANCH  19  20
HETATM   20  C15 UNL     1      25.195   1.562  52.203  1.00  0.00     0.116 C 
HETATM   21  C16 UNL     1      26.419   2.422  51.864  1.00  0.00     0.039 C 
HETATM   22  C17 UNL     1      25.758   0.126  52.250  1.00  0.00     0.039 C 
ENDBRANCH  19  20
ENDBRANCH   9  19
BRANCH   7  23
HETATM   23  O1  UNL     1      21.786  -0.104  54.417  1.00  0.00    -0.356 OA
HETATM   24  C12 UNL     1      21.163  -1.375  54.330  1.00  0.00     0.210 C 
ENDBRANCH   7  23
TORSDOF 7
ENDMDL
