MODEL 1
REMARK VINA RESULT:      -7.9      0.000      0.000
REMARK  8 active torsions:
REMARK  status: ('A' for Active; 'I' for Inactive)
REMARK    1  A    between atoms: N1_2  and  C3_4 
REMARK    2  A    between atoms: C3_4  and  C5_7 
REMARK    3  A    between atoms: C5_7  and  C6_8 
REMARK    4  A    between atoms: C6_8  and  N2_9 
REMARK       I    between atoms: N2_9  and  C7_10 
REMARK    5  A    between atoms: C7_10  and  C8_12 
REMARK    6  A    between atoms: N3_14  and  C10_15 
REMARK    7  A    between atoms: C10_15  and  C11_16 
REMARK    8  A    between atoms: C11_16  and  C12_17 
ROOT
HETATM    1  C8  UNL     1      23.730   3.742  51.270  1.00  0.00     0.115 C 
HETATM    2  C9  UNL     1      22.968   3.127  50.347  1.00  0.00     0.113 C 
HETATM    3  N3  UNL     1      21.607   3.309  49.987  1.00  0.00    -0.364 N 
HETATM    4  C18 UNL     1      20.884   4.539  50.198  1.00  0.00     0.107 C 
HETATM    5  C19 UNL     1      21.154   5.569  50.994  1.00  0.00     0.108 C 
HETATM    6  N4  UNL     1      22.258   5.771  51.893  1.00  0.00    -0.331 N 
HETATM    7  C20 UNL     1      23.257   4.794  52.156  1.00  0.00     0.262 C 
HETATM    8  O2  UNL     1      23.832   4.792  53.271  1.00  0.00    -0.267 OA
HETATM    9  H24 UNL     1      22.388   6.654  52.410  1.00  0.00     0.168 HD
ENDROOT
BRANCH   1  10
HETATM   10  C7  UNL     1      25.080   3.257  51.319  1.00  0.00     0.258 C 
HETATM   11  N2  UNL     1      25.825   2.709  52.385  1.00  0.00    -0.356 N 
HETATM   12  H12 UNL     1      25.330   2.644  53.298  1.00  0.00     0.162 HD
HETATM   13  O1  UNL     1      25.802   3.287  50.277  1.00  0.00    -0.267 OA
BRANCH  11  14
HETATM   14  C6  UNL     1      27.172   2.303  52.134  1.00  0.00     0.128 C 
BRANCH  14  15
HETATM   15  C5  UNL     1      27.909   2.053  53.430  1.00  0.00     0.085 C 
BRANCH  15  16
HETATM   16  C3  UNL     1      28.266   0.643  53.637  1.00  0.00     0.169 A 
HETATM   17  C4  UNL     1      29.529   0.299  53.656  1.00  0.00     0.223 A 
HETATM   18  F1  UNL     1      28.515  -0.596  53.821  1.00  0.00    -0.366 F 
BRANCH  16  19
HETATM   19  N1  UNL     1      27.139  -0.204  53.799  1.00  0.00    -0.387 N 
HETATM   20  C1  UNL     1      26.921  -1.293  52.861  1.00  0.00     0.146 C 
HETATM   21  C2  UNL     1      26.179  -0.043  54.856  1.00  0.00     0.146 C 
ENDBRANCH  16  19
ENDBRANCH  15  16
ENDBRANCH  14  15
ENDBRANCH  11  14
ENDBRANCH   1  10
BRANCH   3  22
HETATM   22  C10 UNL     1      20.971   2.177  49.390  1.00  0.00     0.132 C 
BRANCH  22  23
HETATM   23  C11 UNL     1      21.497   0.859  49.828  1.00  0.00     0.058 C 
BRANCH  23  24
HETATM   24  C12 UNL     1      20.820   0.372  51.085  1.00  0.00    -0.055 A 
HETATM   25  C13 UNL     1      19.443   0.304  51.144  1.00  0.00     0.007 A 
HETATM   26  C14 UNL     1      18.849  -0.150  52.326  1.00  0.00     0.002 A 
HETATM   27  C15 UNL     1      19.617  -0.525  53.411  1.00  0.00     0.024 A 
HETATM   28  C16 UNL     1      20.996  -0.458  53.357  1.00  0.00     0.034 A 
HETATM   29 CL1  UNL     1      22.014  -0.919  54.704  1.00  0.00    -0.084 Cl
HETATM   30  C17 UNL     1      21.544  -0.012  52.195  1.00  0.00     0.031 A 
ENDBRANCH  23  24
ENDBRANCH  22  23
ENDBRANCH   3  22
TORSDOF 8
ENDMDL
MODEL 2
REMARK VINA RESULT:      -7.7      4.256      8.010
REMARK  8 active torsions:
REMARK  status: ('A' for Active; 'I' for Inactive)
REMARK    1  A    between atoms: N1_2  and  C3_4 
REMARK    2  A    between atoms: C3_4  and  C5_7 
REMARK    3  A    between atoms: C5_7  and  C6_8 
REMARK    4  A    between atoms: C6_8  and  N2_9 
REMARK       I    between atoms: N2_9  and  C7_10 
REMARK    5  A    between atoms: C7_10  and  C8_12 
REMARK    6  A    between atoms: N3_14  and  C10_15 
REMARK    7  A    between atoms: C10_15  and  C11_16 
REMARK    8  A    between atoms: C11_16  and  C12_17 
ROOT
HETATM    1  C8  UNL     1      24.752  -0.129  53.480  1.00  0.00     0.115 C 
HETATM    2  C9  UNL     1      24.978   0.774  52.508  1.00  0.00     0.113 C 
HETATM    3  N3  UNL     1      26.155   1.475  52.137  1.00  0.00    -0.364 N 
HETATM    4  C18 UNL     1      27.488   0.997  52.414  1.00  0.00     0.107 C 
HETATM    5  C19 UNL     1      27.909   0.079  53.278  1.00  0.00     0.108 C 
HETATM    6  N4  UNL     1      27.159  -0.723  54.206  1.00  0.00    -0.331 N 
HETATM    7  C20 UNL     1      25.760  -0.587  54.424  1.00  0.00     0.262 C 
HETATM    8  O2  UNL     1      25.284  -0.883  55.546  1.00  0.00    -0.267 OA
HETATM    9  H24 UNL     1      27.604  -1.455  54.780  1.00  0.00     0.168 HD
ENDROOT
BRANCH   1  10
HETATM   10  C7  UNL     1      23.400  -0.607  53.522  1.00  0.00     0.258 C 
HETATM   11  N2  UNL     1      22.400  -0.462  54.507  1.00  0.00    -0.356 N 
HETATM   12  H12 UNL     1      22.674   0.074  55.355  1.00  0.00     0.162 HD
HETATM   13  O1  UNL     1      22.939  -1.284  52.554  1.00  0.00    -0.267 OA
BRANCH  11  14
HETATM   14  C6  UNL     1      21.121  -1.055  54.269  1.00  0.00     0.128 C 
BRANCH  14  15
HETATM   15  C5  UNL     1      20.082   0.004  53.981  1.00  0.00     0.085 C 
BRANCH  15  16
HETATM   16  C3  UNL     1      19.447  -0.143  52.664  1.00  0.00     0.169 A 
HETATM   17  C4  UNL     1      20.099   0.233  51.594  1.00  0.00     0.223 A 
HETATM   18  F1  UNL     1      18.844  -0.295  51.549  1.00  0.00    -0.366 F 
BRANCH  16  19
HETATM   19  N1  UNL     1      18.144  -0.702  52.729  1.00  0.00    -0.387 N 
HETATM   20  C1  UNL     1      17.049  -0.050  52.029  1.00  0.00     0.146 C 
HETATM   21  C2  UNL     1      17.836  -1.900  53.463  1.00  0.00     0.146 C 
ENDBRANCH  16  19
ENDBRANCH  15  16
ENDBRANCH  14  15
ENDBRANCH  11  14
ENDBRANCH   1  10
BRANCH   3  22
HETATM   22  C10 UNL     1      25.945   2.715  51.459  1.00  0.00     0.132 C 
BRANCH  22  23
HETATM   23  C11 UNL     1      26.417   2.748  50.052  1.00  0.00     0.058 C 
BRANCH  23  24
HETATM   24  C12 UNL     1      26.397   4.146  49.484  1.00  0.00    -0.055 A 
HETATM   25  C13 UNL     1      25.223   4.873  49.484  1.00  0.00     0.007 A 
HETATM   26  C14 UNL     1      25.240   6.165  48.950  1.00  0.00     0.002 A 
HETATM   27  C15 UNL     1      26.401   6.707  48.432  1.00  0.00     0.024 A 
HETATM   28  C16 UNL     1      27.578   5.982  48.429  1.00  0.00     0.034 A 
HETATM   29 CL1  UNL     1      29.075   6.622  47.785  1.00  0.00    -0.084 Cl
HETATM   30  C17 UNL     1      27.529   4.729  48.956  1.00  0.00     0.031 A 
ENDBRANCH  23  24
ENDBRANCH  22  23
ENDBRANCH   3  22
TORSDOF 8
ENDMDL
MODEL 3
REMARK VINA RESULT:      -7.6      2.930      4.919
REMARK  8 active torsions:
REMARK  status: ('A' for Active; 'I' for Inactive)
REMARK    1  A    between atoms: N1_2  and  C3_4 
REMARK    2  A    between atoms: C3_4  and  C5_7 
REMARK    3  A    between atoms: C5_7  and  C6_8 
REMARK    4  A    between atoms: C6_8  and  N2_9 
REMARK       I    between atoms: N2_9  and  C7_10 
REMARK    5  A    between atoms: C7_10  and  C8_12 
REMARK    6  A    between atoms: N3_14  and  C10_15 
REMARK    7  A    between atoms: C10_15  and  C11_16 
REMARK    8  A    between atoms: C11_16  and  C12_17 
ROOT
HETATM    1  C8  UNL     1      21.750  -0.112  52.915  1.00  0.00     0.115 C 
HETATM    2  C9  UNL     1      21.328   0.603  51.856  1.00  0.00     0.113 C 
HETATM    3  N3  UNL     1      20.086   0.614  51.169  1.00  0.00    -0.364 N 
HETATM    4  C18 UNL     1      18.838   0.214  51.773  1.00  0.00     0.107 C 
HETATM    5  C19 UNL     1      18.605  -0.506  52.865  1.00  0.00     0.108 C 
HETATM    6  N4  UNL     1      19.531  -1.108  53.785  1.00  0.00    -0.331 N 
HETATM    7  C20 UNL     1      20.942  -1.103  53.609  1.00  0.00     0.262 C 
HETATM    8  O2  UNL     1      21.622  -2.042  54.088  1.00  0.00    -0.267 OA
HETATM    9  H24 UNL     1      19.217  -1.590  54.642  1.00  0.00     0.168 HD
ENDROOT
BRANCH   1  10
HETATM   10  C7  UNL     1      23.099   0.180  53.308  1.00  0.00     0.258 C 
HETATM   11  N2  UNL     1      24.147  -0.674  53.713  1.00  0.00    -0.356 N 
HETATM   12  H12 UNL     1      23.918  -1.688  53.744  1.00  0.00     0.162 HD
HETATM   13  O1  UNL     1      23.507   1.380  53.326  1.00  0.00    -0.267 OA
BRANCH  11  14
HETATM   14  C6  UNL     1      25.407  -0.090  54.049  1.00  0.00     0.128 C 
BRANCH  14  15
HETATM   15  C5  UNL     1      26.420  -0.329  52.953  1.00  0.00     0.085 C 
BRANCH  15  16
HETATM   16  C3  UNL     1      27.091   0.896  52.500  1.00  0.00     0.169 A 
HETATM   17  C4  UNL     1      26.573   1.582  51.514  1.00  0.00     0.223 A 
HETATM   18  F1  UNL     1      27.719   1.952  52.151  1.00  0.00    -0.366 F 
BRANCH  16  19
HETATM   19  N1  UNL     1      28.273   1.191  53.229  1.00  0.00    -0.387 N 
HETATM   20  C1  UNL     1      29.179   0.112  53.590  1.00  0.00     0.146 C 
HETATM   21  C2  UNL     1      28.635   2.520  53.639  1.00  0.00     0.146 C 
ENDBRANCH  16  19
ENDBRANCH  15  16
ENDBRANCH  14  15
ENDBRANCH  11  14
ENDBRANCH   1  10
BRANCH   3  22
HETATM   22  C10 UNL     1      20.137   1.053  49.810  1.00  0.00     0.132 C 
BRANCH  22  23
HETATM   23  C11 UNL     1      21.487   1.024  49.192  1.00  0.00     0.058 C 
BRANCH  23  24
HETATM   24  C12 UNL     1      22.003   2.411  48.903  1.00  0.00    -0.055 A 
HETATM   25  C13 UNL     1      21.177   3.344  48.309  1.00  0.00     0.007 A 
HETATM   26  C14 UNL     1      21.688   4.621  48.054  1.00  0.00     0.002 A 
HETATM   27  C15 UNL     1      22.989   4.947  48.387  1.00  0.00     0.024 A 
HETATM   28  C16 UNL     1      23.820   4.016  48.981  1.00  0.00     0.034 A 
HETATM   29 CL1  UNL     1      25.475   4.378  49.422  1.00  0.00    -0.084 Cl
HETATM   30  C17 UNL     1      23.294   2.784  49.216  1.00  0.00     0.031 A 
ENDBRANCH  23  24
ENDBRANCH  22  23
ENDBRANCH   3  22
TORSDOF 8
ENDMDL
MODEL 4
REMARK VINA RESULT:      -7.6      3.349      6.915
REMARK  8 active torsions:
REMARK  status: ('A' for Active; 'I' for Inactive)
REMARK    1  A    between atoms: N1_2  and  C3_4 
REMARK    2  A    between atoms: C3_4  and  C5_7 
REMARK    3  A    between atoms: C5_7  and  C6_8 
REMARK    4  A    between atoms: C6_8  and  N2_9 
REMARK       I    between atoms: N2_9  and  C7_10 
REMARK    5  A    between atoms: C7_10  and  C8_12 
REMARK    6  A    between atoms: N3_14  and  C10_15 
REMARK    7  A    between atoms: C10_15  and  C11_16 
REMARK    8  A    between atoms: C11_16  and  C12_17 
ROOT
HETATM    1  C8  UNL     1      22.177   1.459  52.264  1.00  0.00     0.115 C 
HETATM    2  C9  UNL     1      23.242   0.678  52.524  1.00  0.00     0.113 C 
HETATM    3  N3  UNL     1      23.449  -0.323  53.508  1.00  0.00    -0.364 N 
HETATM    4  C18 UNL     1      22.378  -1.065  54.128  1.00  0.00     0.107 C 
HETATM    5  C19 UNL     1      21.077  -0.803  54.194  1.00  0.00     0.108 C 
HETATM    6  N4  UNL     1      20.335   0.309  53.663  1.00  0.00    -0.331 N 
HETATM    7  C20 UNL     1      20.933   1.426  53.016  1.00  0.00     0.262 C 
HETATM    8  O2  UNL     1      20.361   2.541  53.068  1.00  0.00    -0.267 OA
HETATM    9  H24 UNL     1      19.307   0.361  53.726  1.00  0.00     0.168 HD
ENDROOT
BRANCH   1  10
HETATM   10  C7  UNL     1      22.376   2.359  51.163  1.00  0.00     0.258 C 
HETATM   11  N2  UNL     1      22.429   3.768  51.123  1.00  0.00    -0.356 N 
HETATM   12  H12 UNL     1      22.296   4.253  52.033  1.00  0.00     0.162 HD
HETATM   13  O1  UNL     1      22.542   1.900  49.993  1.00  0.00    -0.267 OA
BRANCH  11  14
HETATM   14  C6  UNL     1      22.647   4.403  49.861  1.00  0.00     0.128 C 
BRANCH  14  15
HETATM   15  C5  UNL     1      23.647   5.529  49.991  1.00  0.00     0.085 C 
BRANCH  15  16
HETATM   16  C3  UNL     1      24.922   5.261  49.311  1.00  0.00     0.169 A 
HETATM   17  C4  UNL     1      25.451   4.067  49.392  1.00  0.00     0.223 A 
HETATM   18  F1  UNL     1      26.029   5.088  48.700  1.00  0.00    -0.366 F 
BRANCH  16  19
HETATM   19  N1  UNL     1      25.437   6.389  48.620  1.00  0.00    -0.387 N 
HETATM   20  C1  UNL     1      26.826   6.772  48.812  1.00  0.00     0.146 C 
HETATM   21  C2  UNL     1      24.649   7.191  47.724  1.00  0.00     0.146 C 
ENDBRANCH  16  19
ENDBRANCH  15  16
ENDBRANCH  14  15
ENDBRANCH  11  14
ENDBRANCH   1  10
BRANCH   3  22
HETATM   22  C10 UNL     1      24.811  -0.564  53.866  1.00  0.00     0.132 C 
BRANCH  22  23
HETATM   23  C11 UNL     1      25.702  -0.929  52.735  1.00  0.00     0.058 C 
BRANCH  23  24
HETATM   24  C12 UNL     1      27.158  -0.751  53.085  1.00  0.00    -0.055 A 
HETATM   25  C13 UNL     1      28.027  -1.820  52.985  1.00  0.00     0.007 A 
HETATM   26  C14 UNL     1      29.370  -1.619  53.319  1.00  0.00     0.002 A 
HETATM   27  C15 UNL     1      29.823  -0.384  53.740  1.00  0.00     0.024 A 
HETATM   28  C16 UNL     1      28.957   0.688  53.842  1.00  0.00     0.034 A 
HETATM   29 CL1  UNL     1      29.480   2.273  54.370  1.00  0.00    -0.084 Cl
HETATM   30  C17 UNL     1      27.658   0.462  53.511  1.00  0.00     0.031 A 
ENDBRANCH  23  24
ENDBRANCH  22  23
ENDBRANCH   3  22
TORSDOF 8
ENDMDL
MODEL 5
REMARK VINA RESULT:      -7.6      5.002      7.273
REMARK  8 active torsions:
REMARK  status: ('A' for Active; 'I' for Inactive)
REMARK    1  A    between atoms: N1_2  and  C3_4 
REMARK    2  A    between atoms: C3_4  and  C5_7 
REMARK    3  A    between atoms: C5_7  and  C6_8 
REMARK    4  A    between atoms: C6_8  and  N2_9 
REMARK       I    between atoms: N2_9  and  C7_10 
REMARK    5  A    between atoms: C7_10  and  C8_12 
REMARK    6  A    between atoms: N3_14  and  C10_15 
REMARK    7  A    between atoms: C10_15  and  C11_16 
REMARK    8  A    between atoms: C11_16  and  C12_17 
ROOT
HETATM    1  C8  UNL     1      25.938   4.723  49.381  1.00  0.00     0.115 C 
HETATM    2  C9  UNL     1      25.939   3.709  50.265  1.00  0.00     0.113 C 
HETATM    3  N3  UNL     1      24.879   3.076  50.964  1.00  0.00    -0.364 N 
HETATM    4  C18 UNL     1      23.514   3.061  50.498  1.00  0.00     0.107 C 
HETATM    5  C19 UNL     1      22.905   3.827  49.599  1.00  0.00     0.108 C 
HETATM    6  N4  UNL     1      23.425   4.912  48.812  1.00  0.00    -0.331 N 
HETATM    7  C20 UNL     1      24.743   5.430  48.946  1.00  0.00     0.262 C 
HETATM    8  O2  UNL     1      24.958   6.634  48.669  1.00  0.00    -0.267 OA
HETATM    9  H24 UNL     1      22.858   5.387  48.092  1.00  0.00     0.168 HD
ENDROOT
BRANCH   1  10
HETATM   10  C7  UNL     1      27.244   5.070  48.897  1.00  0.00     0.258 C 
HETATM   11  N2  UNL     1      27.872   6.326  48.757  1.00  0.00    -0.356 N 
HETATM   12  H12 UNL     1      27.305   7.150  49.041  1.00  0.00     0.162 HD
HETATM   13  O1  UNL     1      28.036   4.160  48.508  1.00  0.00    -0.267 OA
BRANCH  11  14
HETATM   14  C6  UNL     1      29.204   6.365  48.241  1.00  0.00     0.128 C 
BRANCH  14  15
HETATM   15  C5  UNL     1      29.568   7.763  47.796  1.00  0.00     0.085 C 
BRANCH  15  16
HETATM   16  C3  UNL     1      30.083   8.607  48.882  1.00  0.00     0.169 A 
HETATM   17  C4  UNL     1      31.222   8.298  49.447  1.00  0.00     0.223 A 
HETATM   18  F1  UNL     1      30.479   9.378  49.820  1.00  0.00    -0.366 F 
BRANCH  16  19
HETATM   19  N1  UNL     1      29.234   9.701  49.192  1.00  0.00    -0.387 N 
HETATM   20  C1  UNL     1      29.597  11.037  48.747  1.00  0.00     0.146 C 
HETATM   21  C2  UNL     1      28.012   9.564  49.936  1.00  0.00     0.146 C 
ENDBRANCH  16  19
ENDBRANCH  15  16
ENDBRANCH  14  15
ENDBRANCH  11  14
ENDBRANCH   1  10
BRANCH   3  22
HETATM   22  C10 UNL     1      25.243   2.438  52.190  1.00  0.00     0.132 C 
BRANCH  22  23
HETATM   23  C11 UNL     1      25.573   0.995  52.073  1.00  0.00     0.058 C 
BRANCH  23  24
HETATM   24  C12 UNL     1      26.931   0.680  52.650  1.00  0.00    -0.055 A 
HETATM   25  C13 UNL     1      27.737   1.700  53.112  1.00  0.00     0.007 A 
HETATM   26  C14 UNL     1      28.990   1.372  53.640  1.00  0.00     0.002 A 
HETATM   27  C15 UNL     1      29.416   0.059  53.699  1.00  0.00     0.024 A 
HETATM   28  C16 UNL     1      28.613  -0.966  53.237  1.00  0.00     0.034 A 
HETATM   29 CL1  UNL     1      29.106  -2.644  53.289  1.00  0.00    -0.084 Cl
HETATM   30  C17 UNL     1      27.400  -0.615  52.730  1.00  0.00     0.031 A 
ENDBRANCH  23  24
ENDBRANCH  22  23
ENDBRANCH   3  22
TORSDOF 8
ENDMDL
MODEL 6
REMARK VINA RESULT:      -7.5      3.373      5.438
REMARK  8 active torsions:
REMARK  status: ('A' for Active; 'I' for Inactive)
REMARK    1  A    between atoms: N1_2  and  C3_4 
REMARK    2  A    between atoms: C3_4  and  C5_7 
REMARK    3  A    between atoms: C5_7  and  C6_8 
REMARK    4  A    between atoms: C6_8  and  N2_9 
REMARK       I    between atoms: N2_9  and  C7_10 
REMARK    5  A    between atoms: C7_10  and  C8_12 
REMARK    6  A    between atoms: N3_14  and  C10_15 
REMARK    7  A    between atoms: C10_15  and  C11_16 
REMARK    8  A    between atoms: C11_16  and  C12_17 
ROOT
HETATM    1  C8  UNL     1      22.607   1.900  52.513  1.00  0.00     0.115 C 
HETATM    2  C9  UNL     1      22.863   3.181  52.191  1.00  0.00     0.113 C 
HETATM    3  N3  UNL     1      22.068   4.158  51.537  1.00  0.00    -0.364 N 
HETATM    4  C18 UNL     1      20.626   4.130  51.520  1.00  0.00     0.107 C 
HETATM    5  C19 UNL     1      19.783   3.135  51.772  1.00  0.00     0.108 C 
HETATM    6  N4  UNL     1      20.053   1.772  52.143  1.00  0.00    -0.331 N 
HETATM    7  C20 UNL     1      21.359   1.213  52.216  1.00  0.00     0.262 C 
HETATM    8  O2  UNL     1      21.512  -0.014  52.007  1.00  0.00    -0.267 OA
HETATM    9  H24 UNL     1      19.299   1.109  52.380  1.00  0.00     0.168 HD
ENDROOT
BRANCH   1  10
HETATM   10  C7  UNL     1      23.695   1.243  53.181  1.00  0.00     0.258 C 
HETATM   11  N2  UNL     1      24.047  -0.121  53.248  1.00  0.00    -0.356 N 
HETATM   12  H12 UNL     1      23.419  -0.777  52.740  1.00  0.00     0.162 HD
HETATM   13  O1  UNL     1      24.531   1.924  53.848  1.00  0.00    -0.267 OA
BRANCH  11  14
HETATM   14  C6  UNL     1      25.206  -0.487  53.999  1.00  0.00     0.128 C 
BRANCH  14  15
HETATM   15  C5  UNL     1      26.342  -0.876  53.081  1.00  0.00     0.085 C 
BRANCH  15  16
HETATM   16  C3  UNL     1      27.146   0.267  52.629  1.00  0.00     0.169 A 
HETATM   17  C4  UNL     1      26.842   0.857  51.502  1.00  0.00     0.223 A 
HETATM   18  F1  UNL     1      27.881   1.255  52.289  1.00  0.00    -0.366 F 
BRANCH  16  19
HETATM   19  N1  UNL     1      28.200   0.598  53.521  1.00  0.00    -0.387 N 
HETATM   20  C1  UNL     1      28.540   1.995  53.740  1.00  0.00     0.146 C 
HETATM   21  C2  UNL     1      28.967  -0.386  54.234  1.00  0.00     0.146 C 
ENDBRANCH  16  19
ENDBRANCH  15  16
ENDBRANCH  14  15
ENDBRANCH  11  14
ENDBRANCH   1  10
BRANCH   3  22
HETATM   22  C10 UNL     1      22.791   5.198  50.876  1.00  0.00     0.132 C 
BRANCH  22  23
HETATM   23  C11 UNL     1      23.136   4.920  49.458  1.00  0.00     0.058 C 
BRANCH  23  24
HETATM   24  C12 UNL     1      24.627   4.912  49.233  1.00  0.00    -0.055 A 
HETATM   25  C13 UNL     1      25.373   3.807  49.591  1.00  0.00     0.007 A 
HETATM   26  C14 UNL     1      26.753   3.835  49.369  1.00  0.00     0.002 A 
HETATM   27  C15 UNL     1      27.362   4.939  48.805  1.00  0.00     0.024 A 
HETATM   28  C16 UNL     1      26.620   6.048  48.445  1.00  0.00     0.034 A 
HETATM   29 CL1  UNL     1      27.342   7.472  47.728  1.00  0.00    -0.084 Cl
HETATM   30  C17 UNL     1      25.280   5.991  48.674  1.00  0.00     0.031 A 
ENDBRANCH  23  24
ENDBRANCH  22  23
ENDBRANCH   3  22
TORSDOF 8
ENDMDL
MODEL 7
REMARK VINA RESULT:      -7.5      4.085      6.507
REMARK  8 active torsions:
REMARK  status: ('A' for Active; 'I' for Inactive)
REMARK    1  A    between atoms: N1_2  and  C3_4 
REMARK    2  A    between atoms: C3_4  and  C5_7 
REMARK    3  A    between atoms: C5_7  and  C6_8 
REMARK    4  A    between atoms: C6_8  and  N2_9 
REMARK       I    between atoms: N2_9  and  C7_10 
REMARK    5  A    between atoms: C7_10  and  C8_12 
REMARK    6  A    between atoms: N3_14  and  C10_15 
REMARK    7  A    between atoms: C10_15  and  C11_16 
REMARK    8  A    between atoms: C11_16  and  C12_17 
ROOT
HETATM    1  C8  UNL     1      23.615   3.805  51.568  1.00  0.00     0.115 C 
HETATM    2  C9  UNL     1      24.430   4.579  50.828  1.00  0.00     0.113 C 
HETATM    3  N3  UNL     1      24.164   5.724  50.032  1.00  0.00    -0.364 N 
HETATM    4  C18 UNL     1      23.036   6.598  50.245  1.00  0.00     0.107 C 
HETATM    5  C19 UNL     1      21.909   6.397  50.920  1.00  0.00     0.108 C 
HETATM    6  N4  UNL     1      21.468   5.240  51.650  1.00  0.00    -0.331 N 
HETATM    7  C20 UNL     1      22.180   4.010  51.693  1.00  0.00     0.262 C 
HETATM    8  O2  UNL     1      21.545   2.940  51.856  1.00  0.00    -0.267 OA
HETATM    9  H24 UNL     1      20.591   5.237  52.194  1.00  0.00     0.168 HD
ENDROOT
BRANCH   1  10
HETATM   10  C7  UNL     1      24.290   2.727  52.233  1.00  0.00     0.258 C 
HETATM   11  N2  UNL     1      24.583   1.416  51.800  1.00  0.00    -0.356 N 
HETATM   12  H12 UNL     1      24.256   1.171  50.844  1.00  0.00     0.162 HD
HETATM   13  O1  UNL     1      24.732   2.887  53.410  1.00  0.00    -0.267 OA
BRANCH  11  14
HETATM   14  C6  UNL     1      25.282   0.547  52.693  1.00  0.00     0.128 C 
BRANCH  14  15
HETATM   15  C5  UNL     1      26.704   0.329  52.229  1.00  0.00     0.085 C 
BRANCH  15  16
HETATM   16  C3  UNL     1      27.318  -0.889  52.776  1.00  0.00     0.169 A 
HETATM   17  C4  UNL     1      26.813  -2.055  52.463  1.00  0.00     0.223 A 
HETATM   18  F1  UNL     1      27.894  -1.911  53.281  1.00  0.00    -0.366 F 
BRANCH  16  19
HETATM   19  N1  UNL     1      28.434  -0.627  53.612  1.00  0.00    -0.387 N 
HETATM   20  C1  UNL     1      28.253   0.152  54.826  1.00  0.00     0.146 C 
HETATM   21  C2  UNL     1      29.762  -1.097  53.323  1.00  0.00     0.146 C 
ENDBRANCH  16  19
ENDBRANCH  15  16
ENDBRANCH  14  15
ENDBRANCH  11  14
ENDBRANCH   1  10
BRANCH   3  22
HETATM   22  C10 UNL     1      25.096   5.971  48.978  1.00  0.00     0.132 C 
BRANCH  22  23
HETATM   23  C11 UNL     1      26.330   5.147  49.026  1.00  0.00     0.058 C 
BRANCH  23  24
HETATM   24  C12 UNL     1      27.513   5.870  48.431  1.00  0.00    -0.055 A 
HETATM   25  C13 UNL     1      27.362   7.152  47.941  1.00  0.00     0.007 A 
HETATM   26  C14 UNL     1      28.480   7.792  47.396  1.00  0.00     0.002 A 
HETATM   27  C15 UNL     1      29.708   7.162  47.345  1.00  0.00     0.024 A 
HETATM   28  C16 UNL     1      29.864   5.878  47.833  1.00  0.00     0.034 A 
HETATM   29 CL1  UNL     1      31.397   5.036  47.793  1.00  0.00    -0.084 Cl
HETATM   30  C17 UNL     1      28.759   5.283  48.357  1.00  0.00     0.031 A 
ENDBRANCH  23  24
ENDBRANCH  22  23
ENDBRANCH   3  22
TORSDOF 8
ENDMDL
MODEL 8
REMARK VINA RESULT:      -7.4      3.405      5.917
REMARK  8 active torsions:
REMARK  status: ('A' for Active; 'I' for Inactive)
REMARK    1  A    between atoms: N1_2  and  C3_4 
REMARK    2  A    between atoms: C3_4  and  C5_7 
REMARK    3  A    between atoms: C5_7  and  C6_8 
REMARK    4  A    between atoms: C6_8  and  N2_9 
REMARK       I    between atoms: N2_9  and  C7_10 
REMARK    5  A    between atoms: C7_10  and  C8_12 
REMARK    6  A    between atoms: N3_14  and  C10_15 
REMARK    7  A    between atoms: C10_15  and  C11_16 
REMARK    8  A    between atoms: C11_16  and  C12_17 
ROOT
HETATM    1  C8  UNL     1      25.433   2.099  52.718  1.00  0.00     0.115 C 
HETATM    2  C9  UNL     1      24.460   1.234  53.057  1.00  0.00     0.113 C 
HETATM    3  N3  UNL     1      24.505   0.009  53.772  1.00  0.00    -0.364 N 
HETATM    4  C18 UNL     1      25.541  -0.324  54.719  1.00  0.00     0.107 C 
HETATM    5  C19 UNL     1      26.750   0.202  54.890  1.00  0.00     0.108 C 
HETATM    6  N4  UNL     1      27.397   1.270  54.177  1.00  0.00    -0.331 N 
HETATM    7  C20 UNL     1      26.840   1.918  53.040  1.00  0.00     0.262 C 
HETATM    8  O2  UNL     1      27.608   2.410  52.179  1.00  0.00    -0.267 OA
HETATM    9  H24 UNL     1      28.322   1.632  54.456  1.00  0.00     0.168 HD
ENDROOT
BRANCH   1  10
HETATM   10  C7  UNL     1      24.963   3.239  51.983  1.00  0.00     0.258 C 
HETATM   11  N2  UNL     1      25.598   4.031  51.004  1.00  0.00    -0.356 N 
HETATM   12  H12 UNL     1      26.575   3.763  50.768  1.00  0.00     0.162 HD
HETATM   13  O1  UNL     1      23.791   3.679  52.181  1.00  0.00    -0.267 OA
BRANCH  11  14
HETATM   14  C6  UNL     1      24.869   5.120  50.434  1.00  0.00     0.128 C 
BRANCH  14  15
HETATM   15  C5  UNL     1      25.061   5.170  48.935  1.00  0.00     0.085 C 
BRANCH  15  16
HETATM   16  C3  UNL     1      25.612   6.446  48.458  1.00  0.00     0.169 A 
HETATM   17  C4  UNL     1      24.801   7.351  47.973  1.00  0.00     0.223 A 
HETATM   18  F1  UNL     1      26.148   7.534  48.060  1.00  0.00    -0.366 F 
BRANCH  16  19
HETATM   19  N1  UNL     1      27.022   6.534  48.595  1.00  0.00    -0.387 N 
HETATM   20  C1  UNL     1      27.831   5.335  48.455  1.00  0.00     0.146 C 
HETATM   21  C2  UNL     1      27.711   7.766  48.869  1.00  0.00     0.146 C 
ENDBRANCH  16  19
ENDBRANCH  15  16
ENDBRANCH  14  15
ENDBRANCH  11  14
ENDBRANCH   1  10
BRANCH   3  22
HETATM   22  C10 UNL     1      23.442  -0.905  53.495  1.00  0.00     0.132 C 
BRANCH  22  23
HETATM   23  C11 UNL     1      22.140  -0.563  54.123  1.00  0.00     0.058 C 
BRANCH  23  24
HETATM   24  C12 UNL     1      21.075  -0.282  53.093  1.00  0.00    -0.055 A 
HETATM   25  C13 UNL     1      19.745  -0.483  53.403  1.00  0.00     0.007 A 
HETATM   26  C14 UNL     1      18.784  -0.213  52.424  1.00  0.00     0.002 A 
HETATM   27  C15 UNL     1      19.151   0.243  51.173  1.00  0.00     0.024 A 
HETATM   28  C16 UNL     1      20.481   0.445  50.856  1.00  0.00     0.034 A 
HETATM   29 CL1  UNL     1      20.998   1.022  49.287  1.00  0.00    -0.084 Cl
HETATM   30  C17 UNL     1      21.392   0.174  51.830  1.00  0.00     0.031 A 
ENDBRANCH  23  24
ENDBRANCH  22  23
ENDBRANCH   3  22
TORSDOF 8
ENDMDL
MODEL 9
REMARK VINA RESULT:      -7.4      1.929      2.498
REMARK  8 active torsions:
REMARK  status: ('A' for Active; 'I' for Inactive)
REMARK    1  A    between atoms: N1_2  and  C3_4 
REMARK    2  A    between atoms: C3_4  and  C5_7 
REMARK    3  A    between atoms: C5_7  and  C6_8 
REMARK    4  A    between atoms: C6_8  and  N2_9 
REMARK       I    between atoms: N2_9  and  C7_10 
REMARK    5  A    between atoms: C7_10  and  C8_12 
REMARK    6  A    between atoms: N3_14  and  C10_15 
REMARK    7  A    between atoms: C10_15  and  C11_16 
REMARK    8  A    between atoms: C11_16  and  C12_17 
ROOT
HETATM    1  C8  UNL     1      23.027   3.472  52.343  1.00  0.00     0.115 C 
HETATM    2  C9  UNL     1      22.014   2.918  51.651  1.00  0.00     0.113 C 
HETATM    3  N3  UNL     1      20.900   3.504  50.995  1.00  0.00    -0.364 N 
HETATM    4  C18 UNL     1      20.885   4.862  50.508  1.00  0.00     0.107 C 
HETATM    5  C19 UNL     1      21.666   5.892  50.814  1.00  0.00     0.108 C 
HETATM    6  N4  UNL     1      22.773   5.968  51.728  1.00  0.00    -0.331 N 
HETATM    7  C20 UNL     1      23.177   4.900  52.576  1.00  0.00     0.262 C 
HETATM    8  O2  UNL     1      23.735   5.163  53.668  1.00  0.00    -0.267 OA
HETATM    9  H24 UNL     1      23.346   6.820  51.825  1.00  0.00     0.168 HD
ENDROOT
BRANCH   1  10
HETATM   10  C7  UNL     1      23.967   2.515  52.855  1.00  0.00     0.258 C 
HETATM   11  N2  UNL     1      25.306   2.670  53.270  1.00  0.00    -0.356 N 
HETATM   12  H12 UNL     1      25.697   3.631  53.192  1.00  0.00     0.162 HD
HETATM   13  O1  UNL     1      23.624   1.303  52.992  1.00  0.00    -0.267 OA
BRANCH  11  14
HETATM   14  C6  UNL     1      26.007   1.519  53.747  1.00  0.00     0.128 C 
BRANCH  14  15
HETATM   15  C5  UNL     1      27.039   1.063  52.742  1.00  0.00     0.085 C 
BRANCH  15  16
HETATM   16  C3  UNL     1      27.426  -0.346  52.898  1.00  0.00     0.169 A 
HETATM   17  C4  UNL     1      26.561  -1.283  52.602  1.00  0.00     0.223 A 
HETATM   18  F1  UNL     1      27.819  -1.551  53.055  1.00  0.00    -0.366 F 
BRANCH  16  19
HETATM   19  N1  UNL     1      28.752  -0.514  53.374  1.00  0.00    -0.387 N 
HETATM   20  C1  UNL     1      29.470   0.629  53.913  1.00  0.00     0.146 C 
HETATM   21  C2  UNL     1      29.442  -1.775  53.352  1.00  0.00     0.146 C 
ENDBRANCH  16  19
ENDBRANCH  15  16
ENDBRANCH  14  15
ENDBRANCH  11  14
ENDBRANCH   1  10
BRANCH   3  22
HETATM   22  C10 UNL     1      19.761   2.655  50.840  1.00  0.00     0.132 C 
BRANCH  22  23
HETATM   23  C11 UNL     1      20.073   1.229  50.567  1.00  0.00     0.058 C 
BRANCH  23  24
HETATM   24  C12 UNL     1      19.375   0.306  51.534  1.00  0.00    -0.055 A 
HETATM   25  C13 UNL     1      20.019  -0.102  52.685  1.00  0.00     0.007 A 
HETATM   26  C14 UNL     1      19.343  -0.959  53.559  1.00  0.00     0.002 A 
HETATM   27  C15 UNL     1      18.060  -1.391  53.283  1.00  0.00     0.024 A 
HETATM   28  C16 UNL     1      17.411  -0.986  52.132  1.00  0.00     0.034 A 
HETATM   29 CL1  UNL     1      15.787  -1.504  51.735  1.00  0.00    -0.084 Cl
HETATM   30  C17 UNL     1      18.095  -0.153  51.302  1.00  0.00     0.031 A 
ENDBRANCH  23  24
ENDBRANCH  22  23
ENDBRANCH   3  22
TORSDOF 8
ENDMDL
