MODEL 1
REMARK VINA RESULT:      -7.3      0.000      0.000
REMARK  8 active torsions:
REMARK  status: ('A' for Active; 'I' for Inactive)
REMARK    1  A    between atoms: C2_2  and  C3_3 
REMARK    2  A    between atoms: C2_2  and  N3_15 
REMARK    3  A    between atoms: C3_3  and  C4_4 
REMARK    4  A    between atoms: C4_4  and  C5_5 
REMARK    5  A    between atoms: C6_6  and  N1_7 
REMARK    6  A    between atoms: C6_6  and  N2_8 
REMARK    7  A    between atoms: N2_8  and  C7_9 
REMARK    8  A    between atoms: N3_15  and  C13_16 
ROOT
HETATM    1  C4  UNL     1      23.704   3.316  51.291  1.00  0.00     0.033 C 
ENDROOT
BRANCH   1   2
HETATM    2  C3  UNL     1      24.830   4.105  50.730  1.00  0.00     0.028 C 
BRANCH   2   3
HETATM    3  C2  UNL     1      26.036   3.330  50.428  1.00  0.00     0.079 C 
HETATM    4  C1  UNL     1      26.840   3.923  49.300  1.00  0.00     0.032 C 
BRANCH   3   5
HETATM    5  N3  UNL     1      26.928   3.141  51.560  1.00  0.00    -0.366 N 
HETATM    6  H18 UNL     1      27.459   3.972  51.965  1.00  0.00     0.162 HD
BRANCH   5   7
HETATM    7  C13 UNL     1      27.168   1.893  52.196  1.00  0.00     0.143 C 
HETATM    8  C14 UNL     1      26.496   0.800  51.815  1.00  0.00     0.056 C 
HETATM    9  C15 UNL     1      26.561  -0.587  52.309  1.00  0.00     0.004 C 
HETATM   10  C16 UNL     1      27.529  -1.146  53.036  1.00  0.00     0.002 C 
HETATM   11  C17 UNL     1      28.752  -0.488  53.502  1.00  0.00     0.025 C 
HETATM   12  C18 UNL     1      28.997   0.807  53.580  1.00  0.00     0.144 C 
HETATM   13  O1  UNL     1      28.127   1.860  53.226  1.00  0.00    -0.306 OA
ENDBRANCH   5   7
ENDBRANCH   3   5
ENDBRANCH   2   3
ENDBRANCH   1   2
BRANCH   1  14
HETATM   14  C5  UNL     1      23.086   2.319  50.452  1.00  0.00     0.021 C 
HETATM   15  C6  UNL     1      22.026   1.570  50.837  1.00  0.00     0.095 C 
BRANCH  15  16
HETATM   16  N1  UNL     1      21.458   0.590  49.937  1.00  0.00    -0.386 N 
HETATM   17  H10 UNL     1      21.504  -0.304  50.465  1.00  0.00     0.157 HD
HETATM   18  H11 UNL     1      21.032   0.071  49.159  1.00  0.00     0.157 HD
ENDBRANCH  15  16
BRANCH  15  19
HETATM   19  N2  UNL     1      21.413   1.681  52.143  1.00  0.00    -0.343 N 
HETATM   20  H12 UNL     1      20.803   2.517  52.375  1.00  0.00     0.167 HD
BRANCH  19  21
HETATM   21  C7  UNL     1      21.739   0.573  52.987  1.00  0.00     0.033 A 
HETATM   22  C8  UNL     1      23.011   0.295  53.427  1.00  0.00     0.029 A 
HETATM   23  C9  UNL     1      23.271  -0.773  54.267  1.00  0.00     0.002 A 
HETATM   24  C10 UNL     1      22.219  -1.561  54.656  1.00  0.00     0.000 A 
HETATM   25  C11 UNL     1      20.916  -1.333  54.249  1.00  0.00     0.002 A 
HETATM   26  C12 UNL     1      20.715  -0.249  53.409  1.00  0.00     0.029 A 
ENDBRANCH  19  21
ENDBRANCH  15  19
ENDBRANCH   1  14
TORSDOF 8
ENDMDL
MODEL 2
REMARK VINA RESULT:      -7.3      2.232      5.557
REMARK  8 active torsions:
REMARK  status: ('A' for Active; 'I' for Inactive)
REMARK    1  A    between atoms: C2_2  and  C3_3 
REMARK    2  A    between atoms: C2_2  and  N3_15 
REMARK    3  A    between atoms: C3_3  and  C4_4 
REMARK    4  A    between atoms: C4_4  and  C5_5 
REMARK    5  A    between atoms: C6_6  and  N1_7 
REMARK    6  A    between atoms: C6_6  and  N2_8 
REMARK    7  A    between atoms: N2_8  and  C7_9 
REMARK    8  A    between atoms: N3_15  and  C13_16 
ROOT
HETATM    1  C4  UNL     1      23.350   2.386  52.067  1.00  0.00     0.033 C 
ENDROOT
BRANCH   1   2
HETATM    2  C3  UNL     1      24.415   1.355  52.159  1.00  0.00     0.028 C 
BRANCH   2   3
HETATM    3  C2  UNL     1      24.267   0.411  53.270  1.00  0.00     0.079 C 
HETATM    4  C1  UNL     1      22.826   0.093  53.574  1.00  0.00     0.032 C 
BRANCH   3   5
HETATM    5  N3  UNL     1      24.972  -0.846  53.088  1.00  0.00    -0.366 N 
HETATM    6  H18 UNL     1      24.456  -1.696  52.702  1.00  0.00     0.162 HD
BRANCH   5   7
HETATM    7  C13 UNL     1      26.345  -1.052  53.396  1.00  0.00     0.143 C 
HETATM    8  C14 UNL     1      27.072  -1.923  52.689  1.00  0.00     0.056 C 
HETATM    9  C15 UNL     1      28.490  -2.309  52.808  1.00  0.00     0.004 C 
HETATM   10  C16 UNL     1      29.460  -1.652  53.444  1.00  0.00     0.002 C 
HETATM   11  C17 UNL     1      29.319  -0.387  54.168  1.00  0.00     0.025 C 
HETATM   12  C18 UNL     1      28.207   0.180  54.600  1.00  0.00     0.144 C 
HETATM   13  O1  UNL     1      26.892  -0.310  54.460  1.00  0.00    -0.306 OA
ENDBRANCH   5   7
ENDBRANCH   3   5
ENDBRANCH   2   3
ENDBRANCH   1   2
BRANCH   1  14
HETATM   14  C5  UNL     1      23.631   3.703  52.584  1.00  0.00     0.021 C 
HETATM   15  C6  UNL     1      23.772   4.798  51.799  1.00  0.00     0.095 C 
BRANCH  15  16
HETATM   16  N1  UNL     1      24.053   6.088  52.391  1.00  0.00    -0.386 N 
HETATM   17  H10 UNL     1      23.518   6.086  53.282  1.00  0.00     0.157 HD
HETATM   18  H11 UNL     1      24.378   7.035  52.625  1.00  0.00     0.157 HD
ENDBRANCH  15  16
BRANCH  15  19
HETATM   19  N2  UNL     1      23.672   4.756  50.357  1.00  0.00    -0.343 N 
HETATM   20  H12 UNL     1      22.736   4.575  49.893  1.00  0.00     0.167 HD
BRANCH  19  21
HETATM   21  C7  UNL     1      24.935   4.978  49.722  1.00  0.00     0.033 A 
HETATM   22  C8  UNL     1      25.301   6.170  49.144  1.00  0.00     0.029 A 
HETATM   23  C9  UNL     1      26.547   6.345  48.567  1.00  0.00     0.002 A 
HETATM   24  C10 UNL     1      27.420   5.289  48.583  1.00  0.00     0.000 A 
HETATM   25  C11 UNL     1      27.112   4.064  49.150  1.00  0.00     0.002 A 
HETATM   26  C12 UNL     1      25.851   3.948  49.712  1.00  0.00     0.029 A 
ENDBRANCH  19  21
ENDBRANCH  15  19
ENDBRANCH   1  14
TORSDOF 8
ENDMDL
MODEL 3
REMARK VINA RESULT:      -7.2      2.397      5.780
REMARK  8 active torsions:
REMARK  status: ('A' for Active; 'I' for Inactive)
REMARK    1  A    between atoms: C2_2  and  C3_3 
REMARK    2  A    between atoms: C2_2  and  N3_15 
REMARK    3  A    between atoms: C3_3  and  C4_4 
REMARK    4  A    between atoms: C4_4  and  C5_5 
REMARK    5  A    between atoms: C6_6  and  N1_7 
REMARK    6  A    between atoms: C6_6  and  N2_8 
REMARK    7  A    between atoms: N2_8  and  C7_9 
REMARK    8  A    between atoms: N3_15  and  C13_16 
ROOT
HETATM    1  C4  UNL     1      23.449  -0.128  52.951  1.00  0.00     0.033 C 
ENDROOT
BRANCH   1   2
HETATM    2  C3  UNL     1      22.948   1.242  52.675  1.00  0.00     0.028 C 
BRANCH   2   3
HETATM    3  C2  UNL     1      23.302   1.775  51.357  1.00  0.00     0.079 C 
HETATM    4  C1  UNL     1      22.282   1.437  50.301  1.00  0.00     0.032 C 
BRANCH   3   5
HETATM    5  N3  UNL     1      23.513   3.213  51.328  1.00  0.00    -0.366 N 
HETATM    6  H18 UNL     1      22.809   3.865  51.793  1.00  0.00     0.162 HD
BRANCH   5   7
HETATM    7  C13 UNL     1      24.619   3.851  50.703  1.00  0.00     0.143 C 
HETATM    8  C14 UNL     1      25.560   3.125  50.090  1.00  0.00     0.056 C 
HETATM    9  C15 UNL     1      26.783   3.541  49.380  1.00  0.00     0.004 C 
HETATM   10  C16 UNL     1      27.077   4.754  48.910  1.00  0.00     0.002 C 
HETATM   11  C17 UNL     1      26.231   5.946  49.000  1.00  0.00     0.025 C 
HETATM   12  C18 UNL     1      25.200   6.150  49.801  1.00  0.00     0.144 C 
HETATM   13  O1  UNL     1      24.677   5.256  50.758  1.00  0.00    -0.306 OA
ENDBRANCH   5   7
ENDBRANCH   3   5
ENDBRANCH   2   3
ENDBRANCH   1   2
BRANCH   1  14
HETATM   14  C5  UNL     1      23.802  -0.464  54.308  1.00  0.00     0.021 C 
HETATM   15  C6  UNL     1      25.031  -0.900  54.675  1.00  0.00     0.095 C 
BRANCH  15  16
HETATM   16  N1  UNL     1      25.310  -1.215  56.059  1.00  0.00    -0.386 N 
HETATM   17  H10 UNL     1      25.435  -0.290  56.516  1.00  0.00     0.157 HD
HETATM   18  H11 UNL     1      25.489  -1.653  56.972  1.00  0.00     0.157 HD
ENDBRANCH  15  16
BRANCH  15  19
HETATM   19  N2  UNL     1      26.114  -1.093  53.736  1.00  0.00    -0.343 N 
HETATM   20  H12 UNL     1      26.178  -1.990  53.174  1.00  0.00     0.167 HD
BRANCH  19  21
HETATM   21  C7  UNL     1      27.001   0.030  53.698  1.00  0.00     0.033 A 
HETATM   22  C8  UNL     1      26.760   1.169  52.969  1.00  0.00     0.029 A 
HETATM   23  C9  UNL     1      27.637   2.240  52.987  1.00  0.00     0.002 A 
HETATM   24  C10 UNL     1      28.765   2.139  53.758  1.00  0.00     0.000 A 
HETATM   25  C11 UNL     1      29.063   1.019  54.515  1.00  0.00     0.002 A 
HETATM   26  C12 UNL     1      28.150  -0.022  54.457  1.00  0.00     0.029 A 
ENDBRANCH  19  21
ENDBRANCH  15  19
ENDBRANCH   1  14
TORSDOF 8
ENDMDL
MODEL 4
REMARK VINA RESULT:      -6.8      2.045      5.502
REMARK  8 active torsions:
REMARK  status: ('A' for Active; 'I' for Inactive)
REMARK    1  A    between atoms: C2_2  and  C3_3 
REMARK    2  A    between atoms: C2_2  and  N3_15 
REMARK    3  A    between atoms: C3_3  and  C4_4 
REMARK    4  A    between atoms: C4_4  and  C5_5 
REMARK    5  A    between atoms: C6_6  and  N1_7 
REMARK    6  A    between atoms: C6_6  and  N2_8 
REMARK    7  A    between atoms: N2_8  and  C7_9 
REMARK    8  A    between atoms: N3_15  and  C13_16 
ROOT
HETATM    1  C4  UNL     1      22.912   1.185  52.106  1.00  0.00     0.033 C 
ENDROOT
BRANCH   1   2
HETATM    2  C3  UNL     1      23.028  -0.202  52.626  1.00  0.00     0.028 C 
BRANCH   2   3
HETATM    3  C2  UNL     1      22.992  -0.319  54.086  1.00  0.00     0.079 C 
HETATM    4  C1  UNL     1      21.783  -1.071  54.578  1.00  0.00     0.032 C 
BRANCH   3   5
HETATM    5  N3  UNL     1      24.170  -0.939  54.668  1.00  0.00    -0.366 N 
HETATM    6  H18 UNL     1      24.067  -1.621  55.482  1.00  0.00     0.162 HD
BRANCH   5   7
HETATM    7  C13 UNL     1      25.503  -0.704  54.232  1.00  0.00     0.143 C 
HETATM    8  C14 UNL     1      26.309   0.103  54.931  1.00  0.00     0.056 C 
HETATM    9  C15 UNL     1      27.708   0.502  54.694  1.00  0.00     0.004 C 
HETATM   10  C16 UNL     1      28.599  -0.094  53.901  1.00  0.00     0.002 C 
HETATM   11  C17 UNL     1      28.371  -1.290  53.087  1.00  0.00     0.025 C 
HETATM   12  C18 UNL     1      27.215  -1.820  52.729  1.00  0.00     0.144 C 
HETATM   13  O1  UNL     1      25.927  -1.347  53.054  1.00  0.00    -0.306 OA
ENDBRANCH   5   7
ENDBRANCH   3   5
ENDBRANCH   2   3
ENDBRANCH   1   2
BRANCH   1  14
HETATM   14  C5  UNL     1      23.430   2.260  52.915  1.00  0.00     0.021 C 
HETATM   15  C6  UNL     1      23.663   3.507  52.439  1.00  0.00     0.095 C 
BRANCH  15  16
HETATM   16  N1  UNL     1      24.182   4.536  53.313  1.00  0.00    -0.386 N 
HETATM   17  H10 UNL     1      24.218   4.088  54.250  1.00  0.00     0.157 HD
HETATM   18  H11 UNL     1      24.555   5.392  53.745  1.00  0.00     0.157 HD
ENDBRANCH  15  16
BRANCH  15  19
HETATM   19  N2  UNL     1      23.432   3.884  51.062  1.00  0.00    -0.343 N 
HETATM   20  H12 UNL     1      22.442   3.955  50.688  1.00  0.00     0.167 HD
BRANCH  19  21
HETATM   21  C7  UNL     1      24.653   4.123  50.356  1.00  0.00     0.033 A 
HETATM   22  C8  UNL     1      25.633   3.175  50.181  1.00  0.00     0.029 A 
HETATM   23  C9  UNL     1      26.786   3.447  49.465  1.00  0.00     0.002 A 
HETATM   24  C10 UNL     1      26.933   4.699  48.928  1.00  0.00     0.000 A 
HETATM   25  C11 UNL     1      25.983   5.696  49.068  1.00  0.00     0.002 A 
HETATM   26  C12 UNL     1      24.850   5.367  49.795  1.00  0.00     0.029 A 
ENDBRANCH  19  21
ENDBRANCH  15  19
ENDBRANCH   1  14
TORSDOF 8
ENDMDL
MODEL 5
REMARK VINA RESULT:      -6.7      3.306      6.432
REMARK  8 active torsions:
REMARK  status: ('A' for Active; 'I' for Inactive)
REMARK    1  A    between atoms: C2_2  and  C3_3 
REMARK    2  A    between atoms: C2_2  and  N3_15 
REMARK    3  A    between atoms: C3_3  and  C4_4 
REMARK    4  A    between atoms: C4_4  and  C5_5 
REMARK    5  A    between atoms: C6_6  and  N1_7 
REMARK    6  A    between atoms: C6_6  and  N2_8 
REMARK    7  A    between atoms: N2_8  and  C7_9 
REMARK    8  A    between atoms: N3_15  and  C13_16 
ROOT
HETATM    1  C4  UNL     1      24.288   4.217  51.408  1.00  0.00     0.033 C 
ENDROOT
BRANCH   1   2
HETATM    2  C3  UNL     1      24.726   3.551  50.154  1.00  0.00     0.028 C 
BRANCH   2   3
HETATM    3  C2  UNL     1      26.137   3.158  50.125  1.00  0.00     0.079 C 
HETATM    4  C1  UNL     1      26.970   4.050  49.242  1.00  0.00     0.032 C 
BRANCH   3   5
HETATM    5  N3  UNL     1      26.773   3.103  51.430  1.00  0.00    -0.366 N 
HETATM    6  H18 UNL     1      27.028   4.006  51.937  1.00  0.00     0.162 HD
BRANCH   5   7
HETATM    7  C13 UNL     1      27.103   1.902  52.115  1.00  0.00     0.143 C 
HETATM    8  C14 UNL     1      26.531   0.745  51.764  1.00  0.00     0.056 C 
HETATM    9  C15 UNL     1      26.701  -0.614  52.308  1.00  0.00     0.004 C 
HETATM   10  C16 UNL     1      27.698  -1.065  53.071  1.00  0.00     0.002 C 
HETATM   11  C17 UNL     1      28.852  -0.291  53.533  1.00  0.00     0.025 C 
HETATM   12  C18 UNL     1      28.988   1.022  53.568  1.00  0.00     0.144 C 
HETATM   13  O1  UNL     1      28.041   1.985  53.162  1.00  0.00    -0.306 OA
ENDBRANCH   5   7
ENDBRANCH   3   5
ENDBRANCH   2   3
ENDBRANCH   1   2
BRANCH   1  14
HETATM   14  C5  UNL     1      23.511   5.427  51.300  1.00  0.00     0.021 C 
HETATM   15  C6  UNL     1      24.060   6.657  51.158  1.00  0.00     0.095 C 
BRANCH  15  16
HETATM   16  N1  UNL     1      23.214   7.826  51.054  1.00  0.00    -0.386 N 
HETATM   17  H10 UNL     1      23.843   8.570  50.696  1.00  0.00     0.157 HD
HETATM   18  H11 UNL     1      22.452   8.517  51.058  1.00  0.00     0.157 HD
ENDBRANCH  15  16
BRANCH  15  19
HETATM   19  N2  UNL     1      25.487   6.886  51.120  1.00  0.00    -0.343 N 
HETATM   20  H12 UNL     1      26.099   6.569  51.926  1.00  0.00     0.167 HD
BRANCH  19  21
HETATM   21  C7  UNL     1      25.894   7.551  49.920  1.00  0.00     0.033 A 
HETATM   22  C8  UNL     1      25.527   7.146  48.659  1.00  0.00     0.029 A 
HETATM   23  C9  UNL     1      25.924   7.840  47.530  1.00  0.00     0.002 A 
HETATM   24  C10 UNL     1      26.703   8.955  47.697  1.00  0.00     0.000 A 
HETATM   25  C11 UNL     1      27.106   9.414  48.939  1.00  0.00     0.002 A 
HETATM   26  C12 UNL     1      26.679   8.679  50.033  1.00  0.00     0.029 A 
ENDBRANCH  19  21
ENDBRANCH  15  19
ENDBRANCH   1  14
TORSDOF 8
ENDMDL
MODEL 6
REMARK VINA RESULT:      -6.6      1.563      2.022
REMARK  8 active torsions:
REMARK  status: ('A' for Active; 'I' for Inactive)
REMARK    1  A    between atoms: C2_2  and  C3_3 
REMARK    2  A    between atoms: C2_2  and  N3_15 
REMARK    3  A    between atoms: C3_3  and  C4_4 
REMARK    4  A    between atoms: C4_4  and  C5_5 
REMARK    5  A    between atoms: C6_6  and  N1_7 
REMARK    6  A    between atoms: C6_6  and  N2_8 
REMARK    7  A    between atoms: N2_8  and  C7_9 
REMARK    8  A    between atoms: N3_15  and  C13_16 
ROOT
HETATM    1  C4  UNL     1      23.294   2.469  51.070  1.00  0.00     0.033 C 
ENDROOT
BRANCH   1   2
HETATM    2  C3  UNL     1      24.335   2.436  52.129  1.00  0.00     0.028 C 
BRANCH   2   3
HETATM    3  C2  UNL     1      25.345   1.387  51.969  1.00  0.00     0.079 C 
HETATM    4  C1  UNL     1      26.675   1.926  51.511  1.00  0.00     0.032 C 
BRANCH   3   5
HETATM    5  N3  UNL     1      25.575   0.588  53.161  1.00  0.00    -0.366 N 
HETATM    6  H18 UNL     1      24.888   0.634  53.975  1.00  0.00     0.162 HD
BRANCH   5   7
HETATM    7  C13 UNL     1      26.684  -0.282  53.345  1.00  0.00     0.143 C 
HETATM    8  C14 UNL     1      26.724  -1.466  52.724  1.00  0.00     0.056 C 
HETATM    9  C15 UNL     1      27.744  -2.530  52.750  1.00  0.00     0.004 C 
HETATM   10  C16 UNL     1      29.013  -2.430  53.149  1.00  0.00     0.002 C 
HETATM   11  C17 UNL     1      29.669  -1.221  53.653  1.00  0.00     0.025 C 
HETATM   12  C18 UNL     1      29.101  -0.116  54.100  1.00  0.00     0.144 C 
HETATM   13  O1  UNL     1      27.719   0.151  54.195  1.00  0.00    -0.306 OA
ENDBRANCH   5   7
ENDBRANCH   3   5
ENDBRANCH   2   3
ENDBRANCH   1   2
BRANCH   1  14
HETATM   14  C5  UNL     1      22.071   3.184  51.340  1.00  0.00     0.021 C 
HETATM   15  C6  UNL     1      20.867   2.579  51.472  1.00  0.00     0.095 C 
BRANCH  15  16
HETATM   16  N1  UNL     1      19.682   3.364  51.745  1.00  0.00    -0.386 N 
HETATM   17  H10 UNL     1      19.146   3.344  50.855  1.00  0.00     0.157 HD
HETATM   18  H11 UNL     1      18.933   3.944  52.145  1.00  0.00     0.157 HD
ENDBRANCH  15  16
BRANCH  15  19
HETATM   19  N2  UNL     1      20.679   1.151  51.336  1.00  0.00    -0.343 N 
HETATM   20  H12 UNL     1      20.272   0.750  50.443  1.00  0.00     0.167 HD
BRANCH  19  21
HETATM   21  C7  UNL     1      21.100   0.439  52.504  1.00  0.00     0.033 A 
HETATM   22  C8  UNL     1      22.091  -0.512  52.504  1.00  0.00     0.029 A 
HETATM   23  C9  UNL     1      22.481  -1.154  53.666  1.00  0.00     0.002 A 
HETATM   24  C10 UNL     1      21.848  -0.817  54.834  1.00  0.00     0.000 A 
HETATM   25  C11 UNL     1      20.844   0.133  54.901  1.00  0.00     0.002 A 
HETATM   26  C12 UNL     1      20.495   0.742  53.706  1.00  0.00     0.029 A 
ENDBRANCH  19  21
ENDBRANCH  15  19
ENDBRANCH   1  14
TORSDOF 8
ENDMDL
MODEL 7
REMARK VINA RESULT:      -6.6      2.357      4.847
REMARK  8 active torsions:
REMARK  status: ('A' for Active; 'I' for Inactive)
REMARK    1  A    between atoms: C2_2  and  C3_3 
REMARK    2  A    between atoms: C2_2  and  N3_15 
REMARK    3  A    between atoms: C3_3  and  C4_4 
REMARK    4  A    between atoms: C4_4  and  C5_5 
REMARK    5  A    between atoms: C6_6  and  N1_7 
REMARK    6  A    between atoms: C6_6  and  N2_8 
REMARK    7  A    between atoms: N2_8  and  C7_9 
REMARK    8  A    between atoms: N3_15  and  C13_16 
ROOT
HETATM    1  C4  UNL     1      26.797   1.552  51.911  1.00  0.00     0.033 C 
ENDROOT
BRANCH   1   2
HETATM    2  C3  UNL     1      26.288   2.050  50.607  1.00  0.00     0.028 C 
BRANCH   2   3
HETATM    3  C2  UNL     1      26.190   3.508  50.499  1.00  0.00     0.079 C 
HETATM    4  C1  UNL     1      26.900   4.049  49.285  1.00  0.00     0.032 C 
BRANCH   3   5
HETATM    5  N3  UNL     1      24.831   4.020  50.485  1.00  0.00    -0.366 N 
HETATM    6  H18 UNL     1      24.620   4.988  50.879  1.00  0.00     0.162 HD
BRANCH   5   7
HETATM    7  C13 UNL     1      23.709   3.311  49.974  1.00  0.00     0.143 C 
HETATM    8  C14 UNL     1      23.502   3.236  48.654  1.00  0.00     0.056 C 
HETATM    9  C15 UNL     1      22.432   2.573  47.887  1.00  0.00     0.004 C 
HETATM   10  C16 UNL     1      21.594   1.627  48.312  1.00  0.00     0.002 C 
HETATM   11  C17 UNL     1      21.561   1.038  49.653  1.00  0.00     0.025 C 
HETATM   12  C18 UNL     1      22.103   1.512  50.760  1.00  0.00     0.144 C 
HETATM   13  O1  UNL     1      22.843   2.704  50.902  1.00  0.00    -0.306 OA
ENDBRANCH   5   7
ENDBRANCH   3   5
ENDBRANCH   2   3
ENDBRANCH   1   2
BRANCH   1  14
HETATM   14  C5  UNL     1      27.133   0.154  52.021  1.00  0.00     0.021 C 
HETATM   15  C6  UNL     1      26.834  -0.603  53.104  1.00  0.00     0.095 C 
BRANCH  15  16
HETATM   16  N1  UNL     1      27.202  -2.001  53.141  1.00  0.00    -0.386 N 
HETATM   17  H10 UNL     1      26.812  -2.395  52.262  1.00  0.00     0.157 HD
HETATM   18  H11 UNL     1      27.559  -2.939  53.365  1.00  0.00     0.157 HD
ENDBRANCH  15  16
BRANCH  15  19
HETATM   19  N2  UNL     1      26.161  -0.080  54.273  1.00  0.00    -0.343 N 
HETATM   20  H12 UNL     1      26.685   0.543  54.954  1.00  0.00     0.167 HD
BRANCH  19  21
HETATM   21  C7  UNL     1      24.797  -0.505  54.345  1.00  0.00     0.033 A 
HETATM   22  C8  UNL     1      23.889  -0.340  53.327  1.00  0.00     0.029 A 
HETATM   23  C9  UNL     1      22.587  -0.795  53.435  1.00  0.00     0.002 A 
HETATM   24  C10 UNL     1      22.216  -1.422  54.596  1.00  0.00     0.000 A 
HETATM   25  C11 UNL     1      23.082  -1.620  55.657  1.00  0.00     0.002 A 
HETATM   26  C12 UNL     1      24.373  -1.143  55.492  1.00  0.00     0.029 A 
ENDBRANCH  19  21
ENDBRANCH  15  19
ENDBRANCH   1  14
TORSDOF 8
ENDMDL
MODEL 8
REMARK VINA RESULT:      -6.5      2.667      6.924
REMARK  8 active torsions:
REMARK  status: ('A' for Active; 'I' for Inactive)
REMARK    1  A    between atoms: C2_2  and  C3_3 
REMARK    2  A    between atoms: C2_2  and  N3_15 
REMARK    3  A    between atoms: C3_3  and  C4_4 
REMARK    4  A    between atoms: C4_4  and  C5_5 
REMARK    5  A    between atoms: C6_6  and  N1_7 
REMARK    6  A    between atoms: C6_6  and  N2_8 
REMARK    7  A    between atoms: N2_8  and  C7_9 
REMARK    8  A    between atoms: N3_15  and  C13_16 
ROOT
HETATM    1  C4  UNL     1      25.046   3.713  49.638  1.00  0.00     0.033 C 
ENDROOT
BRANCH   1   2
HETATM    2  C3  UNL     1      24.026   2.759  50.143  1.00  0.00     0.028 C 
BRANCH   2   3
HETATM    3  C2  UNL     1      24.149   2.418  51.562  1.00  0.00     0.079 C 
HETATM    4  C1  UNL     1      22.819   2.396  52.271  1.00  0.00     0.032 C 
BRANCH   3   5
HETATM    5  N3  UNL     1      24.813   1.152  51.821  1.00  0.00    -0.366 N 
HETATM    6  H18 UNL     1      24.285   0.235  51.687  1.00  0.00     0.162 HD
BRANCH   5   7
HETATM    7  C13 UNL     1      26.159   1.024  52.260  1.00  0.00     0.143 C 
HETATM    8  C14 UNL     1      26.795   2.068  52.803  1.00  0.00     0.056 C 
HETATM    9  C15 UNL     1      28.167   2.190  53.327  1.00  0.00     0.004 C 
HETATM   10  C16 UNL     1      28.996   1.204  53.671  1.00  0.00     0.002 C 
HETATM   11  C17 UNL     1      28.710  -0.231  53.601  1.00  0.00     0.025 C 
HETATM   12  C18 UNL     1      27.754  -0.835  52.920  1.00  0.00     0.144 C 
HETATM   13  O1  UNL     1      26.781  -0.228  52.099  1.00  0.00    -0.306 OA
ENDBRANCH   5   7
ENDBRANCH   3   5
ENDBRANCH   2   3
ENDBRANCH   1   2
BRANCH   1  14
HETATM   14  C5  UNL     1      25.317   4.895  50.418  1.00  0.00     0.021 C 
HETATM   15  C6  UNL     1      25.700   6.076  49.875  1.00  0.00     0.095 C 
BRANCH  15  16
HETATM   16  N1  UNL     1      25.952   7.221  50.723  1.00  0.00    -0.386 N 
HETATM   17  H10 UNL     1      26.045   6.822  51.678  1.00  0.00     0.157 HD
HETATM   18  H11 UNL     1      26.115   8.151  51.132  1.00  0.00     0.157 HD
ENDBRANCH  15  16
BRANCH  15  19
HETATM   19  N2  UNL     1      25.895   6.268  48.455  1.00  0.00    -0.343 N 
HETATM   20  H12 UNL     1      25.063   6.260  47.798  1.00  0.00     0.167 HD
BRANCH  19  21
HETATM   21  C7  UNL     1      27.274   6.452  48.120  1.00  0.00     0.033 A 
HETATM   22  C8  UNL     1      27.777   7.600  47.558  1.00  0.00     0.029 A 
HETATM   23  C9  UNL     1      29.126   7.740  47.278  1.00  0.00     0.002 A 
HETATM   24  C10 UNL     1      29.960   6.695  47.577  1.00  0.00     0.000 A 
HETATM   25  C11 UNL     1      29.515   5.514  48.145  1.00  0.00     0.002 A 
HETATM   26  C12 UNL     1      28.156   5.430  48.403  1.00  0.00     0.029 A 
ENDBRANCH  19  21
ENDBRANCH  15  19
ENDBRANCH   1  14
TORSDOF 8
ENDMDL
MODEL 9
REMARK VINA RESULT:      -6.5      2.428      3.840
REMARK  8 active torsions:
REMARK  status: ('A' for Active; 'I' for Inactive)
REMARK    1  A    between atoms: C2_2  and  C3_3 
REMARK    2  A    between atoms: C2_2  and  N3_15 
REMARK    3  A    between atoms: C3_3  and  C4_4 
REMARK    4  A    between atoms: C4_4  and  C5_5 
REMARK    5  A    between atoms: C6_6  and  N1_7 
REMARK    6  A    between atoms: C6_6  and  N2_8 
REMARK    7  A    between atoms: N2_8  and  C7_9 
REMARK    8  A    between atoms: N3_15  and  C13_16 
ROOT
HETATM    1  C4  UNL     1      23.910   1.124  52.183  1.00  0.00     0.033 C 
ENDROOT
BRANCH   1   2
HETATM    2  C3  UNL     1      23.791  -0.243  52.750  1.00  0.00     0.028 C 
BRANCH   2   3
HETATM    3  C2  UNL     1      24.104  -0.348  54.178  1.00  0.00     0.079 C 
HETATM    4  C1  UNL     1      23.023  -1.049  54.959  1.00  0.00     0.032 C 
BRANCH   3   5
HETATM    5  N3  UNL     1      25.364  -1.009  54.470  1.00  0.00    -0.366 N 
HETATM    6  H18 UNL     1      25.375  -1.911  55.038  1.00  0.00     0.162 HD
BRANCH   5   7
HETATM    7  C13 UNL     1      26.637  -0.535  54.051  1.00  0.00     0.143 C 
HETATM    8  C14 UNL     1      27.002   0.728  54.296  1.00  0.00     0.056 C 
HETATM    9  C15 UNL     1      28.246   1.448  53.970  1.00  0.00     0.004 C 
HETATM   10  C16 UNL     1      29.425   0.923  53.634  1.00  0.00     0.002 C 
HETATM   11  C17 UNL     1      29.735  -0.503  53.517  1.00  0.00     0.025 C 
HETATM   12  C18 UNL     1      28.889  -1.511  53.408  1.00  0.00     0.144 C 
HETATM   13  O1  UNL     1      27.481  -1.440  53.379  1.00  0.00    -0.306 OA
ENDBRANCH   5   7
ENDBRANCH   3   5
ENDBRANCH   2   3
ENDBRANCH   1   2
BRANCH   1  14
HETATM   14  C5  UNL     1      22.940   2.114  52.582  1.00  0.00     0.021 C 
HETATM   15  C6  UNL     1      21.676   2.159  52.097  1.00  0.00     0.095 C 
BRANCH  15  16
HETATM   16  N1  UNL     1      20.758   3.182  52.547  1.00  0.00    -0.386 N 
HETATM   17  H10 UNL     1      20.575   3.757  51.702  1.00  0.00     0.157 HD
HETATM   18  H11 UNL     1      20.125   3.804  53.067  1.00  0.00     0.157 HD
ENDBRANCH  15  16
BRANCH  15  19
HETATM   19  N2  UNL     1      21.174   1.227  51.111  1.00  0.00    -0.343 N 
HETATM   20  H12 UNL     1      21.637   1.158  50.159  1.00  0.00     0.167 HD
BRANCH  19  21
HETATM   21  C7  UNL     1      20.051   0.483  51.595  1.00  0.00     0.033 A 
HETATM   22  C8  UNL     1      20.035  -0.181  52.798  1.00  0.00     0.029 A 
HETATM   23  C9  UNL     1      18.913  -0.863  53.235  1.00  0.00     0.002 A 
HETATM   24  C10 UNL     1      17.804  -0.864  52.431  1.00  0.00     0.000 A 
HETATM   25  C11 UNL     1      17.756  -0.214  51.210  1.00  0.00     0.002 A 
HETATM   26  C12 UNL     1      18.908   0.452  50.824  1.00  0.00     0.029 A 
ENDBRANCH  19  21
ENDBRANCH  15  19
ENDBRANCH   1  14
TORSDOF 8
ENDMDL
