MODEL 1
REMARK VINA RESULT:      -8.4      0.000      0.000
REMARK  7 active torsions:
REMARK  status: ('A' for Active; 'I' for Inactive)
REMARK    1  A    between atoms: C2_2  and  C3_3 
REMARK    2  A    between atoms: C3_3  and  N1_4 
REMARK    3  A    between atoms: C3_3  and  C4_5 
REMARK    4  A    between atoms: C9_12  and  C10_13 
REMARK    5  A    between atoms: C13_17  and  N4_19 
REMARK    6  A    between atoms: N4_19  and  C15_20 
REMARK    7  A    between atoms: C18_24  and  C19_25 
ROOT
HETATM    1  C4  UNL     1      21.783   3.899  51.099  1.00  0.00     0.095 C 
HETATM    2  C5  UNL     1      20.597   3.792  51.951  1.00  0.00     0.044 C 
HETATM    3  N2  UNL     1      21.303   3.998  49.622  1.00  0.00    -0.288 NA
HETATM    4  C6  UNL     1      21.862   4.726  48.759  1.00  0.00     0.113 C 
HETATM    5  C7  UNL     1      22.644   5.626  47.918  1.00  0.00     0.043 C 
HETATM    6  C8  UNL     1      23.697   6.469  48.068  1.00  0.00     0.138 C 
HETATM    7  O1  UNL     1      24.374   6.681  49.350  1.00  0.00    -0.339 OA
HETATM    8  C9  UNL     1      23.721   5.815  50.312  1.00  0.00     0.181 A 
HETATM    9  C10 UNL     1      22.515   6.417  50.416  1.00  0.00     0.067 A 
HETATM   10  C11 UNL     1      21.569   5.803  51.207  1.00  0.00    -0.031 A 
HETATM   11  C12 UNL     1      22.715   5.050  51.234  1.00  0.00     0.019 A 
HETATM   12  N3  UNL     1      23.944   4.676  50.985  1.00  0.00     0.000 N 
HETATM   13  C13 UNL     1      24.527   3.812  51.946  1.00  0.00     0.029 A 
HETATM   14  C14 UNL     1      23.506   4.547  52.443  1.00  0.00     0.075 A 
HETATM   15  C21 UNL     1      24.930   5.197  50.220  1.00  0.00     0.237 A 
HETATM   16  O2  UNL     1      25.998   4.751  50.068  1.00  0.00    -0.286 OA
ENDROOT
BRANCH  13  17
HETATM   17  N4  UNL     1      25.590   2.939  51.751  1.00  0.00    -0.380 N 
HETATM   18  H17 UNL     1      26.173   3.068  50.902  1.00  0.00     0.160 HD
BRANCH  17  19
HETATM   19  C15 UNL     1      25.668   2.003  52.801  1.00  0.00     0.130 A 
HETATM   20  C16 UNL     1      25.591   0.575  52.413  1.00  0.00     0.026 A 
HETATM   21  C17 UNL     1      26.671  -0.106  52.833  1.00  0.00     0.047 A 
HETATM   22 CL1  UNL     1      27.143  -1.805  52.676  1.00  0.00    -0.084 Cl
HETATM   23  C18 UNL     1      27.573   0.821  53.547  1.00  0.00     0.067 A 
HETATM   24  C20 UNL     1      26.983   2.014  53.516  1.00  0.00     0.020 A 
BRANCH  23  25
HETATM   25  C19 UNL     1      28.882   0.543  54.197  1.00  0.00     0.418 C 
HETATM   26  F1  UNL     1      29.760   0.034  53.271  1.00  0.00    -0.166 F 
HETATM   27  F2  UNL     1      29.442   1.770  54.593  1.00  0.00    -0.166 F 
HETATM   28  F3  UNL     1      28.721  -0.235  55.308  1.00  0.00    -0.166 F 
ENDBRANCH  23  25
ENDBRANCH  17  19
ENDBRANCH  13  17
BRANCH   1  29
HETATM   29  C3  UNL     1      22.403   2.545  50.963  1.00  0.00     0.270 C 
BRANCH  29  30
HETATM   30  C2  UNL     1      21.809   1.918  49.646  1.00  0.00     0.000 C 
HETATM   31  C1  UNL     1      21.343   0.648  49.676  1.00  0.00     0.009 C 
ENDBRANCH  29  30
BRANCH  29  32
HETATM   32  N1  UNL     1      22.076   1.549  51.970  1.00  0.00     0.089 N 
HETATM   33  H5  UNL     1      22.951   1.403  52.536  1.00  0.00     0.313 HD
HETATM   34  H6  UNL     1      21.789   0.624  51.546  1.00  0.00     0.313 HD
ENDBRANCH  29  32
ENDBRANCH   1  29
TORSDOF 7
ENDMDL
MODEL 2
REMARK VINA RESULT:      -8.4      2.167      3.933
REMARK  7 active torsions:
REMARK  status: ('A' for Active; 'I' for Inactive)
REMARK    1  A    between atoms: C2_2  and  C3_3 
REMARK    2  A    between atoms: C3_3  and  N1_4 
REMARK    3  A    between atoms: C3_3  and  C4_5 
REMARK    4  A    between atoms: C9_12  and  C10_13 
REMARK    5  A    between atoms: C13_17  and  N4_19 
REMARK    6  A    between atoms: N4_19  and  C15_20 
REMARK    7  A    between atoms: C18_24  and  C19_25 
ROOT
HETATM    1  C4  UNL     1      22.969   4.535  49.566  1.00  0.00     0.095 C 
HETATM    2  C5  UNL     1      23.066   4.957  48.167  1.00  0.00     0.044 C 
HETATM    3  N2  UNL     1      21.694   5.187  50.175  1.00  0.00    -0.288 NA
HETATM    4  C6  UNL     1      20.945   4.604  51.002  1.00  0.00     0.113 C 
HETATM    5  C7  UNL     1      20.214   3.761  51.943  1.00  0.00     0.043 C 
HETATM    6  C8  UNL     1      20.308   2.500  52.436  1.00  0.00     0.138 C 
HETATM    7  O1  UNL     1      21.363   1.564  52.036  1.00  0.00    -0.339 OA
HETATM    8  C9  UNL     1      22.216   2.274  51.103  1.00  0.00     0.181 A 
HETATM    9  C10 UNL     1      21.387   2.388  50.041  1.00  0.00     0.067 A 
HETATM   10  C11 UNL     1      21.845   3.105  48.957  1.00  0.00    -0.031 A 
HETATM   11  C12 UNL     1      22.822   3.099  49.920  1.00  0.00     0.019 A 
HETATM   12  N3  UNL     1      23.430   2.840  51.049  1.00  0.00     0.000 N 
HETATM   13  C13 UNL     1      24.846   2.909  51.010  1.00  0.00     0.029 A 
HETATM   14  C14 UNL     1      24.291   2.693  49.795  1.00  0.00     0.075 A 
HETATM   15  C21 UNL     1      23.063   2.167  52.162  1.00  0.00     0.237 A 
HETATM   16  O2  UNL     1      23.705   2.017  53.125  1.00  0.00    -0.286 OA
ENDROOT
BRANCH  13  17
HETATM   17  N4  UNL     1      25.705   3.113  52.083  1.00  0.00    -0.380 N 
HETATM   18  H17 UNL     1      25.414   3.793  52.812  1.00  0.00     0.160 HD
BRANCH  17  19
HETATM   19  C15 UNL     1      26.858   2.315  51.960  1.00  0.00     0.130 A 
HETATM   20  C16 UNL     1      27.752   2.267  53.141  1.00  0.00     0.026 A 
HETATM   21  C17 UNL     1      27.933   1.006  53.569  1.00  0.00     0.047 A 
HETATM   22 CL1  UNL     1      28.871   0.325  54.907  1.00  0.00    -0.084 Cl
HETATM   23  C18 UNL     1      27.164   0.091  52.699  1.00  0.00     0.067 A 
HETATM   24  C20 UNL     1      26.561   0.857  51.792  1.00  0.00     0.020 A 
BRANCH  23  25
HETATM   25  C19 UNL     1      27.051  -1.391  52.763  1.00  0.00     0.418 C 
HETATM   26  F1  UNL     1      26.091  -1.743  53.681  1.00  0.00    -0.166 F 
HETATM   27  F2  UNL     1      26.558  -1.844  51.527  1.00  0.00    -0.166 F 
HETATM   28  F3  UNL     1      28.272  -1.966  52.976  1.00  0.00    -0.166 F 
ENDBRANCH  23  25
ENDBRANCH  17  19
ENDBRANCH  13  17
BRANCH   1  29
HETATM   29  C3  UNL     1      23.943   5.331  50.378  1.00  0.00     0.270 C 
BRANCH  29  30
HETATM   30  C2  UNL     1      23.176   6.625  50.842  1.00  0.00     0.000 C 
HETATM   31  C1  UNL     1      23.846   7.800  50.898  1.00  0.00     0.009 C 
ENDBRANCH  29  30
BRANCH  29  32
HETATM   32  N1  UNL     1      25.106   5.872  49.694  1.00  0.00     0.089 N 
HETATM   33  H5  UNL     1      25.247   6.843  50.076  1.00  0.00     0.313 HD
HETATM   34  H6  UNL     1      24.966   5.937  48.648  1.00  0.00     0.313 HD
ENDBRANCH  29  32
ENDBRANCH   1  29
TORSDOF 7
ENDMDL
MODEL 3
REMARK VINA RESULT:      -7.9      2.067      3.026
REMARK  7 active torsions:
REMARK  status: ('A' for Active; 'I' for Inactive)
REMARK    1  A    between atoms: C2_2  and  C3_3 
REMARK    2  A    between atoms: C3_3  and  N1_4 
REMARK    3  A    between atoms: C3_3  and  C4_5 
REMARK    4  A    between atoms: C9_12  and  C10_13 
REMARK    5  A    between atoms: C13_17  and  N4_19 
REMARK    6  A    between atoms: N4_19  and  C15_20 
REMARK    7  A    between atoms: C18_24  and  C19_25 
ROOT
HETATM    1  C4  UNL     1      23.545   6.000  50.560  1.00  0.00     0.095 C 
HETATM    2  C5  UNL     1      24.371   7.107  51.044  1.00  0.00     0.044 C 
HETATM    3  N2  UNL     1      22.080   6.513  50.442  1.00  0.00    -0.288 NA
HETATM    4  C6  UNL     1      21.297   6.169  49.517  1.00  0.00     0.113 C 
HETATM    5  C7  UNL     1      20.555   5.650  48.372  1.00  0.00     0.043 C 
HETATM    6  C8  UNL     1      20.796   4.840  47.310  1.00  0.00     0.138 C 
HETATM    7  O1  UNL     1      22.098   4.217  47.061  1.00  0.00    -0.339 OA
HETATM    8  C9  UNL     1      22.965   4.616  48.152  1.00  0.00     0.181 A 
HETATM    9  C10 UNL     1      23.117   5.933  47.885  1.00  0.00     0.067 A 
HETATM   10  C11 UNL     1      23.836   6.682  48.790  1.00  0.00    -0.031 A 
HETATM   11  C12 UNL     1      23.799   5.383  49.231  1.00  0.00     0.019 A 
HETATM   12  N3  UNL     1      23.525   4.104  49.258  1.00  0.00     0.000 N 
HETATM   13  C13 UNL     1      24.402   3.308  50.038  1.00  0.00     0.029 A 
HETATM   14  C14 UNL     1      24.960   4.473  49.634  1.00  0.00     0.075 A 
HETATM   15  C21 UNL     1      22.824   3.293  48.436  1.00  0.00     0.237 A 
HETATM   16  O2  UNL     1      22.637   2.150  48.582  1.00  0.00    -0.286 OA
ENDROOT
BRANCH  13  17
HETATM   17  N4  UNL     1      24.132   2.063  50.593  1.00  0.00    -0.380 N 
HETATM   18  H17 UNL     1      23.641   1.366  50.001  1.00  0.00     0.160 HD
BRANCH  17  19
HETATM   19  C15 UNL     1      24.602   1.994  51.918  1.00  0.00     0.130 A 
HETATM   20  C16 UNL     1      23.764   1.229  52.872  1.00  0.00     0.026 A 
HETATM   21  C17 UNL     1      24.461   0.236  53.450  1.00  0.00     0.047 A 
HETATM   22 CL1  UNL     1      24.017  -0.993  54.646  1.00  0.00    -0.084 Cl
HETATM   23  C18 UNL     1      25.842   0.251  52.923  1.00  0.00     0.067 A 
HETATM   24  C20 UNL     1      25.899   1.258  52.055  1.00  0.00     0.020 A 
BRANCH  23  25
HETATM   25  C19 UNL     1      26.985  -0.641  53.259  1.00  0.00     0.418 C 
HETATM   26  F1  UNL     1      28.124  -0.188  52.639  1.00  0.00    -0.166 F 
HETATM   27  F2  UNL     1      27.245  -0.517  54.635  1.00  0.00    -0.166 F 
HETATM   28  F3  UNL     1      26.680  -1.946  52.995  1.00  0.00    -0.166 F 
ENDBRANCH  23  25
ENDBRANCH  17  19
ENDBRANCH  13  17
BRANCH   1  29
HETATM   29  C3  UNL     1      23.281   5.062  51.696  1.00  0.00     0.270 C 
BRANCH  29  30
HETATM   30  C2  UNL     1      21.718   5.018  51.878  1.00  0.00     0.000 C 
HETATM   31  C1  UNL     1      21.130   3.848  52.222  1.00  0.00     0.009 C 
ENDBRANCH  29  30
BRANCH  29  32
HETATM   32  N1  UNL     1      23.749   5.453  53.015  1.00  0.00     0.089 N 
HETATM   33  H5  UNL     1      24.792   5.571  52.936  1.00  0.00     0.313 HD
HETATM   34  H6  UNL     1      23.545   4.721  53.750  1.00  0.00     0.313 HD
ENDBRANCH  29  32
ENDBRANCH   1  29
TORSDOF 7
ENDMDL
MODEL 4
REMARK VINA RESULT:      -7.5      1.651      1.942
REMARK  7 active torsions:
REMARK  status: ('A' for Active; 'I' for Inactive)
REMARK    1  A    between atoms: C2_2  and  C3_3 
REMARK    2  A    between atoms: C3_3  and  N1_4 
REMARK    3  A    between atoms: C3_3  and  C4_5 
REMARK    4  A    between atoms: C9_12  and  C10_13 
REMARK    5  A    between atoms: C13_17  and  N4_19 
REMARK    6  A    between atoms: N4_19  and  C15_20 
REMARK    7  A    between atoms: C18_24  and  C19_25 
ROOT
HETATM    1  C4  UNL     1      21.636   4.965  49.972  1.00  0.00     0.095 C 
HETATM    2  C5  UNL     1      20.286   4.880  50.531  1.00  0.00     0.044 C 
HETATM    3  N2  UNL     1      21.505   5.256  48.448  1.00  0.00    -0.288 NA
HETATM    4  C6  UNL     1      22.288   6.013  47.817  1.00  0.00     0.113 C 
HETATM    5  C7  UNL     1      23.297   6.919  47.276  1.00  0.00     0.043 C 
HETATM    6  C8  UNL     1      24.343   7.643  47.745  1.00  0.00     0.138 C 
HETATM    7  O1  UNL     1      24.731   7.661  49.158  1.00  0.00    -0.339 OA
HETATM    8  C9  UNL     1      23.825   6.765  49.849  1.00  0.00     0.181 A 
HETATM    9  C10 UNL     1      22.668   7.461  49.764  1.00  0.00     0.067 A 
HETATM   10  C11 UNL     1      21.532   6.859  50.256  1.00  0.00    -0.031 A 
HETATM   11  C12 UNL     1      22.590   6.006  50.438  1.00  0.00     0.019 A 
HETATM   12  N3  UNL     1      23.816   5.549  50.413  1.00  0.00     0.000 N 
HETATM   13  C13 UNL     1      24.112   4.542  51.367  1.00  0.00     0.029 A 
HETATM   14  C14 UNL     1      23.057   5.314  51.719  1.00  0.00     0.075 A 
HETATM   15  C21 UNL     1      24.979   6.052  49.945  1.00  0.00     0.237 A 
HETATM   16  O2  UNL     1      26.022   5.529  49.971  1.00  0.00    -0.286 OA
ENDROOT
BRANCH  13  17
HETATM   17  N4  UNL     1      25.131   3.600  51.302  1.00  0.00    -0.380 N 
HETATM   18  H17 UNL     1      25.702   3.565  50.435  1.00  0.00     0.160 HD
BRANCH  17  19
HETATM   19  C15 UNL     1      25.187   2.841  52.486  1.00  0.00     0.130 A 
HETATM   20  C16 UNL     1      24.015   1.979  52.769  1.00  0.00     0.026 A 
HETATM   21  C17 UNL     1      24.375   0.691  52.908  1.00  0.00     0.047 A 
HETATM   22 CL1  UNL     1      23.444  -0.776  53.244  1.00  0.00    -0.084 Cl
HETATM   23  C18 UNL     1      25.837   0.582  52.726  1.00  0.00     0.067 A 
HETATM   24  C20 UNL     1      26.278   1.815  52.487  1.00  0.00     0.020 A 
BRANCH  23  25
HETATM   25  C19 UNL     1      26.703  -0.627  52.792  1.00  0.00     0.418 C 
HETATM   26  F1  UNL     1      26.563  -1.360  51.639  1.00  0.00    -0.166 F 
HETATM   27  F2  UNL     1      28.044  -0.203  52.793  1.00  0.00    -0.166 F 
HETATM   28  F3  UNL     1      26.474  -1.331  53.940  1.00  0.00    -0.166 F 
ENDBRANCH  23  25
ENDBRANCH  17  19
ENDBRANCH  13  17
BRANCH   1  29
HETATM   29  C3  UNL     1      22.180   3.580  49.810  1.00  0.00     0.270 C 
BRANCH  29  30
HETATM   30  C2  UNL     1      22.103   3.252  48.272  1.00  0.00     0.000 C 
HETATM   31  C1  UNL     1      22.275   1.972  47.865  1.00  0.00     0.009 C 
ENDBRANCH  29  30
BRANCH  29  32
HETATM   32  N1  UNL     1      21.432   2.488  50.411  1.00  0.00     0.089 N 
HETATM   33  H5  UNL     1      20.733   2.176  49.688  1.00  0.00     0.313 HD
HETATM   34  H6  UNL     1      20.909   2.786  51.281  1.00  0.00     0.313 HD
ENDBRANCH  29  32
ENDBRANCH   1  29
TORSDOF 7
ENDMDL
MODEL 5
REMARK VINA RESULT:      -7.4      5.926      8.091
REMARK  7 active torsions:
REMARK  status: ('A' for Active; 'I' for Inactive)
REMARK    1  A    between atoms: C2_2  and  C3_3 
REMARK    2  A    between atoms: C3_3  and  N1_4 
REMARK    3  A    between atoms: C3_3  and  C4_5 
REMARK    4  A    between atoms: C9_12  and  C10_13 
REMARK    5  A    between atoms: C13_17  and  N4_19 
REMARK    6  A    between atoms: N4_19  and  C15_20 
REMARK    7  A    between atoms: C18_24  and  C19_25 
ROOT
HETATM    1  C4  UNL     1      30.297   7.984  47.197  1.00  0.00     0.095 C 
HETATM    2  C5  UNL     1      30.932   7.395  46.016  1.00  0.00     0.044 C 
HETATM    3  N2  UNL     1      31.348   8.886  47.906  1.00  0.00    -0.288 NA
HETATM    4  C6  UNL     1      31.063   9.982  48.456  1.00  0.00     0.113 C 
HETATM    5  C7  UNL     1      30.528  11.213  49.030  1.00  0.00     0.043 C 
HETATM    6  C8  UNL     1      29.330  11.846  49.095  1.00  0.00     0.138 C 
HETATM    7  O1  UNL     1      28.111  11.314  48.479  1.00  0.00    -0.339 OA
HETATM    8  C9  UNL     1      28.471  10.046  47.876  1.00  0.00     0.181 A 
HETATM    9  C10 UNL     1      29.259  10.464  46.860  1.00  0.00     0.067 A 
HETATM   10  C11 UNL     1      29.869   9.495  46.095  1.00  0.00    -0.031 A 
HETATM   11  C12 UNL     1      29.116   8.877  47.060  1.00  0.00     0.019 A 
HETATM   12  N3  UNL     1      28.309   8.730  48.080  1.00  0.00     0.000 N 
HETATM   13  C13 UNL     1      27.632   7.486  48.149  1.00  0.00     0.029 A 
HETATM   14  C14 UNL     1      28.045   7.797  46.898  1.00  0.00     0.075 A 
HETATM   15  C21 UNL     1      27.681   9.607  48.893  1.00  0.00     0.237 A 
HETATM   16  O2  UNL     1      26.985   9.344  49.793  1.00  0.00    -0.286 OA
ENDROOT
BRANCH  13  17
HETATM   17  N4  UNL     1      27.085   6.892  49.280  1.00  0.00    -0.380 N 
HETATM   18  H17 UNL     1      27.242   7.358  50.194  1.00  0.00     0.160 HD
BRANCH  17  19
HETATM   19  C15 UNL     1      26.392   5.714  48.940  1.00  0.00     0.130 A 
HETATM   20  C16 UNL     1      27.081   4.438  49.242  1.00  0.00     0.026 A 
HETATM   21  C17 UNL     1      26.338   3.656  50.045  1.00  0.00     0.047 A 
HETATM   22 CL1  UNL     1      26.619   2.051  50.737  1.00  0.00    -0.084 Cl
HETATM   23  C18 UNL     1      25.073   4.355  50.353  1.00  0.00     0.067 A 
HETATM   24  C20 UNL     1      25.125   5.522  49.716  1.00  0.00     0.020 A 
BRANCH  23  25
HETATM   25  C19 UNL     1      23.930   3.900  51.191  1.00  0.00     0.418 C 
HETATM   26  F1  UNL     1      23.469   2.691  50.728  1.00  0.00    -0.166 F 
HETATM   27  F2  UNL     1      24.415   3.634  52.483  1.00  0.00    -0.166 F 
HETATM   28  F3  UNL     1      22.973   4.871  51.282  1.00  0.00    -0.166 F 
ENDBRANCH  23  25
ENDBRANCH  17  19
ENDBRANCH  13  17
BRANCH   1  29
HETATM   29  C3  UNL     1      30.236   6.951  48.277  1.00  0.00     0.270 C 
BRANCH  29  30
HETATM   30  C2  UNL     1      31.552   7.121  49.125  1.00  0.00     0.000 C 
HETATM   31  C1  UNL     1      31.998   6.075  49.860  1.00  0.00     0.009 C 
ENDBRANCH  29  30
BRANCH  29  32
HETATM   32  N1  UNL     1      30.287   5.554  47.878  1.00  0.00     0.089 N 
HETATM   33  H5  UNL     1      29.289   5.253  47.727  1.00  0.00     0.313 HD
HETATM   34  H6  UNL     1      30.718   4.937  48.620  1.00  0.00     0.313 HD
ENDBRANCH  29  32
ENDBRANCH   1  29
TORSDOF 7
ENDMDL
MODEL 6
REMARK VINA RESULT:      -7.4      7.650      9.038
REMARK  7 active torsions:
REMARK  status: ('A' for Active; 'I' for Inactive)
REMARK    1  A    between atoms: C2_2  and  C3_3 
REMARK    2  A    between atoms: C3_3  and  N1_4 
REMARK    3  A    between atoms: C3_3  and  C4_5 
REMARK    4  A    between atoms: C9_12  and  C10_13 
REMARK    5  A    between atoms: C13_17  and  N4_19 
REMARK    6  A    between atoms: N4_19  and  C15_20 
REMARK    7  A    between atoms: C18_24  and  C19_25 
ROOT
HETATM    1  C4  UNL     1      28.697   9.573  48.757  1.00  0.00     0.095 C 
HETATM    2  C5  UNL     1      27.996   9.582  50.042  1.00  0.00     0.044 C 
HETATM    3  N2  UNL     1      27.843  10.386  47.741  1.00  0.00    -0.288 NA
HETATM    4  C6  UNL     1      28.341  11.135  46.859  1.00  0.00     0.113 C 
HETATM    5  C7  UNL     1      29.111  11.943  45.918  1.00  0.00     0.043 C 
HETATM    6  C8  UNL     1      30.416  12.231  45.685  1.00  0.00     0.138 C 
HETATM    7  O1  UNL     1      31.510  11.686  46.492  1.00  0.00    -0.339 OA
HETATM    8  C9  UNL     1      30.904  10.815  47.480  1.00  0.00     0.181 A 
HETATM    9  C10 UNL     1      30.272  11.721  48.260  1.00  0.00     0.067 A 
HETATM   10  C11 UNL     1      29.495  11.235  49.288  1.00  0.00    -0.031 A 
HETATM   11  C12 UNL     1      30.051  10.172  48.622  1.00  0.00     0.019 A 
HETATM   12  N3  UNL     1      30.762   9.509  47.747  1.00  0.00     0.000 N 
HETATM   13  C13 UNL     1      31.143   8.199  48.135  1.00  0.00     0.029 A 
HETATM   14  C14 UNL     1      30.862   9.004  49.186  1.00  0.00     0.075 A 
HETATM   15  C21 UNL     1      31.535   9.891  46.706  1.00  0.00     0.237 A 
HETATM   16  O2  UNL     1      32.116   9.187  45.979  1.00  0.00    -0.286 OA
ENDROOT
BRANCH  13  17
HETATM   17  N4  UNL     1      31.497   7.148  47.299  1.00  0.00    -0.380 N 
HETATM   18  H17 UNL     1      31.600   7.350  46.286  1.00  0.00     0.160 HD
BRANCH  17  19
HETATM   19  C15 UNL     1      31.651   5.956  48.032  1.00  0.00     0.130 A 
HETATM   20  C16 UNL     1      31.145   4.720  47.390  1.00  0.00     0.026 A 
HETATM   21  C17 UNL     1      32.114   3.797  47.270  1.00  0.00     0.047 A 
HETATM   22 CL1  UNL     1      32.122   2.159  46.598  1.00  0.00    -0.084 Cl
HETATM   23  C18 UNL     1      33.367   4.345  47.828  1.00  0.00     0.067 A 
HETATM   24  C20 UNL     1      33.081   5.572  48.255  1.00  0.00     0.020 A 
BRANCH  23  25
HETATM   25  C19 UNL     1      34.708   3.705  47.931  1.00  0.00     0.418 C 
HETATM   26  F1  UNL     1      35.278   3.624  46.683  1.00  0.00    -0.166 F 
HETATM   27  F2  UNL     1      35.546   4.566  48.660  1.00  0.00    -0.166 F 
HETATM   28  F3  UNL     1      34.632   2.514  48.595  1.00  0.00    -0.166 F 
ENDBRANCH  23  25
ENDBRANCH  17  19
ENDBRANCH  13  17
BRANCH   1  29
HETATM   29  C3  UNL     1      28.482   8.246  48.100  1.00  0.00     0.270 C 
BRANCH  29  30
HETATM   30  C2  UNL     1      27.141   8.369  47.284  1.00  0.00     0.000 C 
HETATM   31  C1  UNL     1      26.135   7.501  47.541  1.00  0.00     0.009 C 
ENDBRANCH  29  30
BRANCH  29  32
HETATM   32  N1  UNL     1      28.233   7.101  48.960  1.00  0.00     0.089 N 
HETATM   33  H5  UNL     1      27.396   6.605  48.556  1.00  0.00     0.313 HD
HETATM   34  H6  UNL     1      28.012   7.383  49.955  1.00  0.00     0.313 HD
ENDBRANCH  29  32
ENDBRANCH   1  29
TORSDOF 7
ENDMDL
MODEL 7
REMARK VINA RESULT:      -7.0      9.166     11.595
REMARK  7 active torsions:
REMARK  status: ('A' for Active; 'I' for Inactive)
REMARK    1  A    between atoms: C2_2  and  C3_3 
REMARK    2  A    between atoms: C3_3  and  N1_4 
REMARK    3  A    between atoms: C3_3  and  C4_5 
REMARK    4  A    between atoms: C9_12  and  C10_13 
REMARK    5  A    between atoms: C13_17  and  N4_19 
REMARK    6  A    between atoms: N4_19  and  C15_20 
REMARK    7  A    between atoms: C18_24  and  C19_25 
ROOT
HETATM    1  C4  UNL     1      33.577   7.598  46.935  1.00  0.00     0.095 C 
HETATM    2  C5  UNL     1      34.747   8.474  47.009  1.00  0.00     0.044 C 
HETATM    3  N2  UNL     1      33.729   6.705  45.669  1.00  0.00    -0.288 NA
HETATM    4  C6  UNL     1      33.376   5.497  45.626  1.00  0.00     0.113 C 
HETATM    5  C7  UNL     1      32.906   4.124  45.784  1.00  0.00     0.043 C 
HETATM    6  C8  UNL     1      32.385   3.354  46.772  1.00  0.00     0.138 C 
HETATM    7  O1  UNL     1      32.155   3.848  48.132  1.00  0.00    -0.339 OA
HETATM    8  C9  UNL     1      32.551   5.243  48.138  1.00  0.00     0.181 A 
HETATM    9  C10 UNL     1      33.890   5.126  47.999  1.00  0.00     0.067 A 
HETATM   10  C11 UNL     1      34.617   6.289  47.878  1.00  0.00    -0.031 A 
HETATM   11  C12 UNL     1      33.291   6.615  48.014  1.00  0.00     0.019 A 
HETATM   12  N3  UNL     1      32.001   6.466  48.168  1.00  0.00     0.000 N 
HETATM   13  C13 UNL     1      31.316   7.585  48.707  1.00  0.00     0.029 A 
HETATM   14  C14 UNL     1      32.635   7.573  49.010  1.00  0.00     0.075 A 
HETATM   15  C21 UNL     1      31.204   5.380  48.280  1.00  0.00     0.237 A 
HETATM   16  O2  UNL     1      30.044   5.380  48.402  1.00  0.00    -0.286 OA
ENDROOT
BRANCH  13  17
HETATM   17  N4  UNL     1      29.964   7.880  48.582  1.00  0.00    -0.380 N 
HETATM   18  H17 UNL     1      29.395   7.279  47.954  1.00  0.00     0.160 HD
BRANCH  17  19
HETATM   19  C15 UNL     1      29.619   8.993  49.371  1.00  0.00     0.130 A 
HETATM   20  C16 UNL     1      30.562  10.136  49.340  1.00  0.00     0.026 A 
HETATM   21  C17 UNL     1      29.950  11.267  48.949  1.00  0.00     0.047 A 
HETATM   22 CL1  UNL     1      30.536  12.922  48.721  1.00  0.00    -0.084 Cl
HETATM   23  C18 UNL     1      28.527  10.972  48.682  1.00  0.00     0.067 A 
HETATM   24  C20 UNL     1      28.362   9.674  48.927  1.00  0.00     0.020 A 
BRANCH  23  25
HETATM   25  C19 UNL     1      27.445  11.891  48.235  1.00  0.00     0.418 C 
HETATM   26  F1  UNL     1      26.224  11.388  48.613  1.00  0.00    -0.166 F 
HETATM   27  F2  UNL     1      27.578  13.097  48.945  1.00  0.00    -0.166 F 
HETATM   28  F3  UNL     1      27.555  12.163  46.901  1.00  0.00    -0.166 F 
ENDBRANCH  23  25
ENDBRANCH  17  19
ENDBRANCH  13  17
BRANCH   1  29
HETATM   29  C3  UNL     1      32.415   8.387  46.420  1.00  0.00     0.270 C 
BRANCH  29  30
HETATM   30  C2  UNL     1      32.277   8.024  44.894  1.00  0.00     0.000 C 
HETATM   31  C1  UNL     1      31.626   8.882  44.073  1.00  0.00     0.009 C 
ENDBRANCH  29  30
BRANCH  29  32
HETATM   32  N1  UNL     1      32.540   9.835  46.398  1.00  0.00     0.089 N 
HETATM   33  H5  UNL     1      33.450  10.045  45.912  1.00  0.00     0.313 HD
HETATM   34  H6  UNL     1      32.570  10.253  47.369  1.00  0.00     0.313 HD
ENDBRANCH  29  32
ENDBRANCH   1  29
TORSDOF 7
ENDMDL
MODEL 8
REMARK VINA RESULT:      -6.9      7.754     10.242
REMARK  7 active torsions:
REMARK  status: ('A' for Active; 'I' for Inactive)
REMARK    1  A    between atoms: C2_2  and  C3_3 
REMARK    2  A    between atoms: C3_3  and  N1_4 
REMARK    3  A    between atoms: C3_3  and  C4_5 
REMARK    4  A    between atoms: C9_12  and  C10_13 
REMARK    5  A    between atoms: C13_17  and  N4_19 
REMARK    6  A    between atoms: N4_19  and  C15_20 
REMARK    7  A    between atoms: C18_24  and  C19_25 
ROOT
HETATM    1  C4  UNL     1      32.731   8.073  47.003  1.00  0.00     0.095 C 
HETATM    2  C5  UNL     1      33.410   9.353  47.214  1.00  0.00     0.044 C 
HETATM    3  N2  UNL     1      33.662   7.176  46.136  1.00  0.00    -0.288 NA
HETATM    4  C6  UNL     1      33.779   5.933  46.303  1.00  0.00     0.113 C 
HETATM    5  C7  UNL     1      33.773   4.518  46.658  1.00  0.00     0.043 C 
HETATM    6  C8  UNL     1      33.191   3.725  47.593  1.00  0.00     0.138 C 
HETATM    7  O1  UNL     1      32.288   4.241  48.626  1.00  0.00    -0.339 OA
HETATM    8  C9  UNL     1      32.160   5.666  48.391  1.00  0.00     0.181 A 
HETATM    9  C10 UNL     1      33.399   6.090  48.724  1.00  0.00     0.067 A 
HETATM   10  C11 UNL     1      33.681   7.425  48.540  1.00  0.00    -0.031 A 
HETATM   11  C12 UNL     1      32.385   7.195  48.152  1.00  0.00     0.019 A 
HETATM   12  N3  UNL     1      31.270   6.552  47.919  1.00  0.00     0.000 N 
HETATM   13  C13 UNL     1      30.098   7.349  47.895  1.00  0.00     0.029 A 
HETATM   14  C14 UNL     1      31.109   7.913  48.596  1.00  0.00     0.075 A 
HETATM   15  C21 UNL     1      30.907   5.257  48.052  1.00  0.00     0.237 A 
HETATM   16  O2  UNL     1      29.866   4.798  47.791  1.00  0.00    -0.286 OA
ENDROOT
BRANCH  13  17
HETATM   17  N4  UNL     1      28.894   7.050  47.269  1.00  0.00    -0.380 N 
HETATM   18  H17 UNL     1      28.929   6.478  46.404  1.00  0.00     0.160 HD
BRANCH  17  19
HETATM   19  C15 UNL     1      27.811   7.613  47.972  1.00  0.00     0.130 A 
HETATM   20  C16 UNL     1      26.696   8.135  47.148  1.00  0.00     0.026 A 
HETATM   21  C17 UNL     1      25.530   7.551  47.474  1.00  0.00     0.047 A 
HETATM   22 CL1  UNL     1      23.883   7.751  46.856  1.00  0.00    -0.084 Cl
HETATM   23  C18 UNL     1      25.771   6.575  48.558  1.00  0.00     0.067 A 
HETATM   24  C20 UNL     1      27.074   6.627  48.824  1.00  0.00     0.020 A 
BRANCH  23  25
HETATM   25  C19 UNL     1      24.800   5.691  49.257  1.00  0.00     0.418 C 
HETATM   26  F1  UNL     1      25.448   4.972  50.232  1.00  0.00    -0.166 F 
HETATM   27  F2  UNL     1      23.889   6.506  49.950  1.00  0.00    -0.166 F 
HETATM   28  F3  UNL     1      24.102   4.928  48.364  1.00  0.00    -0.166 F 
ENDBRANCH  23  25
ENDBRANCH  17  19
ENDBRANCH  13  17
BRANCH   1  29
HETATM   29  C3  UNL     1      31.679   8.252  45.954  1.00  0.00     0.270 C 
BRANCH  29  30
HETATM   30  C2  UNL     1      32.338   7.820  44.591  1.00  0.00     0.000 C 
HETATM   31  C1  UNL     1      32.029   8.508  43.467  1.00  0.00     0.009 C 
ENDBRANCH  29  30
BRANCH  29  32
HETATM   32  N1  UNL     1      31.226   9.605  45.679  1.00  0.00     0.089 N 
HETATM   33  H5  UNL     1      30.945   9.622  44.665  1.00  0.00     0.313 HD
HETATM   34  H6  UNL     1      31.984  10.325  45.833  1.00  0.00     0.313 HD
ENDBRANCH  29  32
ENDBRANCH   1  29
TORSDOF 7
ENDMDL
MODEL 9
REMARK VINA RESULT:      -6.8     22.556     24.188
REMARK  7 active torsions:
REMARK  status: ('A' for Active; 'I' for Inactive)
REMARK    1  A    between atoms: C2_2  and  C3_3 
REMARK    2  A    between atoms: C3_3  and  N1_4 
REMARK    3  A    between atoms: C3_3  and  C4_5 
REMARK    4  A    between atoms: C9_12  and  C10_13 
REMARK    5  A    between atoms: C13_17  and  N4_19 
REMARK    6  A    between atoms: N4_19  and  C15_20 
REMARK    7  A    between atoms: C18_24  and  C19_25 
ROOT
HETATM    1  C4  UNL     1      38.604  -2.026  68.208  1.00  0.00     0.095 C 
HETATM    2  C5  UNL     1      37.568  -2.731  67.452  1.00  0.00     0.044 C 
HETATM    3  N2  UNL     1      39.899  -2.888  68.165  1.00  0.00    -0.288 NA
HETATM    4  C6  UNL     1      41.056  -2.398  68.074  1.00  0.00     0.113 C 
HETATM    5  C7  UNL     1      42.297  -1.638  67.967  1.00  0.00     0.043 C 
HETATM    6  C8  UNL     1      42.664  -0.336  67.852  1.00  0.00     0.138 C 
HETATM    7  O1  UNL     1      41.697   0.764  67.798  1.00  0.00    -0.339 OA
HETATM    8  C9  UNL     1      40.382   0.167  67.926  1.00  0.00     0.181 A 
HETATM    9  C10 UNL     1      40.283  -0.483  66.745  1.00  0.00     0.067 A 
HETATM   10  C11 UNL     1      39.163  -1.256  66.541  1.00  0.00    -0.031 A 
HETATM   11  C12 UNL     1      39.075  -0.681  67.783  1.00  0.00     0.019 A 
HETATM   12  N3  UNL     1      39.394   0.044  68.824  1.00  0.00     0.000 N 
HETATM   13  C13 UNL     1      38.309   0.445  69.646  1.00  0.00     0.029 A 
HETATM   14  C14 UNL     1      37.935   0.146  68.380  1.00  0.00     0.075 A 
HETATM   15  C21 UNL     1      40.464   0.815  69.119  1.00  0.00     0.237 A 
HETATM   16  O2  UNL     1      40.638   1.411  70.108  1.00  0.00    -0.286 OA
ENDROOT
BRANCH  13  17
HETATM   17  N4  UNL     1      38.364   0.818  70.983  1.00  0.00    -0.380 N 
HETATM   18  H17 UNL     1      39.090   0.375  71.579  1.00  0.00     0.160 HD
BRANCH  17  19
HETATM   19  C15 UNL     1      37.373   1.774  71.277  1.00  0.00     0.130 A 
HETATM   20  C16 UNL     1      37.186   2.106  72.709  1.00  0.00     0.026 A 
HETATM   21  C17 UNL     1      37.348   3.421  72.933  1.00  0.00     0.047 A 
HETATM   22 CL1  UNL     1      37.254   4.399  74.406  1.00  0.00    -0.084 Cl
HETATM   23  C18 UNL     1      37.662   4.089  71.653  1.00  0.00     0.067 A 
HETATM   24  C20 UNL     1      37.672   3.134  70.726  1.00  0.00     0.020 A 
BRANCH  23  25
HETATM   25  C19 UNL     1      37.918   5.530  71.384  1.00  0.00     0.418 C 
HETATM   26  F1  UNL     1      39.117   5.673  70.727  1.00  0.00    -0.166 F 
HETATM   27  F2  UNL     1      36.947   5.983  70.473  1.00  0.00    -0.166 F 
HETATM   28  F3  UNL     1      37.811   6.268  72.529  1.00  0.00    -0.166 F 
ENDBRANCH  23  25
ENDBRANCH  17  19
ENDBRANCH  13  17
BRANCH   1  29
HETATM   29  C3  UNL     1      38.349  -2.216  69.670  1.00  0.00     0.270 C 
BRANCH  29  30
HETATM   30  C2  UNL     1      39.204  -3.464  70.108  1.00  0.00     0.000 C 
HETATM   31  C1  UNL     1      38.885  -4.107  71.255  1.00  0.00     0.009 C 
ENDBRANCH  29  30
BRANCH  29  32
HETATM   32  N1  UNL     1      37.004  -2.588  70.076  1.00  0.00     0.089 N 
HETATM   33  H5  UNL     1      37.012  -3.633  70.203  1.00  0.00     0.313 HD
HETATM   34  H6  UNL     1      36.278  -2.341  69.348  1.00  0.00     0.313 HD
ENDBRANCH  29  32
ENDBRANCH   1  29
TORSDOF 7
ENDMDL
