MODEL 1
REMARK VINA RESULT:      -7.6      0.000      0.000
REMARK  7 active torsions:
REMARK  status: ('A' for Active; 'I' for Inactive)
REMARK    1  A    between atoms: C2_2  and  N1_3 
REMARK    2  A    between atoms: N1_3  and  C3_4 
REMARK    3  A    between atoms: C4_5  and  C5_6 
REMARK       I    between atoms: C5_6  and  N2_8 
REMARK    4  A    between atoms: N2_8  and  C6_9 
REMARK    5  A    between atoms: N3_14  and  P1_15 
REMARK    6  A    between atoms: C18_24  and  O2_25 
REMARK    7  A    between atoms: C20_27  and  O3_28 
ROOT
HETATM    1  C3  UNL     1      24.780   4.631  50.227  1.00  0.00     0.058 A 
HETATM    2  C4  UNL     1      26.027   4.765  49.652  1.00  0.00     0.076 A 
HETATM    3  C15 UNL     1      27.046   3.864  49.768  1.00  0.00     0.136 A 
HETATM    4  N4  UNL     1      26.780   2.781  50.502  1.00  0.00    -0.259 NA
HETATM    5  C16 UNL     1      25.620   2.544  51.103  1.00  0.00     0.071 A 
HETATM    6  C17 UNL     1      25.512   1.378  51.818  1.00  0.00     0.072 A 
HETATM    7  C18 UNL     1      24.336   1.074  52.462  1.00  0.00     0.103 A 
HETATM    8  C20 UNL     1      23.272   1.982  52.363  1.00  0.00     0.102 A 
HETATM    9  C22 UNL     1      23.433   3.157  51.621  1.00  0.00     0.055 A 
HETATM   10  C23 UNL     1      24.605   3.464  50.976  1.00  0.00     0.023 A 
ENDROOT
BRANCH   2  11
HETATM   11  C5  UNL     1      26.194   5.929  48.853  1.00  0.00     0.255 C 
HETATM   12  O1  UNL     1      25.697   6.813  48.061  1.00  0.00    -0.268 OA
HETATM   13  N2  UNL     1      27.506   6.556  48.789  1.00  0.00    -0.352 N 
HETATM   14  H5  UNL     1      28.379   6.234  49.301  1.00  0.00     0.163 HD
BRANCH  13  15
HETATM   15  C6  UNL     1      28.122   7.683  48.144  1.00  0.00     0.088 C 
HETATM   16  C7  UNL     1      28.835   8.550  49.156  1.00  0.00     0.050 C 
HETATM   17  C8  UNL     1      29.926   9.344  48.470  1.00  0.00     0.012 C 
HETATM   18  C9  UNL     1      30.552  10.202  49.548  1.00  0.00     0.032 C 
HETATM   19  C10 UNL     1      29.407  10.242  47.396  1.00  0.00     0.032 C 
HETATM   20  N3  UNL     1      30.904   8.398  47.999  1.00  0.00    -0.278 NA
HETATM   21  C11 UNL     1      30.403   7.428  47.064  1.00  0.00     0.012 C 
HETATM   22  C12 UNL     1      30.948   7.845  45.693  1.00  0.00     0.032 C 
HETATM   23  C13 UNL     1      31.010   6.054  47.329  1.00  0.00     0.032 C 
HETATM   24  C14 UNL     1      28.930   7.312  46.952  1.00  0.00     0.050 C 
BRANCH  20  25
HETATM   25  P1  UNL     1      31.748   7.585  49.369  1.00  0.00    -0.065 P 
HETATM   26  H15 UNL     1      30.837   6.721  50.109  1.00  0.00     0.071 HD
HETATM   27  H16 UNL     1      32.307   8.585  50.269  1.00  0.00     0.071 HD
ENDBRANCH  20  25
ENDBRANCH  13  15
ENDBRANCH   2  11
BRANCH   1  28
HETATM   28  N1  UNL     1      23.701   5.541  50.124  1.00  0.00    -0.388 N 
HETATM   29  H4  UNL     1      22.964   5.401  49.403  1.00  0.00     0.159 HD
BRANCH  28  30
HETATM   30  C2  UNL     1      23.757   6.615  51.087  1.00  0.00     0.062 C 
HETATM   31  C1  UNL     1      23.755   7.896  50.837  1.00  0.00     0.079 C 
ENDBRANCH  28  30
ENDBRANCH   1  28
BRANCH   8  32
HETATM   32  O3  UNL     1      22.049   1.769  52.976  1.00  0.00    -0.353 OA
HETATM   33  C21 UNL     1      20.886   2.239  52.347  1.00  0.00     0.210 C 
ENDBRANCH   8  32
BRANCH   7  34
HETATM   34  O2  UNL     1      24.006  -0.047  53.229  1.00  0.00    -0.353 OA
HETATM   35  C19 UNL     1      24.907  -0.600  54.190  1.00  0.00     0.210 C 
ENDBRANCH   7  34
TORSDOF 7
ENDMDL
MODEL 2
REMARK VINA RESULT:      -7.4      5.391      7.404
REMARK  7 active torsions:
REMARK  status: ('A' for Active; 'I' for Inactive)
REMARK    1  A    between atoms: C2_2  and  N1_3 
REMARK    2  A    between atoms: N1_3  and  C3_4 
REMARK    3  A    between atoms: C4_5  and  C5_6 
REMARK       I    between atoms: C5_6  and  N2_8 
REMARK    4  A    between atoms: N2_8  and  C6_9 
REMARK    5  A    between atoms: N3_14  and  P1_15 
REMARK    6  A    between atoms: C18_24  and  O2_25 
REMARK    7  A    between atoms: C20_27  and  O3_28 
ROOT
HETATM    1  C3  UNL     1      23.703   2.413  52.942  1.00  0.00     0.058 A 
HETATM    2  C4  UNL     1      22.561   1.724  52.589  1.00  0.00     0.076 A 
HETATM    3  C15 UNL     1      22.433   0.364  52.587  1.00  0.00     0.136 A 
HETATM    4  N4  UNL     1      23.517  -0.320  52.962  1.00  0.00    -0.259 NA
HETATM    5  C16 UNL     1      24.670   0.233  53.323  1.00  0.00     0.071 A 
HETATM    6  C17 UNL     1      25.685  -0.616  53.684  1.00  0.00     0.072 A 
HETATM    7  C18 UNL     1      26.902  -0.105  54.069  1.00  0.00     0.103 A 
HETATM    8  C20 UNL     1      27.065   1.287  54.077  1.00  0.00     0.102 A 
HETATM    9  C22 UNL     1      25.997   2.110  53.700  1.00  0.00     0.055 A 
HETATM   10  C23 UNL     1      24.780   1.605  53.316  1.00  0.00     0.023 A 
ENDROOT
BRANCH   2  11
HETATM   11  C5  UNL     1      21.450   2.543  52.250  1.00  0.00     0.255 C 
HETATM   12  O1  UNL     1      20.408   3.207  52.611  1.00  0.00    -0.268 OA
HETATM   13  N2  UNL     1      21.240   2.902  50.855  1.00  0.00    -0.352 N 
HETATM   14  H5  UNL     1      21.855   2.619  50.037  1.00  0.00     0.163 HD
BRANCH  13  15
HETATM   15  C6  UNL     1      20.302   3.663  50.077  1.00  0.00     0.088 C 
HETATM   16  C7  UNL     1      20.697   5.121  50.044  1.00  0.00     0.050 C 
HETATM   17  C8  UNL     1      20.112   5.782  48.815  1.00  0.00     0.012 C 
HETATM   18  C9  UNL     1      20.526   7.235  48.890  1.00  0.00     0.032 C 
HETATM   19  C10 UNL     1      18.620   5.720  48.772  1.00  0.00     0.032 C 
HETATM   20  N3  UNL     1      20.741   5.176  47.670  1.00  0.00    -0.278 NA
HETATM   21  C11 UNL     1      20.539   3.758  47.553  1.00  0.00     0.012 C 
HETATM   22  C12 UNL     1      19.531   3.568  46.414  1.00  0.00     0.032 C 
HETATM   23  C13 UNL     1      21.812   3.066  47.073  1.00  0.00     0.032 C 
HETATM   24  C14 UNL     1      20.011   3.060  48.749  1.00  0.00     0.050 C 
BRANCH  20  25
HETATM   25  P1  UNL     1      22.496   5.578  47.591  1.00  0.00    -0.065 P 
HETATM   26  H15 UNL     1      22.703   7.021  47.570  1.00  0.00     0.071 HD
HETATM   27  H16 UNL     1      23.086   4.986  46.398  1.00  0.00     0.071 HD
ENDBRANCH  20  25
ENDBRANCH  13  15
ENDBRANCH   2  11
BRANCH   1  28
HETATM   28  N1  UNL     1      23.869   3.818  52.960  1.00  0.00    -0.388 N 
HETATM   29  H4  UNL     1      23.838   4.339  53.859  1.00  0.00     0.159 HD
BRANCH  28  30
HETATM   30  C2  UNL     1      24.074   4.391  51.650  1.00  0.00     0.062 C 
HETATM   31  C1  UNL     1      24.766   3.882  50.669  1.00  0.00     0.079 C 
ENDBRANCH  28  30
ENDBRANCH   1  28
BRANCH   8  32
HETATM   32  O3  UNL     1      28.251   1.899  54.446  1.00  0.00    -0.353 OA
HETATM   33  C21 UNL     1      28.992   2.583  53.470  1.00  0.00     0.210 C 
ENDBRANCH   8  32
BRANCH   7  34
HETATM   34  O2  UNL     1      28.058  -0.775  54.480  1.00  0.00    -0.353 OA
HETATM   35  C19 UNL     1      29.027  -1.257  53.547  1.00  0.00     0.210 C 
ENDBRANCH   7  34
TORSDOF 7
ENDMDL
MODEL 3
REMARK VINA RESULT:      -7.3      4.509      6.215
REMARK  7 active torsions:
REMARK  status: ('A' for Active; 'I' for Inactive)
REMARK    1  A    between atoms: C2_2  and  N1_3 
REMARK    2  A    between atoms: N1_3  and  C3_4 
REMARK    3  A    between atoms: C4_5  and  C5_6 
REMARK       I    between atoms: C5_6  and  N2_8 
REMARK    4  A    between atoms: N2_8  and  C6_9 
REMARK    5  A    between atoms: N3_14  and  P1_15 
REMARK    6  A    between atoms: C18_24  and  O2_25 
REMARK    7  A    between atoms: C20_27  and  O3_28 
ROOT
HETATM    1  C3  UNL     1      23.364   1.407  51.560  1.00  0.00     0.058 A 
HETATM    2  C4  UNL     1      23.699   2.364  50.624  1.00  0.00     0.076 A 
HETATM    3  C15 UNL     1      24.936   2.923  50.481  1.00  0.00     0.136 A 
HETATM    4  N4  UNL     1      25.870   2.486  51.329  1.00  0.00    -0.259 NA
HETATM    5  C16 UNL     1      25.667   1.571  52.268  1.00  0.00     0.071 A 
HETATM    6  C17 UNL     1      26.738   1.232  53.055  1.00  0.00     0.072 A 
HETATM    7  C18 UNL     1      26.592   0.289  54.045  1.00  0.00     0.103 A 
HETATM    8  C20 UNL     1      25.331  -0.300  54.219  1.00  0.00     0.102 A 
HETATM    9  C22 UNL     1      24.271   0.080  53.389  1.00  0.00     0.055 A 
HETATM   10  C23 UNL     1      24.412   1.020  52.399  1.00  0.00     0.023 A 
ENDROOT
BRANCH   2  11
HETATM   11  C5  UNL     1      22.646   2.729  49.740  1.00  0.00     0.255 C 
HETATM   12  O1  UNL     1      21.600   2.404  49.066  1.00  0.00    -0.268 OA
HETATM   13  N2  UNL     1      22.565   4.105  49.273  1.00  0.00    -0.352 N 
HETATM   14  H5  UNL     1      23.222   4.896  49.539  1.00  0.00     0.163 HD
BRANCH  13  15
HETATM   15  C6  UNL     1      21.727   4.894  48.413  1.00  0.00     0.088 C 
HETATM   16  C7  UNL     1      20.972   5.931  49.212  1.00  0.00     0.050 C 
HETATM   17  C8  UNL     1      20.583   7.085  48.315  1.00  0.00     0.012 C 
HETATM   18  C9  UNL     1      19.806   8.045  49.189  1.00  0.00     0.032 C 
HETATM   19  C10 UNL     1      19.709   6.672  47.177  1.00  0.00     0.032 C 
HETATM   20  N3  UNL     1      21.805   7.722  47.894  1.00  0.00    -0.278 NA
HETATM   21  C11 UNL     1      22.705   6.873  47.164  1.00  0.00     0.012 C 
HETATM   22  C12 UNL     1      22.611   7.319  45.700  1.00  0.00     0.032 C 
HETATM   23  C13 UNL     1      24.152   7.143  47.567  1.00  0.00     0.032 C 
HETATM   24  C14 UNL     1      22.435   5.417  47.215  1.00  0.00     0.050 C 
BRANCH  20  25
HETATM   25  P1  UNL     1      22.650   8.508  49.278  1.00  0.00    -0.065 P 
HETATM   26  H15 UNL     1      23.112   7.517  50.242  1.00  0.00     0.071 HD
HETATM   27  H16 UNL     1      21.751   9.445  49.939  1.00  0.00     0.071 HD
ENDBRANCH  20  25
ENDBRANCH  13  15
ENDBRANCH   2  11
BRANCH   1  28
HETATM   28  N1  UNL     1      22.095   0.804  51.733  1.00  0.00    -0.388 N 
HETATM   29  H4  UNL     1      21.826  -0.024  51.165  1.00  0.00     0.159 HD
BRANCH  28  30
HETATM   30  C2  UNL     1      21.282   1.449  52.737  1.00  0.00     0.062 C 
HETATM   31  C1  UNL     1      20.326   2.314  52.538  1.00  0.00     0.079 C 
ENDBRANCH  28  30
ENDBRANCH   1  28
BRANCH   8  32
HETATM   32  O3  UNL     1      25.081  -1.257  55.188  1.00  0.00    -0.353 OA
HETATM   33  C21 UNL     1      23.769  -1.412  55.662  1.00  0.00     0.210 C 
ENDBRANCH   8  32
BRANCH   7  34
HETATM   34  O2  UNL     1      27.537  -0.209  54.946  1.00  0.00    -0.353 OA
HETATM   35  C19 UNL     1      28.942  -0.089  54.713  1.00  0.00     0.210 C 
ENDBRANCH   7  34
TORSDOF 7
ENDMDL
MODEL 4
REMARK VINA RESULT:      -7.3      2.590      4.056
REMARK  7 active torsions:
REMARK  status: ('A' for Active; 'I' for Inactive)
REMARK    1  A    between atoms: C2_2  and  N1_3 
REMARK    2  A    between atoms: N1_3  and  C3_4 
REMARK    3  A    between atoms: C4_5  and  C5_6 
REMARK       I    between atoms: C5_6  and  N2_8 
REMARK    4  A    between atoms: N2_8  and  C6_9 
REMARK    5  A    between atoms: N3_14  and  P1_15 
REMARK    6  A    between atoms: C18_24  and  O2_25 
REMARK    7  A    between atoms: C20_27  and  O3_28 
ROOT
HETATM    1  C3  UNL     1      26.915   6.932  48.335  1.00  0.00     0.058 A 
HETATM    2  C4  UNL     1      28.180   6.408  48.167  1.00  0.00     0.076 A 
HETATM    3  C15 UNL     1      28.540   5.120  48.440  1.00  0.00     0.136 A 
HETATM    4  N4  UNL     1      27.566   4.333  48.903  1.00  0.00    -0.259 NA
HETATM    5  C16 UNL     1      26.313   4.723  49.105  1.00  0.00     0.071 A 
HETATM    6  C17 UNL     1      25.434   3.785  49.583  1.00  0.00     0.072 A 
HETATM    7  C18 UNL     1      24.122   4.127  49.812  1.00  0.00     0.103 A 
HETATM    8  C20 UNL     1      23.724   5.445  49.545  1.00  0.00     0.102 A 
HETATM    9  C22 UNL     1      24.660   6.364  49.057  1.00  0.00     0.055 A 
HETATM   10  C23 UNL     1      25.970   6.027  48.826  1.00  0.00     0.023 A 
ENDROOT
BRANCH   2  11
HETATM   11  C5  UNL     1      29.134   7.314  47.626  1.00  0.00     0.255 C 
HETATM   12  O1  UNL     1      29.421   8.481  47.168  1.00  0.00    -0.268 OA
HETATM   13  N2  UNL     1      30.503   6.859  47.430  1.00  0.00    -0.352 N 
HETATM   14  H5  UNL     1      30.882   5.897  47.665  1.00  0.00     0.163 HD
BRANCH  13  15
HETATM   15  C6  UNL     1      31.743   7.388  46.935  1.00  0.00     0.088 C 
HETATM   16  C7  UNL     1      32.816   7.311  47.996  1.00  0.00     0.050 C 
HETATM   17  C8  UNL     1      34.181   7.294  47.343  1.00  0.00     0.012 C 
HETATM   18  C9  UNL     1      35.182   7.254  48.478  1.00  0.00     0.032 C 
HETATM   19  C10 UNL     1      34.451   8.511  46.521  1.00  0.00     0.032 C 
HETATM   20  N3  UNL     1      34.276   6.067  46.594  1.00  0.00    -0.278 NA
HETATM   21  C11 UNL     1      33.287   5.914  45.563  1.00  0.00     0.012 C 
HETATM   22  C12 UNL     1      34.021   6.141  44.237  1.00  0.00     0.032 C 
HETATM   23  C13 UNL     1      32.789   4.473  45.497  1.00  0.00     0.032 C 
HETATM   24  C14 UNL     1      32.131   6.841  45.607  1.00  0.00     0.050 C 
BRANCH  20  25
HETATM   25  P1  UNL     1      34.292   4.630  47.681  1.00  0.00    -0.065 P 
HETATM   26  H15 UNL     1      33.834   3.437  46.980  1.00  0.00     0.071 HD
HETATM   27  H16 UNL     1      33.435   4.872  48.834  1.00  0.00     0.071 HD
ENDBRANCH  20  25
ENDBRANCH  13  15
ENDBRANCH   2  11
BRANCH   1  28
HETATM   28  N1  UNL     1      26.507   8.258  48.059  1.00  0.00    -0.388 N 
HETATM   29  H4  UNL     1      26.305   8.552  47.082  1.00  0.00     0.159 HD
BRANCH  28  30
HETATM   30  C2  UNL     1      26.414   9.090  49.235  1.00  0.00     0.062 C 
HETATM   31  C1  UNL     1      27.295   9.201  50.191  1.00  0.00     0.079 C 
ENDBRANCH  28  30
ENDBRANCH   1  28
BRANCH   8  32
HETATM   32  O3  UNL     1      22.428   5.889  49.743  1.00  0.00    -0.353 OA
HETATM   33  C21 UNL     1      22.147   6.676  50.871  1.00  0.00     0.210 C 
ENDBRANCH   8  32
BRANCH   7  34
HETATM   34  O2  UNL     1      23.067   3.341  50.283  1.00  0.00    -0.353 OA
HETATM   35  C19 UNL     1      23.043   2.821  51.614  1.00  0.00     0.210 C 
ENDBRANCH   7  34
TORSDOF 7
ENDMDL
MODEL 5
REMARK VINA RESULT:      -7.2      3.434      5.416
REMARK  7 active torsions:
REMARK  status: ('A' for Active; 'I' for Inactive)
REMARK    1  A    between atoms: C2_2  and  N1_3 
REMARK    2  A    between atoms: N1_3  and  C3_4 
REMARK    3  A    between atoms: C4_5  and  C5_6 
REMARK       I    between atoms: C5_6  and  N2_8 
REMARK    4  A    between atoms: N2_8  and  C6_9 
REMARK    5  A    between atoms: N3_14  and  P1_15 
REMARK    6  A    between atoms: C18_24  and  O2_25 
REMARK    7  A    between atoms: C20_27  and  O3_28 
ROOT
HETATM    1  C3  UNL     1      23.795   1.751  51.669  1.00  0.00     0.058 A 
HETATM    2  C4  UNL     1      23.558   2.344  50.445  1.00  0.00     0.076 A 
HETATM    3  C15 UNL     1      22.390   2.257  49.744  1.00  0.00     0.136 A 
HETATM    4  N4  UNL     1      21.423   1.535  50.315  1.00  0.00    -0.259 NA
HETATM    5  C16 UNL     1      21.535   0.919  51.487  1.00  0.00     0.071 A 
HETATM    6  C17 UNL     1      20.442   0.220  51.933  1.00  0.00     0.072 A 
HETATM    7  C18 UNL     1      20.494  -0.438  53.139  1.00  0.00     0.103 A 
HETATM    8  C20 UNL     1      21.682  -0.370  53.881  1.00  0.00     0.102 A 
HETATM    9  C22 UNL     1      22.768   0.357  53.381  1.00  0.00     0.055 A 
HETATM   10  C23 UNL     1      22.721   1.016  52.179  1.00  0.00     0.023 A 
ENDROOT
BRANCH   2  11
HETATM   11  C5  UNL     1      24.632   3.128  49.944  1.00  0.00     0.255 C 
HETATM   12  O1  UNL     1      25.887   3.259  49.691  1.00  0.00    -0.268 OA
HETATM   13  N2  UNL     1      24.350   4.457  49.421  1.00  0.00    -0.352 N 
HETATM   14  H5  UNL     1      23.395   4.915  49.361  1.00  0.00     0.163 HD
BRANCH  13  15
HETATM   15  C6  UNL     1      25.076   5.555  48.846  1.00  0.00     0.088 C 
HETATM   16  C7  UNL     1      24.274   6.202  47.741  1.00  0.00     0.050 C 
HETATM   17  C8  UNL     1      24.724   7.635  47.554  1.00  0.00     0.012 C 
HETATM   18  C9  UNL     1      23.897   8.182  46.411  1.00  0.00     0.032 C 
HETATM   19  C10 UNL     1      26.167   7.751  47.187  1.00  0.00     0.032 C 
HETATM   20  N3  UNL     1      24.383   8.345  48.759  1.00  0.00    -0.278 NA
HETATM   21  C11 UNL     1      24.999   7.836  49.953  1.00  0.00     0.012 C 
HETATM   22  C12 UNL     1      26.097   8.842  50.322  1.00  0.00     0.032 C 
HETATM   23  C13 UNL     1      24.024   7.869  51.125  1.00  0.00     0.032 C 
HETATM   24  C14 UNL     1      25.624   6.495  49.860  1.00  0.00     0.050 C 
BRANCH  20  25
HETATM   25  P1  UNL     1      22.597   8.470  48.969  1.00  0.00    -0.065 P 
HETATM   26  H15 UNL     1      22.212   8.227  50.353  1.00  0.00     0.071 HD
HETATM   27  H16 UNL     1      21.929   7.507  48.104  1.00  0.00     0.071 HD
ENDBRANCH  20  25
ENDBRANCH  13  15
ENDBRANCH   2  11
BRANCH   1  28
HETATM   28  N1  UNL     1      24.989   1.823  52.424  1.00  0.00    -0.388 N 
HETATM   29  H4  UNL     1      25.110   2.565  53.143  1.00  0.00     0.159 HD
BRANCH  28  30
HETATM   30  C2  UNL     1      25.948   0.798  52.087  1.00  0.00     0.062 C 
HETATM   31  C1  UNL     1      26.301  -0.220  52.822  1.00  0.00     0.079 C 
ENDBRANCH  28  30
ENDBRANCH   1  28
BRANCH   8  32
HETATM   32  O3  UNL     1      21.835  -0.999  55.105  1.00  0.00    -0.353 OA
HETATM   33  C21 UNL     1      23.081  -1.560  55.426  1.00  0.00     0.210 C 
ENDBRANCH   8  32
BRANCH   7  34
HETATM   34  O2  UNL     1      19.510  -1.194  53.783  1.00  0.00    -0.353 OA
HETATM   35  C19 UNL     1      18.182  -1.304  53.269  1.00  0.00     0.210 C 
ENDBRANCH   7  34
TORSDOF 7
ENDMDL
MODEL 6
REMARK VINA RESULT:      -7.1      6.304      7.917
REMARK  7 active torsions:
REMARK  status: ('A' for Active; 'I' for Inactive)
REMARK    1  A    between atoms: C2_2  and  N1_3 
REMARK    2  A    between atoms: N1_3  and  C3_4 
REMARK    3  A    between atoms: C4_5  and  C5_6 
REMARK       I    between atoms: C5_6  and  N2_8 
REMARK    4  A    between atoms: N2_8  and  C6_9 
REMARK    5  A    between atoms: N3_14  and  P1_15 
REMARK    6  A    between atoms: C18_24  and  O2_25 
REMARK    7  A    between atoms: C20_27  and  O3_28 
ROOT
HETATM    1  C3  UNL     1      22.873   1.203  52.479  1.00  0.00     0.058 A 
HETATM    2  C4  UNL     1      22.461   2.516  52.373  1.00  0.00     0.076 A 
HETATM    3  C15 UNL     1      23.222   3.605  52.686  1.00  0.00     0.136 A 
HETATM    4  N4  UNL     1      24.456   3.343  53.126  1.00  0.00    -0.259 NA
HETATM    5  C16 UNL     1      24.961   2.123  53.268  1.00  0.00     0.071 A 
HETATM    6  C17 UNL     1      26.250   2.030  53.730  1.00  0.00     0.072 A 
HETATM    7  C18 UNL     1      26.831   0.795  53.898  1.00  0.00     0.103 A 
HETATM    8  C20 UNL     1      26.072  -0.343  53.588  1.00  0.00     0.102 A 
HETATM    9  C22 UNL     1      24.762  -0.193  53.120  1.00  0.00     0.055 A 
HETATM   10  C23 UNL     1      24.178   1.037  52.949  1.00  0.00     0.023 A 
ENDROOT
BRANCH   2  11
HETATM   11  C5  UNL     1      21.150   2.691  51.853  1.00  0.00     0.255 C 
HETATM   12  O1  UNL     1      19.884   2.471  51.935  1.00  0.00    -0.268 OA
HETATM   13  N2  UNL     1      20.972   3.476  50.640  1.00  0.00    -0.352 N 
HETATM   14  H5  UNL     1      21.741   3.959  50.089  1.00  0.00     0.163 HD
BRANCH  13  15
HETATM   15  C6  UNL     1      19.895   3.896  49.787  1.00  0.00     0.088 C 
HETATM   16  C7  UNL     1      19.839   5.404  49.706  1.00  0.00     0.050 C 
HETATM   17  C8  UNL     1      19.153   5.822  48.423  1.00  0.00     0.012 C 
HETATM   18  C9  UNL     1      19.111   7.334  48.450  1.00  0.00     0.032 C 
HETATM   19  C10 UNL     1      17.753   5.314  48.317  1.00  0.00     0.032 C 
HETATM   20  N3  UNL     1      19.997   5.398  47.336  1.00  0.00    -0.278 NA
HETATM   21  C11 UNL     1      20.234   3.982  47.274  1.00  0.00     0.012 C 
HETATM   22  C12 UNL     1      19.393   3.464  46.101  1.00  0.00     0.032 C 
HETATM   23  C13 UNL     1      21.679   3.689  46.883  1.00  0.00     0.032 C 
HETATM   24  C14 UNL     1      19.872   3.194  48.476  1.00  0.00     0.050 C 
BRANCH  20  25
HETATM   25  P1  UNL     1      21.554   6.305  47.316  1.00  0.00    -0.065 P 
HETATM   26  H15 UNL     1      22.620   5.534  47.944  1.00  0.00     0.071 HD
HETATM   27  H16 UNL     1      21.397   7.573  48.017  1.00  0.00     0.071 HD
ENDBRANCH  20  25
ENDBRANCH  13  15
ENDBRANCH   2  11
BRANCH   1  28
HETATM   28  N1  UNL     1      22.114   0.053  52.159  1.00  0.00    -0.388 N 
HETATM   29  H4  UNL     1      22.212  -0.398  51.227  1.00  0.00     0.159 HD
BRANCH  28  30
HETATM   30  C2  UNL     1      21.245  -0.380  53.228  1.00  0.00     0.062 C 
HETATM   31  C1  UNL     1      21.490  -1.306  54.114  1.00  0.00     0.079 C 
ENDBRANCH  28  30
ENDBRANCH   1  28
BRANCH   8  32
HETATM   32  O3  UNL     1      26.564  -1.629  53.725  1.00  0.00    -0.353 OA
HETATM   33  C21 UNL     1      27.084  -2.279  52.594  1.00  0.00     0.210 C 
ENDBRANCH   8  32
BRANCH   7  34
HETATM   34  O2  UNL     1      28.116   0.469  54.341  1.00  0.00    -0.353 OA
HETATM   35  C19 UNL     1      29.289   0.962  53.691  1.00  0.00     0.210 C 
ENDBRANCH   7  34
TORSDOF 7
ENDMDL
MODEL 7
REMARK VINA RESULT:      -7.1      4.010      5.758
REMARK  7 active torsions:
REMARK  status: ('A' for Active; 'I' for Inactive)
REMARK    1  A    between atoms: C2_2  and  N1_3 
REMARK    2  A    between atoms: N1_3  and  C3_4 
REMARK    3  A    between atoms: C4_5  and  C5_6 
REMARK       I    between atoms: C5_6  and  N2_8 
REMARK    4  A    between atoms: N2_8  and  C6_9 
REMARK    5  A    between atoms: N3_14  and  P1_15 
REMARK    6  A    between atoms: C18_24  and  O2_25 
REMARK    7  A    between atoms: C20_27  and  O3_28 
ROOT
HETATM    1  C3  UNL     1      24.690   3.573  51.529  1.00  0.00     0.058 A 
HETATM    2  C4  UNL     1      23.753   4.565  51.330  1.00  0.00     0.076 A 
HETATM    3  C15 UNL     1      22.428   4.469  51.643  1.00  0.00     0.136 A 
HETATM    4  N4  UNL     1      22.043   3.309  52.182  1.00  0.00    -0.259 NA
HETATM    5  C16 UNL     1      22.853   2.284  52.420  1.00  0.00     0.071 A 
HETATM    6  C17 UNL     1      22.296   1.164  52.983  1.00  0.00     0.072 A 
HETATM    7  C18 UNL     1      23.081   0.069  53.256  1.00  0.00     0.103 A 
HETATM    8  C20 UNL     1      24.446   0.138  52.943  1.00  0.00     0.102 A 
HETATM    9  C22 UNL     1      24.966   1.304  52.370  1.00  0.00     0.055 A 
HETATM   10  C23 UNL     1      24.186   2.399  52.097  1.00  0.00     0.023 A 
ENDROOT
BRANCH   2  11
HETATM   11  C5  UNL     1      24.270   5.776  50.794  1.00  0.00     0.255 C 
HETATM   12  O1  UNL     1      25.156   6.710  50.813  1.00  0.00    -0.268 OA
HETATM   13  N2  UNL     1      23.585   6.398  49.670  1.00  0.00    -0.352 N 
HETATM   14  H5  UNL     1      22.718   6.027  49.183  1.00  0.00     0.163 HD
BRANCH  13  15
HETATM   15  C6  UNL     1      23.728   7.565  48.845  1.00  0.00     0.088 C 
HETATM   16  C7  UNL     1      23.729   7.185  47.382  1.00  0.00     0.050 C 
HETATM   17  C8  UNL     1      23.291   8.368  46.546  1.00  0.00     0.012 C 
HETATM   18  C9  UNL     1      23.361   7.905  45.107  1.00  0.00     0.032 C 
HETATM   19  C10 UNL     1      24.182   9.556  46.701  1.00  0.00     0.032 C 
HETATM   20  N3  UNL     1      21.917   8.637  46.884  1.00  0.00    -0.278 NA
HETATM   21  C11 UNL     1      21.689   8.959  48.265  1.00  0.00     0.012 C 
HETATM   22  C12 UNL     1      21.425  10.469  48.309  1.00  0.00     0.032 C 
HETATM   23  C13 UNL     1      20.399   8.318  48.766  1.00  0.00     0.032 C 
HETATM   24  C14 UNL     1      22.794   8.663  49.209  1.00  0.00     0.050 C 
BRANCH  20  25
HETATM   25  P1  UNL     1      20.832   7.299  46.354  1.00  0.00    -0.065 P 
HETATM   26  H15 UNL     1      20.171   7.626  45.097  1.00  0.00     0.071 HD
HETATM   27  H16 UNL     1      19.828   7.042  47.377  1.00  0.00     0.071 HD
ENDBRANCH  20  25
ENDBRANCH  13  15
ENDBRANCH   2  11
BRANCH   1  28
HETATM   28  N1  UNL     1      26.070   3.641  51.222  1.00  0.00    -0.388 N 
HETATM   29  H4  UNL     1      26.767   3.815  51.974  1.00  0.00     0.159 HD
BRANCH  28  30
HETATM   30  C2  UNL     1      26.359   3.448  49.821  1.00  0.00     0.062 C 
HETATM   31  C1  UNL     1      27.070   4.225  49.051  1.00  0.00     0.079 C 
ENDBRANCH  28  30
ENDBRANCH   1  28
BRANCH   8  32
HETATM   32  O3  UNL     1      25.320  -0.910  53.176  1.00  0.00    -0.353 OA
HETATM   33  C21 UNL     1      26.634  -0.816  52.692  1.00  0.00     0.210 C 
ENDBRANCH   8  32
BRANCH   7  34
HETATM   34  O2  UNL     1      22.731  -1.157  53.828  1.00  0.00    -0.353 OA
HETATM   35  C19 UNL     1      21.461  -1.369  54.447  1.00  0.00     0.210 C 
ENDBRANCH   7  34
TORSDOF 7
ENDMDL
MODEL 8
REMARK VINA RESULT:      -6.9      3.676      8.620
REMARK  7 active torsions:
REMARK  status: ('A' for Active; 'I' for Inactive)
REMARK    1  A    between atoms: C2_2  and  N1_3 
REMARK    2  A    between atoms: N1_3  and  C3_4 
REMARK    3  A    between atoms: C4_5  and  C5_6 
REMARK       I    between atoms: C5_6  and  N2_8 
REMARK    4  A    between atoms: N2_8  and  C6_9 
REMARK    5  A    between atoms: N3_14  and  P1_15 
REMARK    6  A    between atoms: C18_24  and  O2_25 
REMARK    7  A    between atoms: C20_27  and  O3_28 
ROOT
HETATM    1  C3  UNL     1      29.860   7.539  48.930  1.00  0.00     0.058 A 
HETATM    2  C4  UNL     1      28.711   6.827  48.650  1.00  0.00     0.076 A 
HETATM    3  C15 UNL     1      28.677   5.556  48.154  1.00  0.00     0.136 A 
HETATM    4  N4  UNL     1      29.865   4.987  47.935  1.00  0.00    -0.259 NA
HETATM    5  C16 UNL     1      31.034   5.572  48.166  1.00  0.00     0.071 A 
HETATM    6  C17 UNL     1      32.164   4.845  47.888  1.00  0.00     0.072 A 
HETATM    7  C18 UNL     1      33.405   5.395  48.106  1.00  0.00     0.103 A 
HETATM    8  C20 UNL     1      33.473   6.701  48.612  1.00  0.00     0.102 A 
HETATM    9  C22 UNL     1      32.290   7.400  48.879  1.00  0.00     0.055 A 
HETATM   10  C23 UNL     1      31.049   6.856  48.664  1.00  0.00     0.023 A 
ENDROOT
BRANCH   2  11
HETATM   11  C5  UNL     1      27.499   7.503  48.960  1.00  0.00     0.255 C 
HETATM   12  O1  UNL     1      26.825   8.597  49.033  1.00  0.00    -0.268 OA
HETATM   13  N2  UNL     1      26.366   6.729  49.445  1.00  0.00    -0.352 N 
HETATM   14  H5  UNL     1      26.342   5.677  49.586  1.00  0.00     0.163 HD
BRANCH  13  15
HETATM   15  C6  UNL     1      25.014   6.965  49.869  1.00  0.00     0.088 C 
HETATM   16  C7  UNL     1      24.053   6.756  48.722  1.00  0.00     0.050 C 
HETATM   17  C8  UNL     1      22.679   6.422  49.261  1.00  0.00     0.012 C 
HETATM   18  C9  UNL     1      21.785   6.270  48.048  1.00  0.00     0.032 C 
HETATM   19  C10 UNL     1      22.114   7.498  50.129  1.00  0.00     0.032 C 
HETATM   20  N3  UNL     1      22.784   5.149  49.925  1.00  0.00    -0.278 NA
HETATM   21  C11 UNL     1      23.712   5.117  51.021  1.00  0.00     0.012 C 
HETATM   22  C12 UNL     1      22.859   5.095  52.296  1.00  0.00     0.032 C 
HETATM   23  C13 UNL     1      24.485   3.801  51.041  1.00  0.00     0.032 C 
HETATM   24  C14 UNL     1      24.658   6.254  51.126  1.00  0.00     0.050 C 
BRANCH  20  25
HETATM   25  P1  UNL     1      23.132   3.821  48.757  1.00  0.00    -0.065 P 
HETATM   26  H15 UNL     1      22.800   2.521  49.326  1.00  0.00     0.071 HD
HETATM   27  H16 UNL     1      24.541   3.844  48.389  1.00  0.00     0.071 HD
ENDBRANCH  20  25
ENDBRANCH  13  15
ENDBRANCH   2  11
BRANCH   1  28
HETATM   28  N1  UNL     1      29.932   8.854  49.447  1.00  0.00    -0.388 N 
HETATM   29  H4  UNL     1      29.875   9.018  50.473  1.00  0.00     0.159 HD
BRANCH  28  30
HETATM   30  C2  UNL     1      30.087   9.867  48.430  1.00  0.00     0.062 C 
HETATM   31  C1  UNL     1      30.563  11.072  48.586  1.00  0.00     0.079 C 
ENDBRANCH  28  30
ENDBRANCH   1  28
BRANCH   8  32
HETATM   32  O3  UNL     1      34.673   7.343  48.864  1.00  0.00    -0.353 OA
HETATM   33  C21 UNL     1      35.100   8.349  47.983  1.00  0.00     0.210 C 
ENDBRANCH   8  32
BRANCH   7  34
HETATM   34  O2  UNL     1      34.672   4.839  47.905  1.00  0.00    -0.353 OA
HETATM   35  C19 UNL     1      34.855   3.449  47.631  1.00  0.00     0.210 C 
ENDBRANCH   7  34
TORSDOF 7
ENDMDL
MODEL 9
REMARK VINA RESULT:      -6.8      6.503     10.458
REMARK  7 active torsions:
REMARK  status: ('A' for Active; 'I' for Inactive)
REMARK    1  A    between atoms: C2_2  and  N1_3 
REMARK    2  A    between atoms: N1_3  and  C3_4 
REMARK    3  A    between atoms: C4_5  and  C5_6 
REMARK       I    between atoms: C5_6  and  N2_8 
REMARK    4  A    between atoms: N2_8  and  C6_9 
REMARK    5  A    between atoms: N3_14  and  P1_15 
REMARK    6  A    between atoms: C18_24  and  O2_25 
REMARK    7  A    between atoms: C20_27  and  O3_28 
ROOT
HETATM    1  C3  UNL     1      22.456   2.161  52.180  1.00  0.00     0.058 A 
HETATM    2  C4  UNL     1      21.200   1.700  52.519  1.00  0.00     0.076 A 
HETATM    3  C15 UNL     1      20.940   0.507  53.130  1.00  0.00     0.136 A 
HETATM    4  N4  UNL     1      22.007  -0.247  53.406  1.00  0.00    -0.259 NA
HETATM    5  C16 UNL     1      23.261   0.091  53.128  1.00  0.00     0.071 A 
HETATM    6  C17 UNL     1      24.242  -0.799  53.483  1.00  0.00     0.072 A 
HETATM    7  C18 UNL     1      25.561  -0.507  53.223  1.00  0.00     0.103 A 
HETATM    8  C20 UNL     1      25.859   0.710  52.594  1.00  0.00     0.102 A 
HETATM    9  C22 UNL     1      24.820   1.584  52.253  1.00  0.00     0.055 A 
HETATM   10  C23 UNL     1      23.503   1.297  52.511  1.00  0.00     0.023 A 
ENDROOT
BRANCH   2  11
HETATM   11  C5  UNL     1      20.136   2.595  52.225  1.00  0.00     0.255 C 
HETATM   12  O1  UNL     1      19.637   3.781  52.272  1.00  0.00    -0.268 OA
HETATM   13  N2  UNL     1      18.959   2.087  51.535  1.00  0.00    -0.352 N 
HETATM   14  H5  UNL     1      18.809   1.089  51.207  1.00  0.00     0.163 HD
BRANCH  13  15
HETATM   15  C6  UNL     1      17.700   2.589  51.058  1.00  0.00     0.088 C 
HETATM   16  C7  UNL     1      17.514   2.255  49.597  1.00  0.00     0.050 C 
HETATM   17  C8  UNL     1      16.039   2.236  49.260  1.00  0.00     0.012 C 
HETATM   18  C9  UNL     1      15.956   1.932  47.780  1.00  0.00     0.032 C 
HETATM   19  C10 UNL     1      15.366   3.545  49.510  1.00  0.00     0.032 C 
HETATM   20  N3  UNL     1      15.453   1.144  49.994  1.00  0.00    -0.278 NA
HETATM   21  C11 UNL     1      15.583   1.239  51.422  1.00  0.00     0.012 C 
HETATM   22  C12 UNL     1      14.194   1.620  51.948  1.00  0.00     0.032 C 
HETATM   23  C13 UNL     1      15.876  -0.128  52.034  1.00  0.00     0.032 C 
HETATM   24  C14 UNL     1      16.553   2.235  51.936  1.00  0.00     0.050 C 
BRANCH  20  25
HETATM   25  P1  UNL     1      16.058  -0.448  49.404  1.00  0.00    -0.065 P 
HETATM   26  H15 UNL     1      16.950  -1.064  50.378  1.00  0.00     0.071 HD
HETATM   27  H16 UNL     1      16.764  -0.272  48.143  1.00  0.00     0.071 HD
ENDBRANCH  20  25
ENDBRANCH  13  15
ENDBRANCH   2  11
BRANCH   1  28
HETATM   28  N1  UNL     1      22.762   3.392  51.553  1.00  0.00    -0.388 N 
HETATM   29  H4  UNL     1      22.869   4.257  52.119  1.00  0.00     0.159 HD
BRANCH  28  30
HETATM   30  C2  UNL     1      22.896   3.290  50.119  1.00  0.00     0.062 C 
HETATM   31  C1  UNL     1      21.974   3.519  49.225  1.00  0.00     0.079 C 
ENDBRANCH  28  30
ENDBRANCH   1  28
BRANCH   8  32
HETATM   32  O3  UNL     1      27.153   1.095  52.288  1.00  0.00    -0.353 OA
HETATM   33  C21 UNL     1      27.758   2.103  53.055  1.00  0.00     0.210 C 
ENDBRANCH   8  32
BRANCH   7  34
HETATM   34  O2  UNL     1      26.709  -1.254  53.502  1.00  0.00    -0.353 OA
HETATM   35  C19 UNL     1      27.161  -2.300  52.640  1.00  0.00     0.210 C 
ENDBRANCH   7  34
TORSDOF 7
ENDMDL
