MODEL 1
REMARK VINA RESULT:      -8.6      0.000      0.000
REMARK  5 active torsions:
REMARK  status: ('A' for Active; 'I' for Inactive)
REMARK    1  A    between atoms: O1_2  and  C2_3 
REMARK    2  A    between atoms: C5_6  and  C6_7 
REMARK    3  A    between atoms: C8_9  and  C9_10 
REMARK    4  A    between atoms: N2_17  and  C15_18 
REMARK    5  A    between atoms: C16_20  and  P1_21 
ROOT
HETATM    1  C6  UNL     1      23.685   1.257  53.220  1.00  0.00     0.151 A 
HETATM    2  C7  UNL     1      24.728   0.315  53.766  1.00  0.00     0.094 A 
HETATM    3  C8  UNL     1      25.742   0.239  52.701  1.00  0.00     0.067 A 
HETATM    4  N1  UNL     1      25.394   0.940  51.663  1.00  0.00    -0.173 NA
HETATM    5  N2  UNL     1      24.164   1.538  51.905  1.00  0.00    -0.236 N 
ENDROOT
BRANCH   1   6
HETATM    6  C5  UNL     1      22.359   0.560  53.247  1.00  0.00    -0.033 A 
HETATM    7  C4  UNL     1      22.503  -0.529  54.118  1.00  0.00     0.012 A 
HETATM    8  C3  UNL     1      21.434  -1.404  54.362  1.00  0.00     0.037 A 
HETATM    9  C2  UNL     1      20.218  -1.211  53.748  1.00  0.00     0.068 A 
HETATM   10  C19 UNL     1      20.121  -0.114  52.890  1.00  0.00     0.037 A 
HETATM   11  C18 UNL     1      21.149   0.765  52.627  1.00  0.00     0.012 A 
BRANCH   9  12
HETATM   12  O1  UNL     1      19.056  -1.941  53.850  1.00  0.00    -0.356 OA
HETATM   13  C1  UNL     1      17.815  -1.484  53.360  1.00  0.00     0.210 C 
ENDBRANCH   9  12
ENDBRANCH   1   6
BRANCH   5  14
HETATM   14  C15 UNL     1      23.771   2.279  50.732  1.00  0.00     0.190 A 
HETATM   15  N3  UNL     1      22.963   2.411  49.697  1.00  0.00    -0.223 NA
HETATM   16  C16 UNL     1      23.242   3.494  48.961  1.00  0.00     0.064 A 
HETATM   17  C17 UNL     1      24.369   4.573  49.190  1.00  0.00     0.085 A 
HETATM   18  S1  UNL     1      25.018   3.717  50.748  1.00  0.00    -0.060 SA
BRANCH  16  19
HETATM   19  P1  UNL     1      22.048   3.542  47.535  1.00  0.00    -0.085 P 
HETATM   20  H14 UNL     1      22.581   2.676  46.490  1.00  0.00     0.061 HD
HETATM   21  H15 UNL     1      21.900   4.909  47.052  1.00  0.00     0.061 HD
ENDBRANCH  16  19
ENDBRANCH   5  14
BRANCH   3  22
HETATM   22  C9  UNL     1      26.954  -0.588  52.898  1.00  0.00    -0.010 A 
HETATM   23  C10 UNL     1      27.049  -1.934  52.620  1.00  0.00     0.013 A 
HETATM   24  C11 UNL     1      28.265  -2.568  52.844  1.00  0.00     0.001 A 
HETATM   25  C12 UNL     1      29.366  -1.855  53.339  1.00  0.00     0.000 A 
HETATM   26  C13 UNL     1      29.278  -0.506  53.620  1.00  0.00     0.001 A 
HETATM   27  C14 UNL     1      28.058   0.103  53.390  1.00  0.00     0.013 A 
ENDBRANCH   3  22
TORSDOF 5
ENDMDL
MODEL 2
REMARK VINA RESULT:      -8.2      1.821      2.182
REMARK  5 active torsions:
REMARK  status: ('A' for Active; 'I' for Inactive)
REMARK    1  A    between atoms: O1_2  and  C2_3 
REMARK    2  A    between atoms: C5_6  and  C6_7 
REMARK    3  A    between atoms: C8_9  and  C9_10 
REMARK    4  A    between atoms: N2_17  and  C15_18 
REMARK    5  A    between atoms: C16_20  and  P1_21 
ROOT
HETATM    1  C6  UNL     1      23.789   1.677  53.031  1.00  0.00     0.151 A 
HETATM    2  C7  UNL     1      24.624   0.465  53.355  1.00  0.00     0.094 A 
HETATM    3  C8  UNL     1      25.935   0.754  52.750  1.00  0.00     0.067 A 
HETATM    4  N1  UNL     1      25.926   1.890  52.118  1.00  0.00    -0.173 NA
HETATM    5  N2  UNL     1      24.666   2.464  52.224  1.00  0.00    -0.236 N 
ENDROOT
BRANCH   1   6
HETATM    6  C5  UNL     1      22.553   1.222  52.317  1.00  0.00    -0.033 A 
HETATM    7  C4  UNL     1      21.611   0.921  53.311  1.00  0.00     0.012 A 
HETATM    8  C3  UNL     1      20.332   0.452  52.976  1.00  0.00     0.037 A 
HETATM    9  C2  UNL     1      19.975   0.276  51.659  1.00  0.00     0.068 A 
HETATM   10  C19 UNL     1      20.944   0.587  50.704  1.00  0.00     0.037 A 
HETATM   11  C18 UNL     1      22.209   1.050  50.997  1.00  0.00     0.012 A 
BRANCH   9  12
HETATM   12  O1  UNL     1      18.788  -0.167  51.122  1.00  0.00    -0.356 OA
HETATM   13  C1  UNL     1      17.689  -0.567  51.909  1.00  0.00     0.210 C 
ENDBRANCH   9  12
ENDBRANCH   1   6
BRANCH   5  14
HETATM   14  C15 UNL     1      24.658   3.702  51.485  1.00  0.00     0.190 A 
HETATM   15  N3  UNL     1      24.183   4.923  51.333  1.00  0.00    -0.223 NA
HETATM   16  C16 UNL     1      24.732   5.563  50.292  1.00  0.00     0.064 A 
HETATM   17  C17 UNL     1      25.829   5.041  49.287  1.00  0.00     0.085 A 
HETATM   18  S1  UNL     1      25.956   3.354  50.136  1.00  0.00    -0.060 SA
BRANCH  16  19
HETATM   19  P1  UNL     1      23.960   7.252  50.184  1.00  0.00    -0.085 P 
HETATM   20  H14 UNL     1      23.799   7.747  51.547  1.00  0.00     0.061 HD
HETATM   21  H15 UNL     1      22.672   7.171  49.505  1.00  0.00     0.061 HD
ENDBRANCH  16  19
ENDBRANCH   5  14
BRANCH   3  22
HETATM   22  C9  UNL     1      27.041  -0.220  52.893  1.00  0.00    -0.010 A 
HETATM   23  C10 UNL     1      28.311   0.081  53.331  1.00  0.00     0.013 A 
HETATM   24  C11 UNL     1      29.237  -0.950  53.428  1.00  0.00     0.001 A 
HETATM   25  C12 UNL     1      28.885  -2.264  53.089  1.00  0.00     0.000 A 
HETATM   26  C13 UNL     1      27.613  -2.574  52.649  1.00  0.00     0.001 A 
HETATM   27  C14 UNL     1      26.710  -1.531  52.560  1.00  0.00     0.013 A 
ENDBRANCH   3  22
TORSDOF 5
ENDMDL
MODEL 3
REMARK VINA RESULT:      -7.9      3.232      5.421
REMARK  5 active torsions:
REMARK  status: ('A' for Active; 'I' for Inactive)
REMARK    1  A    between atoms: O1_2  and  C2_3 
REMARK    2  A    between atoms: C5_6  and  C6_7 
REMARK    3  A    between atoms: C8_9  and  C9_10 
REMARK    4  A    between atoms: N2_17  and  C15_18 
REMARK    5  A    between atoms: C16_20  and  P1_21 
ROOT
HETATM    1  C6  UNL     1      24.517   1.709  51.157  1.00  0.00     0.151 A 
HETATM    2  C7  UNL     1      25.999   1.612  51.410  1.00  0.00     0.094 A 
HETATM    3  C8  UNL     1      26.124   0.562  52.435  1.00  0.00     0.067 A 
HETATM    4  N1  UNL     1      24.960   0.119  52.806  1.00  0.00    -0.173 NA
HETATM    5  N2  UNL     1      23.968   0.792  52.103  1.00  0.00    -0.236 N 
ENDROOT
BRANCH   1   6
HETATM    6  C5  UNL     1      24.094   3.131  51.375  1.00  0.00    -0.033 A 
HETATM    7  C4  UNL     1      24.113   3.746  50.116  1.00  0.00     0.012 A 
HETATM    8  C3  UNL     1      23.773   5.099  49.968  1.00  0.00     0.037 A 
HETATM    9  C2  UNL     1      23.414   5.853  51.061  1.00  0.00     0.068 A 
HETATM   10  C19 UNL     1      23.409   5.199  52.294  1.00  0.00     0.037 A 
HETATM   11  C18 UNL     1      23.736   3.873  52.476  1.00  0.00     0.012 A 
BRANCH   9  12
HETATM   12  O1  UNL     1      23.049   7.178  51.134  1.00  0.00    -0.356 OA
HETATM   13  C1  UNL     1      22.323   7.832  50.117  1.00  0.00     0.210 C 
ENDBRANCH   9  12
ENDBRANCH   1   6
BRANCH   5  14
HETATM   14  C15 UNL     1      22.682   0.321  52.553  1.00  0.00     0.190 A 
HETATM   15  N3  UNL     1      21.376   0.264  52.378  1.00  0.00    -0.223 NA
HETATM   16  C16 UNL     1      20.762  -0.462  53.320  1.00  0.00     0.064 A 
HETATM   17  C17 UNL     1      21.400  -1.219  54.548  1.00  0.00     0.085 A 
HETATM   18  S1  UNL     1      23.158  -0.679  54.102  1.00  0.00    -0.060 SA
BRANCH  16  19
HETATM   19  P1  UNL     1      18.935  -0.439  52.964  1.00  0.00    -0.085 P 
HETATM   20  H14 UNL     1      18.263   0.046  54.164  1.00  0.00     0.061 HD
HETATM   21  H15 UNL     1      18.476  -1.777  52.616  1.00  0.00     0.061 HD
ENDBRANCH  16  19
ENDBRANCH   5  14
BRANCH   3  22
HETATM   22  C9  UNL     1      27.466   0.165  52.920  1.00  0.00    -0.010 A 
HETATM   23  C10 UNL     1      28.424   1.030  53.400  1.00  0.00     0.013 A 
HETATM   24  C11 UNL     1      29.632   0.500  53.835  1.00  0.00     0.001 A 
HETATM   25  C12 UNL     1      29.868  -0.881  53.789  1.00  0.00     0.000 A 
HETATM   26  C13 UNL     1      28.912  -1.755  53.309  1.00  0.00     0.001 A 
HETATM   27  C14 UNL     1      27.719  -1.204  52.881  1.00  0.00     0.013 A 
ENDBRANCH   3  22
TORSDOF 5
ENDMDL
MODEL 4
REMARK VINA RESULT:      -7.9      3.618      6.382
REMARK  5 active torsions:
REMARK  status: ('A' for Active; 'I' for Inactive)
REMARK    1  A    between atoms: O1_2  and  C2_3 
REMARK    2  A    between atoms: C5_6  and  C6_7 
REMARK    3  A    between atoms: C8_9  and  C9_10 
REMARK    4  A    between atoms: N2_17  and  C15_18 
REMARK    5  A    between atoms: C16_20  and  P1_21 
ROOT
HETATM    1  C6  UNL     1      25.165   3.169  50.035  1.00  0.00     0.151 A 
HETATM    2  C7  UNL     1      26.453   2.579  50.551  1.00  0.00     0.094 A 
HETATM    3  C8  UNL     1      26.035   1.716  51.668  1.00  0.00     0.067 A 
HETATM    4  N1  UNL     1      24.752   1.782  51.866  1.00  0.00    -0.173 NA
HETATM    5  N2  UNL     1      24.191   2.658  50.946  1.00  0.00    -0.236 N 
ENDROOT
BRANCH   1   6
HETATM    6  C5  UNL     1      25.289   4.662  50.054  1.00  0.00    -0.033 A 
HETATM    7  C4  UNL     1      26.318   4.984  49.158  1.00  0.00     0.012 A 
HETATM    8  C3  UNL     1      26.699   6.317  48.945  1.00  0.00     0.037 A 
HETATM    9  C2  UNL     1      26.068   7.340  49.615  1.00  0.00     0.068 A 
HETATM   10  C19 UNL     1      25.050   6.973  50.497  1.00  0.00     0.037 A 
HETATM   11  C18 UNL     1      24.650   5.675  50.730  1.00  0.00     0.012 A 
BRANCH   9  12
HETATM   12  O1  UNL     1      26.284   8.698  49.552  1.00  0.00    -0.356 OA
HETATM   13  C1  UNL     1      27.414   9.324  50.118  1.00  0.00     0.210 C 
ENDBRANCH   9  12
ENDBRANCH   1   6
BRANCH   5  14
HETATM   14  C15 UNL     1      22.776   2.755  51.202  1.00  0.00     0.190 A 
HETATM   15  N3  UNL     1      21.609   3.298  50.912  1.00  0.00    -0.223 NA
HETATM   16  C16 UNL     1      20.614   2.816  51.666  1.00  0.00     0.064 A 
HETATM   17  C17 UNL     1      20.683   1.724  52.801  1.00  0.00     0.085 A 
HETATM   18  S1  UNL     1      22.549   1.482  52.600  1.00  0.00    -0.060 SA
BRANCH  16  19
HETATM   19  P1  UNL     1      19.044   3.680  51.166  1.00  0.00    -0.085 P 
HETATM   20  H14 UNL     1      19.246   5.109  51.379  1.00  0.00     0.061 HD
HETATM   21  H15 UNL     1      17.927   3.189  51.963  1.00  0.00     0.061 HD
ENDBRANCH  16  19
ENDBRANCH   5  14
BRANCH   3  22
HETATM   22  C9  UNL     1      27.049   0.935  52.412  1.00  0.00    -0.010 A 
HETATM   23  C10 UNL     1      27.100  -0.440  52.478  1.00  0.00     0.013 A 
HETATM   24  C11 UNL     1      28.128  -1.027  53.205  1.00  0.00     0.001 A 
HETATM   25  C12 UNL     1      29.089  -0.239  53.855  1.00  0.00     0.000 A 
HETATM   26  C13 UNL     1      29.044   1.140  53.794  1.00  0.00     0.001 A 
HETATM   27  C14 UNL     1      28.012   1.701  53.064  1.00  0.00     0.013 A 
ENDBRANCH   3  22
TORSDOF 5
ENDMDL
MODEL 5
REMARK VINA RESULT:      -7.8      4.304      7.028
REMARK  5 active torsions:
REMARK  status: ('A' for Active; 'I' for Inactive)
REMARK    1  A    between atoms: O1_2  and  C2_3 
REMARK    2  A    between atoms: C5_6  and  C6_7 
REMARK    3  A    between atoms: C8_9  and  C9_10 
REMARK    4  A    between atoms: N2_17  and  C15_18 
REMARK    5  A    between atoms: C16_20  and  P1_21 
ROOT
HETATM    1  C6  UNL     1      25.679   3.659  49.352  1.00  0.00     0.151 A 
HETATM    2  C7  UNL     1      26.753   2.871  50.057  1.00  0.00     0.094 A 
HETATM    3  C8  UNL     1      26.071   2.295  51.228  1.00  0.00     0.067 A 
HETATM    4  N1  UNL     1      24.832   2.681  51.294  1.00  0.00    -0.173 NA
HETATM    5  N2  UNL     1      24.556   3.522  50.223  1.00  0.00    -0.236 N 
ENDROOT
BRANCH   1   6
HETATM    6  C5  UNL     1      26.156   5.071  49.196  1.00  0.00    -0.033 A 
HETATM    7  C4  UNL     1      27.427   4.996  48.609  1.00  0.00     0.012 A 
HETATM    8  C3  UNL     1      28.164   6.157  48.333  1.00  0.00     0.037 A 
HETATM    9  C2  UNL     1      27.654   7.398  48.635  1.00  0.00     0.068 A 
HETATM   10  C19 UNL     1      26.386   7.425  49.219  1.00  0.00     0.037 A 
HETATM   11  C18 UNL     1      25.634   6.306  49.503  1.00  0.00     0.012 A 
BRANCH   9  12
HETATM   12  O1  UNL     1      28.205   8.645  48.448  1.00  0.00    -0.356 OA
HETATM   13  C1  UNL     1      28.999   9.289  49.420  1.00  0.00     0.210 C 
ENDBRANCH   9  12
ENDBRANCH   1   6
BRANCH   5  14
HETATM   14  C15 UNL     1      23.192   3.976  50.331  1.00  0.00     0.190 A 
HETATM   15  N3  UNL     1      22.183   4.652  49.817  1.00  0.00    -0.223 NA
HETATM   16  C16 UNL     1      21.088   4.607  50.586  1.00  0.00     0.064 A 
HETATM   17  C17 UNL     1      20.887   3.869  51.965  1.00  0.00     0.085 A 
HETATM   18  S1  UNL     1      22.657   3.199  51.985  1.00  0.00    -0.060 SA
BRANCH  16  19
HETATM   19  P1  UNL     1      19.761   5.613  49.756  1.00  0.00    -0.085 P 
HETATM   20  H14 UNL     1      18.927   6.187  50.807  1.00  0.00     0.061 HD
HETATM   21  H15 UNL     1      18.972   4.767  48.870  1.00  0.00     0.061 HD
ENDBRANCH  16  19
ENDBRANCH   5  14
BRANCH   3  22
HETATM   22  C9  UNL     1      26.821   1.418  52.156  1.00  0.00    -0.010 A 
HETATM   23  C10 UNL     1      26.688   0.049  52.235  1.00  0.00     0.013 A 
HETATM   24  C11 UNL     1      27.477  -0.638  53.149  1.00  0.00     0.001 A 
HETATM   25  C12 UNL     1      28.386   0.045  53.969  1.00  0.00     0.000 A 
HETATM   26  C13 UNL     1      28.524   1.418  53.896  1.00  0.00     0.001 A 
HETATM   27  C14 UNL     1      27.728   2.079  52.980  1.00  0.00     0.013 A 
ENDBRANCH   3  22
TORSDOF 5
ENDMDL
MODEL 6
REMARK VINA RESULT:      -7.7      2.929      6.517
REMARK  5 active torsions:
REMARK  status: ('A' for Active; 'I' for Inactive)
REMARK    1  A    between atoms: O1_2  and  C2_3 
REMARK    2  A    between atoms: C5_6  and  C6_7 
REMARK    3  A    between atoms: C8_9  and  C9_10 
REMARK    4  A    between atoms: N2_17  and  C15_18 
REMARK    5  A    between atoms: C16_20  and  P1_21 
ROOT
HETATM    1  C6  UNL     1      23.118   1.470  51.238  1.00  0.00     0.151 A 
HETATM    2  C7  UNL     1      22.125   0.390  51.581  1.00  0.00     0.094 A 
HETATM    3  C8  UNL     1      20.832   1.093  51.648  1.00  0.00     0.067 A 
HETATM    4  N1  UNL     1      20.975   2.369  51.446  1.00  0.00    -0.173 NA
HETATM    5  N2  UNL     1      22.317   2.652  51.233  1.00  0.00    -0.236 N 
ENDROOT
BRANCH   1   6
HETATM    6  C5  UNL     1      24.194   1.471  52.281  1.00  0.00    -0.033 A 
HETATM    7  C4  UNL     1      24.355   0.138  52.683  1.00  0.00     0.012 A 
HETATM    8  C3  UNL     1      25.290  -0.211  53.668  1.00  0.00     0.037 A 
HETATM    9  C2  UNL     1      26.071   0.752  54.264  1.00  0.00     0.068 A 
HETATM   10  C19 UNL     1      25.877   2.065  53.832  1.00  0.00     0.037 A 
HETATM   11  C18 UNL     1      24.968   2.444  52.868  1.00  0.00     0.012 A 
BRANCH   9  12
HETATM   12  O1  UNL     1      27.036   0.625  55.236  1.00  0.00    -0.356 OA
HETATM   13  C1  UNL     1      28.362   0.232  54.958  1.00  0.00     0.210 C 
ENDBRANCH   9  12
ENDBRANCH   1   6
BRANCH   5  14
HETATM   14  C15 UNL     1      22.467   4.075  51.052  1.00  0.00     0.190 A 
HETATM   15  N3  UNL     1      23.254   5.133  51.022  1.00  0.00    -0.223 NA
HETATM   16  C16 UNL     1      22.589   6.262  50.743  1.00  0.00     0.064 A 
HETATM   17  C17 UNL     1      21.049   6.449  50.459  1.00  0.00     0.085 A 
HETATM   18  S1  UNL     1      20.678   4.606  50.674  1.00  0.00    -0.060 SA
BRANCH  16  19
HETATM   19  P1  UNL     1      23.810   7.666  50.755  1.00  0.00    -0.085 P 
HETATM   20  H14 UNL     1      25.145   7.083  50.833  1.00  0.00     0.061 HD
HETATM   21  H15 UNL     1      23.557   8.539  51.894  1.00  0.00     0.061 HD
ENDBRANCH  16  19
ENDBRANCH   5  14
BRANCH   3  22
HETATM   22  C9  UNL     1      19.596   0.331  51.939  1.00  0.00    -0.010 A 
HETATM   23  C10 UNL     1      18.441   0.378  51.190  1.00  0.00     0.013 A 
HETATM   24  C11 UNL     1      17.368  -0.411  51.585  1.00  0.00     0.001 A 
HETATM   25  C12 UNL     1      17.460  -1.234  52.716  1.00  0.00     0.000 A 
HETATM   26  C13 UNL     1      18.615  -1.286  53.472  1.00  0.00     0.001 A 
HETATM   27  C14 UNL     1      19.669  -0.492  53.060  1.00  0.00     0.013 A 
ENDBRANCH   3  22
TORSDOF 5
ENDMDL
MODEL 7
REMARK VINA RESULT:      -7.6      2.957      6.050
REMARK  5 active torsions:
REMARK  status: ('A' for Active; 'I' for Inactive)
REMARK    1  A    between atoms: O1_2  and  C2_3 
REMARK    2  A    between atoms: C5_6  and  C6_7 
REMARK    3  A    between atoms: C8_9  and  C9_10 
REMARK    4  A    between atoms: N2_17  and  C15_18 
REMARK    5  A    between atoms: C16_20  and  P1_21 
ROOT
HETATM    1  C6  UNL     1      24.521   2.548  52.758  1.00  0.00     0.151 A 
HETATM    2  C7  UNL     1      25.564   3.340  52.012  1.00  0.00     0.094 A 
HETATM    3  C8  UNL     1      24.840   3.889  50.852  1.00  0.00     0.067 A 
HETATM    4  N1  UNL     1      23.605   3.484  50.828  1.00  0.00    -0.173 NA
HETATM    5  N2  UNL     1      23.372   2.657  51.918  1.00  0.00    -0.236 N 
ENDROOT
BRANCH   1   6
HETATM    6  C5  UNL     1      25.023   1.144  52.921  1.00  0.00    -0.033 A 
HETATM    7  C4  UNL     1      26.219   1.066  52.195  1.00  0.00     0.012 A 
HETATM    8  C3  UNL     1      26.949  -0.130  52.132  1.00  0.00     0.037 A 
HETATM    9  C2  UNL     1      26.502  -1.257  52.783  1.00  0.00     0.068 A 
HETATM   10  C19 UNL     1      25.306  -1.133  53.492  1.00  0.00     0.037 A 
HETATM   11  C18 UNL     1      24.565   0.026  53.576  1.00  0.00     0.012 A 
BRANCH   9  12
HETATM   12  O1  UNL     1      27.058  -2.513  52.849  1.00  0.00    -0.356 OA
HETATM   13  C1  UNL     1      28.440  -2.734  53.025  1.00  0.00     0.210 C 
ENDBRANCH   9  12
ENDBRANCH   1   6
BRANCH   5  14
HETATM   14  C15 UNL     1      22.012   2.183  51.857  1.00  0.00     0.190 A 
HETATM   15  N3  UNL     1      21.169   1.168  51.846  1.00  0.00    -0.223 NA
HETATM   16  C16 UNL     1      19.891   1.561  51.771  1.00  0.00     0.064 A 
HETATM   17  C17 UNL     1      19.318   3.029  51.701  1.00  0.00     0.085 A 
HETATM   18  S1  UNL     1      21.038   3.816  51.762  1.00  0.00    -0.060 SA
BRANCH  16  19
HETATM   19  P1  UNL     1      18.822   0.039  51.743  1.00  0.00    -0.085 P 
HETATM   20  H14 UNL     1      19.629  -1.051  51.205  1.00  0.00     0.061 HD
HETATM   21  H15 UNL     1      17.644   0.269  50.917  1.00  0.00     0.061 HD
ENDBRANCH  16  19
ENDBRANCH   5  14
BRANCH   3  22
HETATM   22  C9  UNL     1      25.550   4.762  49.890  1.00  0.00    -0.010 A 
HETATM   23  C10 UNL     1      25.070   5.956  49.400  1.00  0.00     0.013 A 
HETATM   24  C11 UNL     1      25.865   6.672  48.513  1.00  0.00     0.001 A 
HETATM   25  C12 UNL     1      27.124   6.191  48.129  1.00  0.00     0.000 A 
HETATM   26  C13 UNL     1      27.612   4.994  48.616  1.00  0.00     0.001 A 
HETATM   27  C14 UNL     1      26.803   4.300  49.496  1.00  0.00     0.013 A 
ENDBRANCH   3  22
TORSDOF 5
ENDMDL
MODEL 8
REMARK VINA RESULT:      -7.3      7.272     10.626
REMARK  5 active torsions:
REMARK  status: ('A' for Active; 'I' for Inactive)
REMARK    1  A    between atoms: O1_2  and  C2_3 
REMARK    2  A    between atoms: C5_6  and  C6_7 
REMARK    3  A    between atoms: C8_9  and  C9_10 
REMARK    4  A    between atoms: N2_17  and  C15_18 
REMARK    5  A    between atoms: C16_20  and  P1_21 
ROOT
HETATM    1  C6  UNL     1      28.563   6.866  47.450  1.00  0.00     0.151 A 
HETATM    2  C7  UNL     1      28.238   8.302  47.770  1.00  0.00     0.094 A 
HETATM    3  C8  UNL     1      29.530   8.887  48.167  1.00  0.00     0.067 A 
HETATM    4  N1  UNL     1      30.476   7.997  48.159  1.00  0.00    -0.173 NA
HETATM    5  N2  UNL     1      29.950   6.771  47.775  1.00  0.00    -0.236 N 
ENDROOT
BRANCH   1   6
HETATM    6  C5  UNL     1      27.683   5.986  48.285  1.00  0.00    -0.033 A 
HETATM    7  C4  UNL     1      26.641   6.799  48.753  1.00  0.00     0.012 A 
HETATM    8  C3  UNL     1      25.636   6.279  49.582  1.00  0.00     0.037 A 
HETATM    9  C2  UNL     1      25.653   4.955  49.956  1.00  0.00     0.068 A 
HETATM   10  C19 UNL     1      26.709   4.184  49.467  1.00  0.00     0.037 A 
HETATM   11  C18 UNL     1      27.712   4.661  48.651  1.00  0.00     0.012 A 
BRANCH   9  12
HETATM   12  O1  UNL     1      24.776   4.254  50.750  1.00  0.00    -0.356 OA
HETATM   13  C1  UNL     1      24.973   2.905  51.110  1.00  0.00     0.210 C 
ENDBRANCH   9  12
ENDBRANCH   1   6
BRANCH   5  14
HETATM   14  C15 UNL     1      31.000   5.784  47.810  1.00  0.00     0.190 A 
HETATM   15  N3  UNL     1      31.387   4.538  47.614  1.00  0.00    -0.223 NA
HETATM   16  C16 UNL     1      32.685   4.353  47.887  1.00  0.00     0.064 A 
HETATM   17  C17 UNL     1      33.743   5.409  48.387  1.00  0.00     0.085 A 
HETATM   18  S1  UNL     1      32.482   6.820  48.407  1.00  0.00    -0.060 SA
BRANCH  16  19
HETATM   19  P1  UNL     1      33.084   2.560  47.590  1.00  0.00    -0.085 P 
HETATM   20  H14 UNL     1      32.063   1.767  48.268  1.00  0.00     0.061 HD
HETATM   21  H15 UNL     1      34.411   2.250  48.108  1.00  0.00     0.061 HD
ENDBRANCH  16  19
ENDBRANCH   5  14
BRANCH   3  22
HETATM   22  C9  UNL     1      29.607  10.321  48.530  1.00  0.00    -0.010 A 
HETATM   23  C10 UNL     1      30.764  10.997  48.847  1.00  0.00     0.013 A 
HETATM   24  C11 UNL     1      30.674  12.350  49.150  1.00  0.00     0.001 A 
HETATM   25  C12 UNL     1      29.437  13.009  49.133  1.00  0.00     0.000 A 
HETATM   26  C13 UNL     1      28.272  12.337  48.816  1.00  0.00     0.001 A 
HETATM   27  C14 UNL     1      28.387  10.992  48.519  1.00  0.00     0.013 A 
ENDBRANCH   3  22
TORSDOF 5
ENDMDL
MODEL 9
REMARK VINA RESULT:      -7.3      3.672      6.460
REMARK  5 active torsions:
REMARK  status: ('A' for Active; 'I' for Inactive)
REMARK    1  A    between atoms: O1_2  and  C2_3 
REMARK    2  A    between atoms: C5_6  and  C6_7 
REMARK    3  A    between atoms: C8_9  and  C9_10 
REMARK    4  A    between atoms: N2_17  and  C15_18 
REMARK    5  A    between atoms: C16_20  and  P1_21 
ROOT
HETATM    1  C6  UNL     1      24.759   2.769  49.991  1.00  0.00     0.151 A 
HETATM    2  C7  UNL     1      25.068   3.940  49.095  1.00  0.00     0.094 A 
HETATM    3  C8  UNL     1      26.454   4.303  49.438  1.00  0.00     0.067 A 
HETATM    4  N1  UNL     1      26.917   3.558  50.397  1.00  0.00    -0.173 NA
HETATM    5  N2  UNL     1      25.939   2.652  50.787  1.00  0.00    -0.236 N 
ENDROOT
BRANCH   1   6
HETATM    6  C5  UNL     1      23.525   3.091  50.780  1.00  0.00    -0.033 A 
HETATM    7  C4  UNL     1      22.492   2.319  50.230  1.00  0.00     0.012 A 
HETATM    8  C3  UNL     1      21.187   2.393  50.738  1.00  0.00     0.037 A 
HETATM    9  C2  UNL     1      20.893   3.229  51.790  1.00  0.00     0.068 A 
HETATM   10  C19 UNL     1      21.952   3.978  52.305  1.00  0.00     0.037 A 
HETATM   11  C18 UNL     1      23.245   3.930  51.832  1.00  0.00     0.012 A 
BRANCH   9  12
HETATM   12  O1  UNL     1      19.695   3.447  52.431  1.00  0.00    -0.356 OA
HETATM   13  C1  UNL     1      18.460   3.513  51.752  1.00  0.00     0.210 C 
ENDBRANCH   9  12
ENDBRANCH   1   6
BRANCH   5  14
HETATM   14  C15 UNL     1      26.450   1.860  51.877  1.00  0.00     0.190 A 
HETATM   15  N3  UNL     1      27.430   1.597  52.720  1.00  0.00    -0.223 NA
HETATM   16  C16 UNL     1      27.133   0.597  53.559  1.00  0.00     0.064 A 
HETATM   17  C17 UNL     1      25.806  -0.252  53.645  1.00  0.00     0.085 A 
HETATM   18  S1  UNL     1      24.990   0.685  52.218  1.00  0.00    -0.060 SA
BRANCH  16  19
HETATM   19  P1  UNL     1      28.602   0.321  54.668  1.00  0.00    -0.085 P 
HETATM   20  H14 UNL     1      29.013   1.624  55.180  1.00  0.00     0.061 HD
HETATM   21  H15 UNL     1      29.683  -0.307  53.919  1.00  0.00     0.061 HD
ENDBRANCH  16  19
ENDBRANCH   5  14
BRANCH   3  22
HETATM   22  C9  UNL     1      27.120   5.416  48.723  1.00  0.00    -0.010 A 
HETATM   23  C10 UNL     1      26.509   6.587  48.334  1.00  0.00     0.013 A 
HETATM   24  C11 UNL     1      27.276   7.546  47.685  1.00  0.00     0.001 A 
HETATM   25  C12 UNL     1      28.637   7.327  47.434  1.00  0.00     0.000 A 
HETATM   26  C13 UNL     1      29.258   6.155  47.821  1.00  0.00     0.001 A 
HETATM   27  C14 UNL     1      28.474   5.216  48.465  1.00  0.00     0.013 A 
ENDBRANCH   3  22
TORSDOF 5
ENDMDL
