MODEL 1
REMARK VINA RESULT:     -10.1      0.000      0.000
REMARK  0 active torsions:
REMARK  status: ('A' for Active; 'I' for Inactive)
ROOT
HETATM    1  C1  UNL     1      27.165   4.429  48.955  1.00  0.00    -0.017 C 
HETATM    2  C2  UNL     1      26.410   5.567  48.958  1.00  0.00     0.044 C 
HETATM    3  C3  UNL     1      26.552   6.930  48.351  1.00  0.00     0.011 C 
HETATM    4  C4  UNL     1      25.428   7.598  48.718  1.00  0.00     0.045 A 
HETATM    5  N1  UNL     1      24.870   8.925  48.524  1.00  0.00    -0.268 NA
HETATM    6  C5  UNL     1      23.784   8.733  49.131  1.00  0.00     0.107 A 
HETATM    7  C6  UNL     1      24.181   7.315  49.426  1.00  0.00     0.130 A 
HETATM    8  C7  UNL     1      23.229   6.422  48.696  1.00  0.00     0.070 A 
HETATM    9  C8  UNL     1      22.432   6.778  47.598  1.00  0.00     0.049 A 
HETATM   10  C9  UNL     1      21.514   5.943  46.963  1.00  0.00     0.138 A 
HETATM   11  N2  UNL     1      21.346   4.649  47.426  1.00  0.00    -0.075 NA
HETATM   12  C10 UNL     1      22.103   4.348  48.450  1.00  0.00     0.728 A 
HETATM   13  N3  UNL     1      22.980   5.157  49.047  1.00  0.00    -0.066 NA
HETATM   14  N4  UNL     1      22.050   3.120  49.095  1.00  0.00    -0.185 N 
HETATM   15  C11 UNL     1      20.771   2.809  49.713  1.00  0.00     0.116 C 
HETATM   16  C12 UNL     1      20.867   2.434  51.035  1.00  0.00    -0.042 C 
HETATM   17  C13 UNL     1      22.214   2.129  51.400  1.00  0.00     0.013 C 
HETATM   18  C14 UNL     1      23.332   2.115  50.745  1.00  0.00    -0.053 C 
HETATM   19  C15 UNL     1      23.151   2.179  49.241  1.00  0.00     0.182 C 
HETATM   20  C16 UNL     1      24.779   2.074  51.283  1.00  0.00     0.042 C 
HETATM   21  C17 UNL     1      25.414   3.141  50.516  1.00  0.00    -0.018 C 
HETATM   22  C18 UNL     1      26.455   3.441  49.756  1.00  0.00    -0.007 C 
HETATM   23  C19 UNL     1      24.693   2.313  52.754  1.00  0.00     0.040 C 
HETATM   24  C20 UNL     1      23.993   1.087  53.363  1.00  0.00    -0.030 C 
HETATM   25  C21 UNL     1      23.485  -0.175  53.131  1.00  0.00    -0.029 C 
HETATM   26  C22 UNL     1      22.858  -0.890  54.282  1.00  0.00     0.056 C 
HETATM   27  C23 UNL     1      21.391  -1.225  53.931  1.00  0.00     0.273 C 
HETATM   28  N5  UNL     1      20.929  -0.134  53.078  1.00  0.00     0.083 NA
HETATM   29  C24 UNL     1      19.540   0.021  52.924  1.00  0.00     0.270 C 
HETATM   30  C25 UNL     1      19.047   0.951  51.898  1.00  0.00     0.034 C 
HETATM   31  C26 UNL     1      19.566   2.338  51.771  1.00  0.00     0.042 C 
HETATM   32  H23 UNL     1      21.334  -0.406  52.108  1.00  0.00     0.315 HD
ENDROOT
TORSDOF 0
ENDMDL
MODEL 2
REMARK VINA RESULT:      -9.8      1.883      4.773
REMARK  0 active torsions:
REMARK  status: ('A' for Active; 'I' for Inactive)
ROOT
HETATM    1  C1  UNL     1      18.544   4.722  50.125  1.00  0.00    -0.017 C 
HETATM    2  C2  UNL     1      19.311   4.718  48.995  1.00  0.00     0.044 C 
HETATM    3  C3  UNL     1      19.268   5.452  47.689  1.00  0.00     0.011 C 
HETATM    4  C4  UNL     1      20.347   5.003  46.997  1.00  0.00     0.045 A 
HETATM    5  N1  UNL     1      20.947   5.235  45.695  1.00  0.00    -0.268 NA
HETATM    6  C5  UNL     1      21.943   4.480  45.839  1.00  0.00     0.107 A 
HETATM    7  C6  UNL     1      21.490   4.119  47.224  1.00  0.00     0.130 A 
HETATM    8  C7  UNL     1      22.512   4.642  48.182  1.00  0.00     0.070 A 
HETATM    9  C8  UNL     1      23.448   5.656  47.926  1.00  0.00     0.049 A 
HETATM   10  C9  UNL     1      24.426   6.094  48.817  1.00  0.00     0.138 A 
HETATM   11  N2  UNL     1      24.513   5.506  50.067  1.00  0.00    -0.075 NA
HETATM   12  C10 UNL     1      23.627   4.565  50.275  1.00  0.00     0.728 A 
HETATM   13  N3  UNL     1      22.694   4.156  49.412  1.00  0.00    -0.066 NA
HETATM   14  N4  UNL     1      23.577   3.817  51.443  1.00  0.00    -0.185 N 
HETATM   15  C11 UNL     1      24.763   3.017  51.705  1.00  0.00     0.116 C 
HETATM   16  C12 UNL     1      24.494   1.691  51.964  1.00  0.00    -0.042 C 
HETATM   17  C13 UNL     1      23.107   1.476  52.231  1.00  0.00     0.013 C 
HETATM   18  C14 UNL     1      22.081   2.265  52.295  1.00  0.00    -0.053 C 
HETATM   19  C15 UNL     1      22.453   3.734  52.362  1.00  0.00     0.182 C 
HETATM   20  C16 UNL     1      20.577   1.916  52.283  1.00  0.00     0.042 C 
HETATM   21  C17 UNL     1      20.062   2.846  51.282  1.00  0.00    -0.018 C 
HETATM   22  C18 UNL     1      19.130   3.755  51.044  1.00  0.00    -0.007 C 
HETATM   23  C19 UNL     1      20.479   0.472  51.918  1.00  0.00     0.040 C 
HETATM   24  C20 UNL     1      21.076  -0.324  53.090  1.00  0.00    -0.030 C 
HETATM   25  C21 UNL     1      21.589  -0.267  54.370  1.00  0.00    -0.029 C 
HETATM   26  C22 UNL     1      22.053  -1.545  54.986  1.00  0.00     0.056 C 
HETATM   27  C23 UNL     1      23.547  -1.414  55.358  1.00  0.00     0.273 C 
HETATM   28  N5  UNL     1      24.131  -0.539  54.347  1.00  0.00     0.083 NA
HETATM   29  C24 UNL     1      25.530  -0.551  54.212  1.00  0.00     0.270 C 
HETATM   30  C25 UNL     1      26.165   0.478  53.377  1.00  0.00     0.034 C 
HETATM   31  C26 UNL     1      25.688   0.788  52.004  1.00  0.00     0.042 C 
HETATM   32  H23 UNL     1      23.849   0.448  54.699  1.00  0.00     0.315 HD
ENDROOT
TORSDOF 0
ENDMDL
MODEL 3
REMARK VINA RESULT:      -9.3      2.219      7.504
REMARK  0 active torsions:
REMARK  status: ('A' for Active; 'I' for Inactive)
ROOT
HETATM    1  C1  UNL     1      20.800  -0.184  54.182  1.00  0.00    -0.017 C 
HETATM    2  C2  UNL     1      19.727  -0.381  53.359  1.00  0.00     0.044 C 
HETATM    3  C3  UNL     1      18.457  -1.170  53.453  1.00  0.00     0.011 C 
HETATM    4  C4  UNL     1      17.798  -0.916  52.292  1.00  0.00     0.045 A 
HETATM    5  N1  UNL     1      16.547  -1.312  51.672  1.00  0.00    -0.268 NA
HETATM    6  C5  UNL     1      16.650  -0.607  50.634  1.00  0.00     0.107 A 
HETATM    7  C6  UNL     1      17.968  -0.069  51.112  1.00  0.00     0.130 A 
HETATM    8  C7  UNL     1      17.793   1.396  51.356  1.00  0.00     0.070 A 
HETATM    9  C8  UNL     1      16.577   2.064  51.562  1.00  0.00     0.049 A 
HETATM   10  C9  UNL     1      16.431   3.439  51.737  1.00  0.00     0.138 A 
HETATM   11  N2  UNL     1      17.556   4.245  51.712  1.00  0.00    -0.075 NA
HETATM   12  C10 UNL     1      18.675   3.592  51.518  1.00  0.00     0.728 A 
HETATM   13  N3  UNL     1      18.799   2.274  51.353  1.00  0.00    -0.066 NA
HETATM   14  N4  UNL     1      19.907   4.220  51.408  1.00  0.00    -0.185 N 
HETATM   15  C11 UNL     1      20.029   5.134  50.284  1.00  0.00     0.116 C 
HETATM   16  C12 UNL     1      21.136   4.906  49.497  1.00  0.00    -0.042 C 
HETATM   17  C13 UNL     1      22.072   4.040  50.142  1.00  0.00     0.013 C 
HETATM   18  C14 UNL     1      22.094   3.458  51.300  1.00  0.00    -0.053 C 
HETATM   19  C15 UNL     1      21.061   4.001  52.268  1.00  0.00     0.182 C 
HETATM   20  C16 UNL     1      22.988   2.300  51.794  1.00  0.00     0.042 C 
HETATM   21  C17 UNL     1      22.008   1.401  52.397  1.00  0.00    -0.018 C 
HETATM   22  C18 UNL     1      21.718   0.705  53.484  1.00  0.00    -0.007 C 
HETATM   23  C19 UNL     1      23.690   1.761  50.593  1.00  0.00     0.040 C 
HETATM   24  C20 UNL     1      24.660   2.855  50.117  1.00  0.00    -0.030 C 
HETATM   25  C21 UNL     1      25.211   4.092  50.384  1.00  0.00    -0.029 C 
HETATM   26  C22 UNL     1      26.184   4.642  49.393  1.00  0.00     0.056 C 
HETATM   27  C23 UNL     1      25.660   5.999  48.871  1.00  0.00     0.273 C 
HETATM   28  N5  UNL     1      24.205   5.885  48.865  1.00  0.00     0.083 NA
HETATM   29  C24 UNL     1      23.488   6.813  48.089  1.00  0.00     0.270 C 
HETATM   30  C25 UNL     1      22.028   6.877  48.243  1.00  0.00     0.034 C 
HETATM   31  C26 UNL     1      21.173   5.662  48.205  1.00  0.00     0.042 C 
HETATM   32  H23 UNL     1      23.950   6.068  49.904  1.00  0.00     0.315 HD
ENDROOT
TORSDOF 0
ENDMDL
MODEL 4
REMARK VINA RESULT:      -9.2      1.908      2.555
REMARK  0 active torsions:
REMARK  status: ('A' for Active; 'I' for Inactive)
ROOT
HETATM    1  C1  UNL     1      25.122   5.619  48.708  1.00  0.00    -0.017 C 
HETATM    2  C2  UNL     1      24.001   6.324  49.044  1.00  0.00     0.044 C 
HETATM    3  C3  UNL     1      23.327   7.552  48.510  1.00  0.00     0.011 C 
HETATM    4  C4  UNL     1      22.224   7.713  49.285  1.00  0.00     0.045 A 
HETATM    5  N1  UNL     1      21.120   8.652  49.380  1.00  0.00    -0.268 NA
HETATM    6  C5  UNL     1      20.500   8.079  50.314  1.00  0.00     0.107 A 
HETATM    7  C6  UNL     1      21.543   6.999  50.364  1.00  0.00     0.130 A 
HETATM    8  C7  UNL     1      20.885   5.720  49.958  1.00  0.00     0.070 A 
HETATM    9  C8  UNL     1      19.692   5.594  49.229  1.00  0.00     0.049 A 
HETATM   10  C9  UNL     1      19.068   4.391  48.904  1.00  0.00     0.138 A 
HETATM   11  N2  UNL     1      19.642   3.201  49.315  1.00  0.00    -0.075 NA
HETATM   12  C10 UNL     1      20.753   3.351  49.992  1.00  0.00     0.728 A 
HETATM   13  N3  UNL     1      21.340   4.510  50.295  1.00  0.00    -0.066 NA
HETATM   14  N4  UNL     1      21.457   2.287  50.538  1.00  0.00    -0.185 N 
HETATM   15  C11 UNL     1      20.730   1.525  51.541  1.00  0.00     0.116 C 
HETATM   16  C12 UNL     1      21.420   1.358  52.722  1.00  0.00    -0.042 C 
HETATM   17  C13 UNL     1      22.802   1.690  52.576  1.00  0.00     0.013 C 
HETATM   18  C14 UNL     1      23.521   2.087  51.574  1.00  0.00    -0.053 C 
HETATM   19  C15 UNL     1      22.832   1.920  50.233  1.00  0.00     0.182 C 
HETATM   20  C16 UNL     1      24.931   2.716  51.571  1.00  0.00     0.042 C 
HETATM   21  C17 UNL     1      24.742   3.871  50.698  1.00  0.00    -0.018 C 
HETATM   22  C18 UNL     1      25.226   4.508  49.644  1.00  0.00    -0.007 C 
HETATM   23  C19 UNL     1      25.255   3.040  52.991  1.00  0.00     0.040 C 
HETATM   24  C20 UNL     1      25.405   1.699  53.729  1.00  0.00    -0.030 C 
HETATM   25  C21 UNL     1      25.445   0.325  53.611  1.00  0.00    -0.029 C 
HETATM   26  C22 UNL     1      25.619  -0.471  54.862  1.00  0.00     0.056 C 
HETATM   27  C23 UNL     1      24.418  -1.429  55.023  1.00  0.00     0.273 C 
HETATM   28  N5  UNL     1      23.273  -0.727  54.454  1.00  0.00     0.083 NA
HETATM   29  C24 UNL     1      21.992  -1.191  54.802  1.00  0.00     0.270 C 
HETATM   30  C25 UNL     1      20.831  -0.664  54.071  1.00  0.00     0.034 C 
HETATM   31  C26 UNL     1      20.624   0.792  53.857  1.00  0.00     0.042 C 
HETATM   32  H23 UNL     1      23.399  -0.895  53.389  1.00  0.00     0.315 HD
ENDROOT
TORSDOF 0
ENDMDL
MODEL 5
REMARK VINA RESULT:      -9.1      1.802      7.212
REMARK  0 active torsions:
REMARK  status: ('A' for Active; 'I' for Inactive)
ROOT
HETATM    1  C1  UNL     1      24.080   1.849  53.041  1.00  0.00    -0.017 C 
HETATM    2  C2  UNL     1      22.982   1.534  52.292  1.00  0.00     0.044 C 
HETATM    3  C3  UNL     1      21.768   0.682  52.505  1.00  0.00     0.011 C 
HETATM    4  C4  UNL     1      21.039   0.817  51.367  1.00  0.00     0.045 A 
HETATM    5  N1  UNL     1      19.785   0.306  50.842  1.00  0.00    -0.268 NA
HETATM    6  C5  UNL     1      19.794   0.942  49.756  1.00  0.00     0.107 A 
HETATM    7  C6  UNL     1      21.098   1.587  50.126  1.00  0.00     0.130 A 
HETATM    8  C7  UNL     1      20.847   3.053  50.280  1.00  0.00     0.070 A 
HETATM    9  C8  UNL     1      19.603   3.663  50.506  1.00  0.00     0.049 A 
HETATM   10  C9  UNL     1      19.383   5.036  50.597  1.00  0.00     0.138 A 
HETATM   11  N2  UNL     1      20.454   5.902  50.458  1.00  0.00    -0.075 NA
HETATM   12  C10 UNL     1      21.599   5.303  50.249  1.00  0.00     0.728 A 
HETATM   13  N3  UNL     1      21.796   3.985  50.165  1.00  0.00    -0.066 NA
HETATM   14  N4  UNL     1      22.785   5.991  50.031  1.00  0.00    -0.185 N 
HETATM   15  C11 UNL     1      22.795   6.830  48.844  1.00  0.00     0.116 C 
HETATM   16  C12 UNL     1      23.873   6.611  48.016  1.00  0.00    -0.042 C 
HETATM   17  C13 UNL     1      24.891   5.847  48.666  1.00  0.00     0.013 C 
HETATM   18  C14 UNL     1      25.006   5.350  49.857  1.00  0.00    -0.053 C 
HETATM   19  C15 UNL     1      23.990   5.899  50.841  1.00  0.00     0.182 C 
HETATM   20  C16 UNL     1      25.992   4.283  50.380  1.00  0.00     0.042 C 
HETATM   21  C17 UNL     1      25.099   3.374  51.092  1.00  0.00    -0.018 C 
HETATM   22  C18 UNL     1      24.907   2.739  52.238  1.00  0.00    -0.007 C 
HETATM   23  C19 UNL     1      26.665   3.703  49.181  1.00  0.00     0.040 C 
HETATM   24  C20 UNL     1      27.542   4.814  48.583  1.00  0.00    -0.030 C 
HETATM   25  C21 UNL     1      28.030   6.096  48.736  1.00  0.00    -0.029 C 
HETATM   26  C22 UNL     1      28.916   6.631  47.660  1.00  0.00     0.056 C 
HETATM   27  C23 UNL     1      28.286   7.916  47.077  1.00  0.00     0.273 C 
HETATM   28  N5  UNL     1      26.842   7.719  47.157  1.00  0.00     0.083 NA
HETATM   29  C24 UNL     1      26.032   8.547  46.360  1.00  0.00     0.270 C 
HETATM   30  C25 UNL     1      24.580   8.538  46.586  1.00  0.00     0.034 C 
HETATM   31  C26 UNL     1      23.801   7.275  46.676  1.00  0.00     0.042 C 
HETATM   32  H23 UNL     1      26.628   7.958  48.193  1.00  0.00     0.315 HD
ENDROOT
TORSDOF 0
ENDMDL
MODEL 6
REMARK VINA RESULT:      -8.9      2.249      5.497
REMARK  0 active torsions:
REMARK  status: ('A' for Active; 'I' for Inactive)
ROOT
HETATM    1  C1  UNL     1      17.890   2.709  51.286  1.00  0.00    -0.017 C 
HETATM    2  C2  UNL     1      18.225   2.939  49.982  1.00  0.00     0.044 C 
HETATM    3  C3  UNL     1      17.496   3.466  48.783  1.00  0.00     0.011 C 
HETATM    4  C4  UNL     1      18.418   3.470  47.785  1.00  0.00     0.045 A 
HETATM    5  N1  UNL     1      18.458   3.824  46.378  1.00  0.00    -0.268 NA
HETATM    6  C5  UNL     1      19.680   3.591  46.187  1.00  0.00     0.107 A 
HETATM    7  C6  UNL     1      19.844   3.191  47.625  1.00  0.00     0.130 A 
HETATM    8  C7  UNL     1      20.757   4.186  48.266  1.00  0.00     0.070 A 
HETATM    9  C8  UNL     1      21.038   5.479  47.797  1.00  0.00     0.049 A 
HETATM   10  C9  UNL     1      21.932   6.373  48.384  1.00  0.00     0.138 A 
HETATM   11  N2  UNL     1      22.619   5.991  49.523  1.00  0.00    -0.075 NA
HETATM   12  C10 UNL     1      22.335   4.781  49.936  1.00  0.00     0.728 A 
HETATM   13  N3  UNL     1      21.475   3.936  49.364  1.00  0.00    -0.066 NA
HETATM   14  N4  UNL     1      22.952   4.190  51.029  1.00  0.00    -0.185 N 
HETATM   15  C11 UNL     1      24.388   4.008  50.894  1.00  0.00     0.116 C 
HETATM   16  C12 UNL     1      24.814   2.724  51.156  1.00  0.00    -0.042 C 
HETATM   17  C13 UNL     1      23.801   1.954  51.805  1.00  0.00     0.013 C 
HETATM   18  C14 UNL     1      22.598   2.224  52.205  1.00  0.00    -0.053 C 
HETATM   19  C15 UNL     1      22.290   3.709  52.232  1.00  0.00     0.182 C 
HETATM   20  C16 UNL     1      21.466   1.258  52.616  1.00  0.00     0.042 C 
HETATM   21  C17 UNL     1      20.335   1.783  51.856  1.00  0.00    -0.018 C 
HETATM   22  C18 UNL     1      19.074   2.175  51.945  1.00  0.00    -0.007 C 
HETATM   23  C19 UNL     1      21.913  -0.112  52.226  1.00  0.00     0.040 C 
HETATM   24  C20 UNL     1      23.103  -0.465  53.133  1.00  0.00    -0.030 C 
HETATM   25  C21 UNL     1      23.878  -0.081  54.208  1.00  0.00    -0.029 C 
HETATM   26  C22 UNL     1      25.009  -0.973  54.598  1.00  0.00     0.056 C 
HETATM   27  C23 UNL     1      26.331  -0.177  54.523  1.00  0.00     0.273 C 
HETATM   28  N5  UNL     1      26.158   0.773  53.429  1.00  0.00     0.083 NA
HETATM   29  C24 UNL     1      27.319   1.357  52.891  1.00  0.00     0.270 C 
HETATM   30  C25 UNL     1      27.171   2.482  51.958  1.00  0.00     0.034 C 
HETATM   31  C26 UNL     1      26.240   2.435  50.800  1.00  0.00     0.042 C 
HETATM   32  H23 UNL     1      25.584   1.568  53.896  1.00  0.00     0.315 HD
ENDROOT
TORSDOF 0
ENDMDL
MODEL 7
REMARK VINA RESULT:      -8.6      5.926      9.970
REMARK  0 active torsions:
REMARK  status: ('A' for Active; 'I' for Inactive)
ROOT
HETATM    1  C1  UNL     1      32.902  11.384  47.076  1.00  0.00    -0.017 C 
HETATM    2  C2  UNL     1      33.166  10.494  46.073  1.00  0.00     0.044 C 
HETATM    3  C3  UNL     1      34.265  10.334  45.067  1.00  0.00     0.011 C 
HETATM    4  C4  UNL     1      33.939   9.217  44.366  1.00  0.00     0.045 A 
HETATM    5  N1  UNL     1      34.496   8.456  43.261  1.00  0.00    -0.268 NA
HETATM    6  C5  UNL     1      33.634   7.539  43.246  1.00  0.00     0.107 A 
HETATM    7  C6  UNL     1      32.915   8.174  44.402  1.00  0.00     0.130 A 
HETATM    8  C7  UNL     1      33.011   7.235  45.561  1.00  0.00     0.070 A 
HETATM    9  C8  UNL     1      33.951   6.206  45.721  1.00  0.00     0.049 A 
HETATM   10  C9  UNL     1      33.992   5.308  46.787  1.00  0.00     0.138 A 
HETATM   11  N2  UNL     1      33.043   5.408  47.789  1.00  0.00    -0.075 NA
HETATM   12  C10 UNL     1      32.181   6.377  47.612  1.00  0.00     0.728 A 
HETATM   13  N3  UNL     1      32.155   7.231  46.586  1.00  0.00    -0.066 NA
HETATM   14  N4  UNL     1      31.120   6.614  48.475  1.00  0.00    -0.185 N 
HETATM   15  C11 UNL     1      30.160   5.527  48.574  1.00  0.00     0.116 C 
HETATM   16  C12 UNL     1      28.854   5.918  48.377  1.00  0.00    -0.042 C 
HETATM   17  C13 UNL     1      28.712   7.338  48.440  1.00  0.00     0.013 C 
HETATM   18  C14 UNL     1      29.546   8.306  48.660  1.00  0.00    -0.053 C 
HETATM   19  C15 UNL     1      30.877   7.841  49.219  1.00  0.00     0.182 C 
HETATM   20  C16 UNL     1      29.375   9.819  48.406  1.00  0.00     0.042 C 
HETATM   21  C17 UNL     1      30.615  10.148  47.709  1.00  0.00    -0.018 C 
HETATM   22  C18 UNL     1      31.645  10.979  47.690  1.00  0.00    -0.007 C 
HETATM   23  C19 UNL     1      28.130   9.977  47.598  1.00  0.00     0.040 C 
HETATM   24  C20 UNL     1      26.957   9.578  48.506  1.00  0.00    -0.030 C 
HETATM   25  C21 UNL     1      26.565   9.213  49.779  1.00  0.00    -0.029 C 
HETATM   26  C22 UNL     1      25.119   8.915  49.998  1.00  0.00     0.056 C 
HETATM   27  C23 UNL     1      24.974   7.469  50.521  1.00  0.00     0.273 C 
HETATM   28  N5  UNL     1      26.051   6.711  49.893  1.00  0.00     0.083 NA
HETATM   29  C24 UNL     1      25.936   5.310  49.884  1.00  0.00     0.270 C 
HETATM   30  C25 UNL     1      27.100   4.512  49.476  1.00  0.00     0.034 C 
HETATM   31  C26 UNL     1      27.864   4.803  48.234  1.00  0.00     0.042 C 
HETATM   32  H23 UNL     1      26.907   6.961  50.512  1.00  0.00     0.315 HD
ENDROOT
TORSDOF 0
ENDMDL
MODEL 8
REMARK VINA RESULT:      -8.5      1.686      2.520
REMARK  0 active torsions:
REMARK  status: ('A' for Active; 'I' for Inactive)
ROOT
HETATM    1  C1  UNL     1      25.867   2.625  50.610  1.00  0.00    -0.017 C 
HETATM    2  C2  UNL     1      25.419   3.859  50.232  1.00  0.00     0.044 C 
HETATM    3  C3  UNL     1      26.068   5.098  49.694  1.00  0.00     0.011 C 
HETATM    4  C4  UNL     1      25.049   5.973  49.498  1.00  0.00     0.045 A 
HETATM    5  N1  UNL     1      24.896   7.337  49.022  1.00  0.00    -0.268 NA
HETATM    6  C5  UNL     1      23.640   7.393  49.094  1.00  0.00     0.107 A 
HETATM    7  C6  UNL     1      23.590   5.978  49.594  1.00  0.00     0.130 A 
HETATM    8  C7  UNL     1      22.887   5.161  48.557  1.00  0.00     0.070 A 
HETATM    9  C8  UNL     1      22.720   5.500  47.205  1.00  0.00     0.049 A 
HETATM   10  C9  UNL     1      22.017   4.747  46.266  1.00  0.00     0.138 A 
HETATM   11  N2  UNL     1      21.420   3.562  46.661  1.00  0.00    -0.075 NA
HETATM   12  C10 UNL     1      21.594   3.274  47.926  1.00  0.00     0.728 A 
HETATM   13  N3  UNL     1      22.271   4.004  48.815  1.00  0.00    -0.066 NA
HETATM   14  N4  UNL     1      21.034   2.158  48.533  1.00  0.00    -0.185 N 
HETATM   15  C11 UNL     1      19.580   2.129  48.534  1.00  0.00     0.116 C 
HETATM   16  C12 UNL     1      19.028   1.909  49.776  1.00  0.00    -0.042 C 
HETATM   17  C13 UNL     1      20.003   1.444  50.712  1.00  0.00     0.013 C 
HETATM   18  C14 UNL     1      21.268   1.176  50.619  1.00  0.00    -0.053 C 
HETATM   19  C15 UNL     1      21.762   1.082  49.188  1.00  0.00     0.182 C 
HETATM   20  C16 UNL     1      22.309   0.976  51.742  1.00  0.00     0.042 C 
HETATM   21  C17 UNL     1      23.404   1.828  51.290  1.00  0.00    -0.018 C 
HETATM   22  C18 UNL     1      24.706   1.866  51.057  1.00  0.00    -0.007 C 
HETATM   23  C19 UNL     1      21.652   1.404  53.012  1.00  0.00     0.040 C 
HETATM   24  C20 UNL     1      20.536   0.387  53.300  1.00  0.00    -0.030 C 
HETATM   25  C21 UNL     1      19.941  -0.799  52.921  1.00  0.00    -0.029 C 
HETATM   26  C22 UNL     1      18.758  -1.260  53.706  1.00  0.00     0.056 C 
HETATM   27  C23 UNL     1      17.547  -1.403  52.757  1.00  0.00     0.273 C 
HETATM   28  N5  UNL     1      17.714  -0.367  51.744  1.00  0.00     0.083 NA
HETATM   29  C24 UNL     1      16.583  -0.017  50.985  1.00  0.00     0.270 C 
HETATM   30  C25 UNL     1      16.765   0.845  49.809  1.00  0.00     0.034 C 
HETATM   31  C26 UNL     1      17.547   2.108  49.866  1.00  0.00     0.042 C 
HETATM   32  H23 UNL     1      18.432  -0.815  51.064  1.00  0.00     0.315 HD
ENDROOT
TORSDOF 0
ENDMDL
MODEL 9
REMARK VINA RESULT:      -8.4      5.923     10.159
REMARK  0 active torsions:
REMARK  status: ('A' for Active; 'I' for Inactive)
ROOT
HETATM    1  C1  UNL     1      32.670   9.967  44.490  1.00  0.00    -0.017 C 
HETATM    2  C2  UNL     1      33.128   8.703  44.247  1.00  0.00     0.044 C 
HETATM    3  C3  UNL     1      34.396   8.129  43.693  1.00  0.00     0.011 C 
HETATM    4  C4  UNL     1      34.223   6.782  43.740  1.00  0.00     0.045 A 
HETATM    5  N1  UNL     1      34.985   5.600  43.382  1.00  0.00    -0.268 NA
HETATM    6  C5  UNL     1      34.156   4.744  43.784  1.00  0.00     0.107 A 
HETATM    7  C6  UNL     1      33.226   5.834  44.234  1.00  0.00     0.130 A 
HETATM    8  C7  UNL     1      33.119   5.748  45.723  1.00  0.00     0.070 A 
HETATM    9  C8  UNL     1      34.029   5.118  46.585  1.00  0.00     0.049 A 
HETATM   10  C9  UNL     1      33.885   5.005  47.967  1.00  0.00     0.138 A 
HETATM   11  N2  UNL     1      32.766   5.546  48.575  1.00  0.00    -0.075 NA
HETATM   12  C10 UNL     1      31.937   6.127  47.744  1.00  0.00     0.728 A 
HETATM   13  N3  UNL     1      32.088   6.228  46.423  1.00  0.00    -0.066 NA
HETATM   14  N4  UNL     1      30.731   6.686  48.145  1.00  0.00    -0.185 N 
HETATM   15  C11 UNL     1      29.785   5.746  48.724  1.00  0.00     0.116 C 
HETATM   16  C12 UNL     1      28.533   5.793  48.154  1.00  0.00    -0.042 C 
HETATM   17  C13 UNL     1      28.361   6.963  47.353  1.00  0.00     0.013 C 
HETATM   18  C14 UNL     1      29.125   7.974  47.081  1.00  0.00    -0.053 C 
HETATM   19  C15 UNL     1      30.336   8.077  47.988  1.00  0.00     0.182 C 
HETATM   20  C16 UNL     1      28.981   9.036  45.969  1.00  0.00     0.042 C 
HETATM   21  C17 UNL     1      30.324   9.053  45.395  1.00  0.00    -0.018 C 
HETATM   22  C18 UNL     1      31.327   9.839  45.039  1.00  0.00    -0.007 C 
HETATM   23  C19 UNL     1      27.905   8.551  45.055  1.00  0.00     0.040 C 
HETATM   24  C20 UNL     1      26.590   8.606  45.848  1.00  0.00    -0.030 C 
HETATM   25  C21 UNL     1      25.976   8.992  47.022  1.00  0.00    -0.029 C 
HETATM   26  C22 UNL     1      24.518   8.703  47.166  1.00  0.00     0.056 C 
HETATM   27  C23 UNL     1      24.300   7.811  48.409  1.00  0.00     0.273 C 
HETATM   28  N5  UNL     1      25.487   6.967  48.504  1.00  0.00     0.083 NA
HETATM   29  C24 UNL     1      25.396   5.812  49.300  1.00  0.00     0.270 C 
HETATM   30  C25 UNL     1      26.628   5.071  49.605  1.00  0.00     0.034 C 
HETATM   31  C26 UNL     1      27.603   4.688  48.551  1.00  0.00     0.042 C 
HETATM   32  H23 UNL     1      26.209   7.627  48.973  1.00  0.00     0.315 HD
ENDROOT
TORSDOF 0
ENDMDL
