MODEL 1
REMARK VINA RESULT:      -8.9      0.000      0.000
REMARK  1 active torsions:
REMARK  status: ('A' for Active; 'I' for Inactive)
REMARK    1  A    between atoms: C2_2  and  C3_3 
ROOT
HETATM    1  C3  UNL     1      26.118   2.715  51.533  1.00  0.00     0.065 C 
HETATM    2  C4  UNL     1      27.329   2.375  52.279  1.00  0.00     0.120 C 
HETATM    3  C5  UNL     1      27.386   2.149  53.599  1.00  0.00     0.063 C 
HETATM    4  N1  UNL     1      28.415   1.794  54.535  1.00  0.00    -0.393 N 
HETATM    5  C6  UNL     1      28.580   0.515  53.843  1.00  0.00     0.221 C 
HETATM    6  C7  UNL     1      27.352  -0.303  53.830  1.00  0.00     0.239 C 
HETATM    7  O1  UNL     1      26.583  -1.293  53.560  1.00  0.00    -0.271 OA
HETATM    8  N2  UNL     1      26.093  -0.028  54.418  1.00  0.00    -0.326 N 
HETATM    9  C8  UNL     1      24.824  -0.628  54.471  1.00  0.00     0.035 C 
HETATM   10  C9  UNL     1      24.229  -1.297  55.438  1.00  0.00     0.029 C 
HETATM   11  C10 UNL     1      22.822  -1.777  55.395  1.00  0.00    -0.001 C 
HETATM   12  C11 UNL     1      21.935  -1.250  54.527  1.00  0.00    -0.022 C 
HETATM   13  C12 UNL     1      21.905  -0.363  53.369  1.00  0.00     0.063 C 
HETATM   14  C13 UNL     1      23.127   0.483  53.163  1.00  0.00    -0.057 C 
HETATM   15  C14 UNL     1      24.217  -0.326  53.116  1.00  0.00     0.034 C 
HETATM   16  C15 UNL     1      22.741   1.917  53.080  1.00  0.00     0.155 C 
HETATM   17  N3  UNL     1      23.863   2.754  52.715  1.00  0.00    -0.373 N 
HETATM   18  C16 UNL     1      24.650   2.925  51.538  1.00  0.00     0.110 C 
HETATM   19  N4  UNL     1      23.741   3.248  50.752  1.00  0.00    -0.281 NA
HETATM   20  C17 UNL     1      23.788   3.580  49.358  1.00  0.00     0.179 C 
HETATM   21  H5  UNL     1      28.930   2.152  55.348  1.00  0.00     0.159 HD
HETATM   22  H8  UNL     1      25.522   0.605  55.065  1.00  0.00     0.169 HD
HETATM   23  H17 UNL     1      24.300   3.441  53.367  1.00  0.00     0.161 HD
ENDROOT
BRANCH   1  24
HETATM   24  C2  UNL     1      26.425   2.955  50.260  1.00  0.00    -0.169 C 
HETATM   25  C1  UNL     1      26.891   3.363  49.101  1.00  0.00     0.092 C 
ENDBRANCH   1  24
TORSDOF 1
ENDMDL
MODEL 2
REMARK VINA RESULT:      -8.0      2.333      4.669
REMARK  1 active torsions:
REMARK  status: ('A' for Active; 'I' for Inactive)
REMARK    1  A    between atoms: C2_2  and  C3_3 
ROOT
HETATM    1  C3  UNL     1      22.634   2.846  50.368  1.00  0.00     0.065 C 
HETATM    2  C4  UNL     1      23.400   4.020  49.952  1.00  0.00     0.120 C 
HETATM    3  C5  UNL     1      24.276   4.683  50.719  1.00  0.00     0.063 C 
HETATM    4  N1  UNL     1      25.139   5.818  50.544  1.00  0.00    -0.393 N 
HETATM    5  C6  UNL     1      25.888   5.071  49.532  1.00  0.00     0.221 C 
HETATM    6  C7  UNL     1      26.488   3.827  50.051  1.00  0.00     0.239 C 
HETATM    7  O1  UNL     1      27.136   2.721  50.036  1.00  0.00    -0.271 OA
HETATM    8  N2  UNL     1      26.460   3.308  51.368  1.00  0.00    -0.326 N 
HETATM    9  C8  UNL     1      26.905   2.153  52.034  1.00  0.00     0.035 C 
HETATM   10  C9  UNL     1      27.928   1.966  52.841  1.00  0.00     0.029 C 
HETATM   11  C10 UNL     1      28.211   0.704  53.575  1.00  0.00    -0.001 C 
HETATM   12  C11 UNL     1      27.247  -0.221  53.761  1.00  0.00    -0.022 C 
HETATM   13  C12 UNL     1      25.891  -0.520  53.312  1.00  0.00     0.063 C 
HETATM   14  C13 UNL     1      25.154   0.614  52.661  1.00  0.00    -0.057 C 
HETATM   15  C14 UNL     1      25.903   1.089  51.632  1.00  0.00     0.034 C 
HETATM   16  C15 UNL     1      23.858   0.839  53.353  1.00  0.00     0.155 C 
HETATM   17  N3  UNL     1      23.040   1.808  52.659  1.00  0.00    -0.373 N 
HETATM   18  C16 UNL     1      22.347   1.832  51.412  1.00  0.00     0.110 C 
HETATM   19  N4  UNL     1      21.599   0.855  51.597  1.00  0.00    -0.281 NA
HETATM   20  C17 UNL     1      20.601   0.271  50.749  1.00  0.00     0.179 C 
HETATM   21  H5  UNL     1      25.291   6.779  50.870  1.00  0.00     0.159 HD
HETATM   22  H8  UNL     1      26.210   3.475  52.395  1.00  0.00     0.169 HD
HETATM   23  H17 UNL     1      22.822   2.754  53.043  1.00  0.00     0.161 HD
ENDROOT
BRANCH   1  24
HETATM   24  C2  UNL     1      21.798   2.485  49.398  1.00  0.00    -0.169 C 
HETATM   25  C1  UNL     1      21.085   2.316  48.307  1.00  0.00     0.092 C 
ENDBRANCH   1  24
TORSDOF 1
ENDMDL
MODEL 3
REMARK VINA RESULT:      -7.8      1.828      4.460
REMARK  1 active torsions:
REMARK  status: ('A' for Active; 'I' for Inactive)
REMARK    1  A    between atoms: C2_2  and  C3_3 
ROOT
HETATM    1  C3  UNL     1      27.188   1.747  52.492  1.00  0.00     0.065 C 
HETATM    2  C4  UNL     1      26.841   2.747  51.482  1.00  0.00     0.120 C 
HETATM    3  C5  UNL     1      25.950   2.572  50.496  1.00  0.00     0.063 C 
HETATM    4  N1  UNL     1      25.436   3.378  49.424  1.00  0.00    -0.393 N 
HETATM    5  C6  UNL     1      24.857   4.291  50.410  1.00  0.00     0.221 C 
HETATM    6  C7  UNL     1      23.883   3.640  51.307  1.00  0.00     0.239 C 
HETATM    7  O1  UNL     1      23.042   3.522  52.267  1.00  0.00    -0.271 OA
HETATM    8  N2  UNL     1      23.428   2.299  51.304  1.00  0.00    -0.326 N 
HETATM    9  C8  UNL     1      22.578   1.494  52.080  1.00  0.00     0.035 C 
HETATM   10  C9  UNL     1      21.354   1.064  51.849  1.00  0.00     0.029 C 
HETATM   11  C10 UNL     1      20.613   0.110  52.716  1.00  0.00    -0.001 C 
HETATM   12  C11 UNL     1      21.264  -0.673  53.601  1.00  0.00    -0.022 C 
HETATM   13  C12 UNL     1      22.593  -0.827  54.181  1.00  0.00     0.063 C 
HETATM   14  C13 UNL     1      23.709  -0.140  53.450  1.00  0.00    -0.057 C 
HETATM   15  C14 UNL     1      23.398   1.175  53.314  1.00  0.00     0.034 C 
HETATM   16  C15 UNL     1      24.776  -1.121  53.120  1.00  0.00     0.155 C 
HETATM   17  N3  UNL     1      25.945  -0.474  52.564  1.00  0.00    -0.373 N 
HETATM   18  C16 UNL     1      26.947   0.404  53.073  1.00  0.00     0.110 C 
HETATM   19  N4  UNL     1      27.385  -0.321  53.984  1.00  0.00    -0.281 NA
HETATM   20  C17 UNL     1      28.429  -0.091  54.938  1.00  0.00     0.179 C 
HETATM   21  H5  UNL     1      25.410   3.444  48.400  1.00  0.00     0.159 HD
HETATM   22  H8  UNL     1      23.412   1.357  50.796  1.00  0.00     0.169 HD
HETATM   23  H17 UNL     1      26.245  -0.589  51.572  1.00  0.00     0.161 HD
ENDROOT
BRANCH   1  24
HETATM   24  C2  UNL     1      28.164   2.211  53.269  1.00  0.00    -0.169 C 
HETATM   25  C1  UNL     1      29.283   2.565  53.860  1.00  0.00     0.092 C 
ENDBRANCH   1  24
TORSDOF 1
ENDMDL
MODEL 4
REMARK VINA RESULT:      -7.8      1.952      2.840
REMARK  1 active torsions:
REMARK  status: ('A' for Active; 'I' for Inactive)
REMARK    1  A    between atoms: C2_2  and  C3_3 
ROOT
HETATM    1  C3  UNL     1      22.914   2.337  50.178  1.00  0.00     0.065 C 
HETATM    2  C4  UNL     1      24.338   2.667  50.243  1.00  0.00     0.120 C 
HETATM    3  C5  UNL     1      25.024   2.908  51.369  1.00  0.00     0.063 C 
HETATM    4  N1  UNL     1      26.387   3.226  51.690  1.00  0.00    -0.393 N 
HETATM    5  C6  UNL     1      26.796   1.919  51.174  1.00  0.00     0.221 C 
HETATM    6  C7  UNL     1      26.169   0.788  51.885  1.00  0.00     0.239 C 
HETATM    7  O1  UNL     1      25.879  -0.428  52.167  1.00  0.00    -0.271 OA
HETATM    8  N2  UNL     1      25.284   0.814  52.991  1.00  0.00    -0.326 N 
HETATM    9  C8  UNL     1      24.556  -0.115  53.753  1.00  0.00     0.035 C 
HETATM   10  C9  UNL     1      24.771  -0.593  54.962  1.00  0.00     0.029 C 
HETATM   11  C10 UNL     1      23.841  -1.490  55.697  1.00  0.00    -0.001 C 
HETATM   12  C11 UNL     1      22.544  -1.587  55.340  1.00  0.00    -0.022 C 
HETATM   13  C12 UNL     1      21.655  -1.179  54.258  1.00  0.00     0.063 C 
HETATM   14  C13 UNL     1      22.174  -0.096  53.359  1.00  0.00    -0.057 C 
HETATM   15  C14 UNL     1      23.381  -0.477  52.867  1.00  0.00     0.034 C 
HETATM   16  C15 UNL     1      21.202   1.028  53.307  1.00  0.00     0.155 C 
HETATM   17  N3  UNL     1      21.581   2.020  52.325  1.00  0.00    -0.373 N 
HETATM   18  C16 UNL     1      21.651   2.050  50.900  1.00  0.00     0.110 C 
HETATM   19  N4  UNL     1      20.460   1.790  50.650  1.00  0.00    -0.281 NA
HETATM   20  C17 UNL     1      19.779   1.653  49.396  1.00  0.00     0.179 C 
HETATM   21  H5  UNL     1      26.976   3.972  52.079  1.00  0.00     0.159 HD
HETATM   22  H8  UNL     1      24.816   1.399  53.754  1.00  0.00     0.169 HD
HETATM   23  H17 UNL     1      21.897   2.982  52.575  1.00  0.00     0.161 HD
ENDROOT
BRANCH   1  24
HETATM   24  C2  UNL     1      22.531   2.242  48.907  1.00  0.00    -0.169 C 
HETATM   25  C1  UNL     1      22.316   2.341  47.614  1.00  0.00     0.092 C 
ENDBRANCH   1  24
TORSDOF 1
ENDMDL
MODEL 5
REMARK VINA RESULT:      -7.6      1.897      5.334
REMARK  1 active torsions:
REMARK  status: ('A' for Active; 'I' for Inactive)
REMARK    1  A    between atoms: C2_2  and  C3_3 
ROOT
HETATM    1  C3  UNL     1      22.482   0.212  52.940  1.00  0.00     0.065 C 
HETATM    2  C4  UNL     1      23.707  -0.357  53.500  1.00  0.00     0.120 C 
HETATM    3  C5  UNL     1      24.838  -0.580  52.816  1.00  0.00     0.063 C 
HETATM    4  N1  UNL     1      26.141  -1.096  53.131  1.00  0.00    -0.393 N 
HETATM    5  C6  UNL     1      26.360   0.045  54.020  1.00  0.00     0.221 C 
HETATM    6  C7  UNL     1      26.286   1.347  53.329  1.00  0.00     0.239 C 
HETATM    7  O1  UNL     1      26.293   2.620  53.183  1.00  0.00    -0.271 OA
HETATM    8  N2  UNL     1      26.076   1.613  51.954  1.00  0.00    -0.326 N 
HETATM    9  C8  UNL     1      25.920   2.741  51.131  1.00  0.00     0.035 C 
HETATM   10  C9  UNL     1      26.756   3.314  50.290  1.00  0.00     0.029 C 
HETATM   11  C10 UNL     1      26.410   4.445  49.388  1.00  0.00    -0.001 C 
HETATM   12  C11 UNL     1      25.125   4.729  49.094  1.00  0.00    -0.022 C 
HETATM   13  C12 UNL     1      23.779   4.360  49.519  1.00  0.00     0.063 C 
HETATM   14  C13 UNL     1      23.672   3.101  50.328  1.00  0.00    -0.057 C 
HETATM   15  C14 UNL     1      24.500   3.199  51.400  1.00  0.00     0.034 C 
HETATM   16  C15 UNL     1      22.702   2.171  49.692  1.00  0.00     0.155 C 
HETATM   17  N3  UNL     1      22.440   1.018  50.524  1.00  0.00    -0.373 N 
HETATM   18  C16 UNL     1      21.785   0.805  51.773  1.00  0.00     0.110 C 
HETATM   19  N4  UNL     1      20.660   1.242  51.468  1.00  0.00    -0.281 NA
HETATM   20  C17 UNL     1      19.459   1.347  52.245  1.00  0.00     0.179 C 
HETATM   21  H5  UNL     1      26.770  -1.883  52.935  1.00  0.00     0.159 HD
HETATM   22  H8  UNL     1      25.999   1.216  50.963  1.00  0.00     0.169 HD
HETATM   23  H17 UNL     1      22.745   0.051  50.275  1.00  0.00     0.161 HD
ENDROOT
BRANCH   1  24
HETATM   24  C2  UNL     1      21.525   0.222  53.865  1.00  0.00    -0.169 C 
HETATM   25  C1  UNL     1      20.772   0.181  54.941  1.00  0.00     0.092 C 
ENDBRANCH   1  24
TORSDOF 1
ENDMDL
MODEL 6
REMARK VINA RESULT:      -7.6      2.820      5.640
REMARK  1 active torsions:
REMARK  status: ('A' for Active; 'I' for Inactive)
REMARK    1  A    between atoms: C2_2  and  C3_3 
ROOT
HETATM    1  C3  UNL     1      24.428   0.418  53.354  1.00  0.00     0.065 C 
HETATM    2  C4  UNL     1      23.352  -0.426  53.873  1.00  0.00     0.120 C 
HETATM    3  C5  UNL     1      22.208   0.023  54.407  1.00  0.00     0.063 C 
HETATM    4  N1  UNL     1      21.026  -0.582  54.955  1.00  0.00    -0.393 N 
HETATM    5  C6  UNL     1      20.727  -1.149  53.639  1.00  0.00     0.221 C 
HETATM    6  C7  UNL     1      20.552  -0.127  52.589  1.00  0.00     0.239 C 
HETATM    7  O1  UNL     1      20.348   0.356  51.419  1.00  0.00    -0.271 OA
HETATM    8  N2  UNL     1      20.597   1.284  52.704  1.00  0.00    -0.326 N 
HETATM    9  C8  UNL     1      20.515   2.394  51.847  1.00  0.00     0.035 C 
HETATM   10  C9  UNL     1      19.533   3.246  51.636  1.00  0.00     0.029 C 
HETATM   11  C10 UNL     1      19.630   4.457  50.778  1.00  0.00    -0.001 C 
HETATM   12  C11 UNL     1      20.830   4.978  50.447  1.00  0.00    -0.022 C 
HETATM   13  C12 UNL     1      22.248   4.642  50.526  1.00  0.00     0.063 C 
HETATM   14  C13 UNL     1      22.606   3.542  51.481  1.00  0.00    -0.057 C 
HETATM   15  C14 UNL     1      21.873   2.441  51.175  1.00  0.00     0.034 C 
HETATM   16  C15 UNL     1      23.639   4.020  52.439  1.00  0.00     0.155 C 
HETATM   17  N3  UNL     1      24.136   2.947  53.271  1.00  0.00    -0.373 N 
HETATM   18  C16 UNL     1      24.925   1.780  53.044  1.00  0.00     0.110 C 
HETATM   19  N4  UNL     1      25.944   2.331  52.588  1.00  0.00    -0.281 NA
HETATM   20  C17 UNL     1      27.182   1.771  52.132  1.00  0.00     0.179 C 
HETATM   21  H5  UNL     1      20.501  -0.687  55.831  1.00  0.00     0.159 HD
HETATM   22  H8  UNL     1      20.640   2.132  53.356  1.00  0.00     0.169 HD
HETATM   23  H17 UNL     1      23.952   2.884  54.296  1.00  0.00     0.161 HD
ENDROOT
BRANCH   1  24
HETATM   24  C2  UNL     1      25.453  -0.341  52.973  1.00  0.00    -0.169 C 
HETATM   25  C1  UNL     1      26.310  -1.286  52.657  1.00  0.00     0.092 C 
ENDBRANCH   1  24
TORSDOF 1
ENDMDL
MODEL 7
REMARK VINA RESULT:      -7.5      3.048      5.377
REMARK  1 active torsions:
REMARK  status: ('A' for Active; 'I' for Inactive)
REMARK    1  A    between atoms: C2_2  and  C3_3 
ROOT
HETATM    1  C3  UNL     1      20.182   2.716  51.296  1.00  0.00     0.065 C 
HETATM    2  C4  UNL     1      20.803   4.024  51.088  1.00  0.00     0.120 C 
HETATM    3  C5  UNL     1      21.614   4.641  51.958  1.00  0.00     0.063 C 
HETATM    4  N1  UNL     1      22.341   5.880  51.981  1.00  0.00    -0.393 N 
HETATM    5  C6  UNL     1      23.148   5.407  50.855  1.00  0.00     0.221 C 
HETATM    6  C7  UNL     1      23.894   4.169  51.151  1.00  0.00     0.239 C 
HETATM    7  O1  UNL     1      24.662   3.163  50.945  1.00  0.00    -0.271 OA
HETATM    8  N2  UNL     1      23.952   3.432  52.359  1.00  0.00    -0.326 N 
HETATM    9  C8  UNL     1      24.536   2.238  52.815  1.00  0.00     0.035 C 
HETATM   10  C9  UNL     1      25.590   2.034  53.578  1.00  0.00     0.029 C 
HETATM   11  C10 UNL     1      26.027   0.704  54.082  1.00  0.00    -0.001 C 
HETATM   12  C11 UNL     1      25.176  -0.342  54.106  1.00  0.00    -0.022 C 
HETATM   13  C12 UNL     1      23.854  -0.712  53.612  1.00  0.00     0.063 C 
HETATM   14  C13 UNL     1      22.982   0.425  53.168  1.00  0.00    -0.057 C 
HETATM   15  C14 UNL     1      23.652   1.152  52.236  1.00  0.00     0.034 C 
HETATM   16  C15 UNL     1      21.683   0.379  53.889  1.00  0.00     0.155 C 
HETATM   17  N3  UNL     1      20.747   1.354  53.373  1.00  0.00    -0.373 N 
HETATM   18  C16 UNL     1      20.031   1.512  52.150  1.00  0.00     0.110 C 
HETATM   19  N4  UNL     1      19.401   0.439  52.163  1.00  0.00    -0.281 NA
HETATM   20  C17 UNL     1      18.458  -0.101  51.228  1.00  0.00     0.179 C 
HETATM   21  H5  UNL     1      22.390   6.781  52.469  1.00  0.00     0.159 HD
HETATM   22  H8  UNL     1      23.705   3.391  53.400  1.00  0.00     0.169 HD
HETATM   23  H17 UNL     1      20.432   2.188  53.914  1.00  0.00     0.161 HD
ENDROOT
BRANCH   1  24
HETATM   24  C2  UNL     1      19.372   2.434  50.279  1.00  0.00    -0.169 C 
HETATM   25  C1  UNL     1      18.553   2.410  49.250  1.00  0.00     0.092 C 
ENDBRANCH   1  24
TORSDOF 1
ENDMDL
MODEL 8
REMARK VINA RESULT:      -7.5      1.878      2.463
REMARK  1 active torsions:
REMARK  status: ('A' for Active; 'I' for Inactive)
REMARK    1  A    between atoms: C2_2  and  C3_3 
ROOT
HETATM    1  C3  UNL     1      23.669   3.566  51.266  1.00  0.00     0.065 C 
HETATM    2  C4  UNL     1      24.911   3.219  51.957  1.00  0.00     0.120 C 
HETATM    3  C5  UNL     1      24.998   2.805  53.228  1.00  0.00     0.063 C 
HETATM    4  N1  UNL     1      26.061   2.400  54.104  1.00  0.00    -0.393 N 
HETATM    5  C6  UNL     1      26.324   1.257  53.230  1.00  0.00     0.221 C 
HETATM    6  C7  UNL     1      25.167   0.351  53.090  1.00  0.00     0.239 C 
HETATM    7  O1  UNL     1      24.479  -0.647  52.673  1.00  0.00    -0.271 OA
HETATM    8  N2  UNL     1      23.895   0.430  53.709  1.00  0.00    -0.326 N 
HETATM    9  C8  UNL     1      22.680  -0.273  53.668  1.00  0.00     0.035 C 
HETATM   10  C9  UNL     1      22.151  -1.126  54.521  1.00  0.00     0.029 C 
HETATM   11  C10 UNL     1      20.787  -1.708  54.403  1.00  0.00    -0.001 C 
HETATM   12  C11 UNL     1      19.852  -1.132  53.620  1.00  0.00    -0.022 C 
HETATM   13  C12 UNL     1      19.740  -0.088  52.607  1.00  0.00     0.063 C 
HETATM   14  C13 UNL     1      20.886   0.877  52.535  1.00  0.00    -0.057 C 
HETATM   15  C14 UNL     1      22.038   0.177  52.371  1.00  0.00     0.034 C 
HETATM   16  C15 UNL     1      20.383   2.270  52.665  1.00  0.00     0.155 C 
HETATM   17  N3  UNL     1      21.429   3.242  52.433  1.00  0.00    -0.373 N 
HETATM   18  C16 UNL     1      22.189   3.651  51.298  1.00  0.00     0.110 C 
HETATM   19  N4  UNL     1      21.249   4.011  50.566  1.00  0.00    -0.281 NA
HETATM   20  C17 UNL     1      21.256   4.551  49.237  1.00  0.00     0.179 C 
HETATM   21  H5  UNL     1      26.553   2.674  54.963  1.00  0.00     0.159 HD
HETATM   22  H8  UNL     1      23.280   0.911  54.441  1.00  0.00     0.169 HD
HETATM   23  H17 UNL     1      21.815   3.858  53.182  1.00  0.00     0.161 HD
ENDROOT
BRANCH   1  24
HETATM   24  C2  UNL     1      23.943   4.017  50.044  1.00  0.00    -0.169 C 
HETATM   25  C1  UNL     1      24.458   4.413  48.901  1.00  0.00     0.092 C 
ENDBRANCH   1  24
TORSDOF 1
ENDMDL
MODEL 9
REMARK VINA RESULT:      -7.4      6.956     10.469
REMARK  1 active torsions:
REMARK  status: ('A' for Active; 'I' for Inactive)
REMARK    1  A    between atoms: C2_2  and  C3_3 
ROOT
HETATM    1  C3  UNL     1      28.180   6.052  48.119  1.00  0.00     0.065 C 
HETATM    2  C4  UNL     1      29.564   5.583  48.064  1.00  0.00     0.120 C 
HETATM    3  C5  UNL     1      30.566   6.206  47.429  1.00  0.00     0.063 C 
HETATM    4  N1  UNL     1      31.970   5.967  47.246  1.00  0.00    -0.393 N 
HETATM    5  C6  UNL     1      32.168   6.130  48.687  1.00  0.00     0.221 C 
HETATM    6  C7  UNL     1      31.757   7.457  49.186  1.00  0.00     0.239 C 
HETATM    7  O1  UNL     1      31.534   8.395  50.030  1.00  0.00    -0.271 OA
HETATM    8  N2  UNL     1      31.251   8.563  48.460  1.00  0.00    -0.326 N 
HETATM    9  C8  UNL     1      30.764   9.850  48.743  1.00  0.00     0.035 C 
HETATM   10  C9  UNL     1      31.324  11.033  48.593  1.00  0.00     0.029 C 
HETATM   11  C10 UNL     1      30.637  12.331  48.827  1.00  0.00    -0.001 C 
HETATM   12  C11 UNL     1      29.291  12.410  48.851  1.00  0.00    -0.022 C 
HETATM   13  C12 UNL     1      28.126  11.531  48.876  1.00  0.00     0.063 C 
HETATM   14  C13 UNL     1      28.377  10.103  48.490  1.00  0.00    -0.057 C 
HETATM   15  C14 UNL     1      29.366   9.605  49.276  1.00  0.00     0.034 C 
HETATM   16  C15 UNL     1      27.465   9.710  47.383  1.00  0.00     0.155 C 
HETATM   17  N3  UNL     1      27.554   8.297  47.091  1.00  0.00    -0.373 N 
HETATM   18  C16 UNL     1      27.189   7.102  47.779  1.00  0.00     0.110 C 
HETATM   19  N4  UNL     1      25.971   7.327  47.909  1.00  0.00    -0.281 NA
HETATM   20  C17 UNL     1      24.938   6.543  48.519  1.00  0.00     0.179 C 
HETATM   21  H5  UNL     1      32.669   5.748  46.526  1.00  0.00     0.159 HD
HETATM   22  H8  UNL     1      31.052   8.993  47.500  1.00  0.00     0.169 HD
HETATM   23  H17 UNL     1      27.956   7.919  46.206  1.00  0.00     0.161 HD
ENDROOT
BRANCH   1  24
HETATM   24  C2  UNL     1      27.426   5.160  48.757  1.00  0.00    -0.169 C 
HETATM   25  C1  UNL     1      26.869   4.115  49.327  1.00  0.00     0.092 C 
ENDBRANCH   1  24
TORSDOF 1
ENDMDL
