MODEL 1
REMARK VINA RESULT:      -7.8      0.000      0.000
REMARK  1 active torsions:
REMARK  status: ('A' for Active; 'I' for Inactive)
REMARK    1  A    between atoms: O1_2  and  C2_3 
ROOT
HETATM    1  C2  UNL     1      27.493   1.366  53.773  1.00  0.00     0.098 C 
HETATM    2  C3  UNL     1      27.148   0.378  54.582  1.00  0.00     0.019 C 
HETATM    3  C4  UNL     1      25.785  -0.204  54.643  1.00  0.00     0.089 C 
HETATM    4  C5  UNL     1      24.945   0.137  53.475  1.00  0.00     0.042 C 
HETATM    5  N1  UNL     1      23.998   0.431  52.709  1.00  0.00    -0.247 NA
HETATM    6  C6  UNL     1      22.628   0.641  52.938  1.00  0.00     0.228 C 
HETATM    7  N2  UNL     1      22.772   1.647  52.201  1.00  0.00    -0.263 NA
HETATM    8  C7  UNL     1      21.893   2.655  51.740  1.00  0.00     0.274 C 
HETATM    9  N3  UNL     1      22.583   3.880  51.446  1.00  0.00    -0.368 N 
HETATM   10  C8  UNL     1      22.615   5.196  50.864  1.00  0.00     0.088 C 
HETATM   11  C9  UNL     1      23.837   5.664  50.547  1.00  0.00     0.027 C 
HETATM   12  C10 UNL     1      24.658   4.479  50.763  1.00  0.00    -0.024 C 
HETATM   13  C11 UNL     1      25.819   4.017  50.253  1.00  0.00     0.021 C 
HETATM   14 BR1  UNL     1      26.679   5.111  48.958  1.00  0.00    -0.053 Br
HETATM   15  C12 UNL     1      26.039   2.640  50.709  1.00  0.00     0.222 C 
HETATM   16  O2  UNL     1      27.167   2.343  51.492  1.00  0.00    -0.343 OA
HETATM   17  C13 UNL     1      26.865   1.302  52.460  1.00  0.00     0.104 C 
HETATM   18  C14 UNL     1      26.106   0.174  52.546  1.00  0.00     0.067 C 
HETATM   19  C15 UNL     1      23.934   3.913  51.946  1.00  0.00     0.163 C 
ENDROOT
BRANCH   1  20
HETATM   20  O1  UNL     1      28.377   2.353  54.188  1.00  0.00    -0.353 OA
HETATM   21  C1  UNL     1      29.692   2.108  54.582  1.00  0.00     0.210 C 
ENDBRANCH   1  20
TORSDOF 1
ENDMDL
MODEL 2
REMARK VINA RESULT:      -7.4      1.590      2.034
REMARK  1 active torsions:
REMARK  status: ('A' for Active; 'I' for Inactive)
REMARK    1  A    between atoms: O1_2  and  C2_3 
ROOT
HETATM    1  C2  UNL     1      25.444  -0.142  54.399  1.00  0.00     0.098 C 
HETATM    2  C3  UNL     1      24.747  -0.992  55.135  1.00  0.00     0.019 C 
HETATM    3  C4  UNL     1      23.266  -1.075  55.125  1.00  0.00     0.089 C 
HETATM    4  C5  UNL     1      22.646  -0.407  53.961  1.00  0.00     0.042 C 
HETATM    5  N1  UNL     1      21.890   0.233  53.193  1.00  0.00    -0.247 NA
HETATM    6  C6  UNL     1      20.666   0.888  53.401  1.00  0.00     0.228 C 
HETATM    7  N2  UNL     1      21.176   1.820  52.733  1.00  0.00    -0.263 NA
HETATM    8  C7  UNL     1      20.714   3.090  52.316  1.00  0.00     0.274 C 
HETATM    9  N3  UNL     1      21.793   4.018  52.118  1.00  0.00    -0.368 N 
HETATM   10  C8  UNL     1      22.297   5.272  51.621  1.00  0.00     0.088 C 
HETATM   11  C9  UNL     1      23.619   5.308  51.364  1.00  0.00     0.027 C 
HETATM   12  C10 UNL     1      23.976   3.904  51.525  1.00  0.00    -0.024 C 
HETATM   13  C11 UNL     1      24.932   3.098  51.015  1.00  0.00     0.021 C 
HETATM   14 BR1  UNL     1      26.170   3.897  49.813  1.00  0.00    -0.053 Br
HETATM   15  C12 UNL     1      24.649   1.708  51.387  1.00  0.00     0.222 C 
HETATM   16  O2  UNL     1      25.572   1.003  52.178  1.00  0.00    -0.343 OA
HETATM   17  C13 UNL     1      24.891   0.080  53.070  1.00  0.00     0.104 C 
HETATM   18  C14 UNL     1      23.790  -0.722  53.065  1.00  0.00     0.067 C 
HETATM   19  C15 UNL     1      23.051   3.560  52.652  1.00  0.00     0.163 C 
ENDROOT
BRANCH   1  20
HETATM   20  O1  UNL     1      26.591   0.459  54.897  1.00  0.00    -0.353 OA
HETATM   21  C1  UNL     1      27.885   0.004  54.642  1.00  0.00     0.210 C 
ENDBRANCH   1  20
TORSDOF 1
ENDMDL
MODEL 3
REMARK VINA RESULT:      -7.1      3.921      6.200
REMARK  1 active torsions:
REMARK  status: ('A' for Active; 'I' for Inactive)
REMARK    1  A    between atoms: O1_2  and  C2_3 
ROOT
HETATM    1  C2  UNL     1      22.543   3.755  51.937  1.00  0.00     0.098 C 
HETATM    2  C3  UNL     1      23.762   3.911  52.427  1.00  0.00     0.019 C 
HETATM    3  C4  UNL     1      24.535   2.828  53.083  1.00  0.00     0.089 C 
HETATM    4  C5  UNL     1      24.003   1.475  52.810  1.00  0.00     0.042 C 
HETATM    5  N1  UNL     1      23.649   0.276  52.885  1.00  0.00    -0.247 NA
HETATM    6  C6  UNL     1      23.720  -0.668  53.923  1.00  0.00     0.228 C 
HETATM    7  N2  UNL     1      22.536  -0.940  53.609  1.00  0.00    -0.263 NA
HETATM    8  C7  UNL     1      21.583  -1.863  54.100  1.00  0.00     0.274 C 
HETATM    9  N3  UNL     1      20.235  -1.421  53.867  1.00  0.00    -0.368 N 
HETATM   10  C8  UNL     1      18.818  -1.672  53.833  1.00  0.00     0.088 C 
HETATM   11  C9  UNL     1      18.101  -0.862  53.031  1.00  0.00     0.027 C 
HETATM   12  C10 UNL     1      19.161  -0.143  52.336  1.00  0.00    -0.024 C 
HETATM   13  C11 UNL     1      19.279   0.452  51.130  1.00  0.00     0.021 C 
HETATM   14 BR1  UNL     1      17.743   0.421  50.009  1.00  0.00    -0.053 Br
HETATM   15  C12 UNL     1      20.679   0.825  50.903  1.00  0.00     0.222 C 
HETATM   16  O2  UNL     1      21.015   2.179  50.735  1.00  0.00    -0.343 OA
HETATM   17  C13 UNL     1      22.323   2.462  51.302  1.00  0.00     0.104 C 
HETATM   18  C14 UNL     1      23.528   1.846  51.451  1.00  0.00     0.067 C 
HETATM   19  C15 UNL     1      20.144  -0.041  53.462  1.00  0.00     0.163 C 
ENDROOT
BRANCH   1  20
HETATM   20  O1  UNL     1      21.596   4.763  52.044  1.00  0.00    -0.353 OA
HETATM   21  C1  UNL     1      21.543   5.878  51.207  1.00  0.00     0.210 C 
ENDBRANCH   1  20
TORSDOF 1
ENDMDL
MODEL 4
REMARK VINA RESULT:      -7.0      3.019      5.881
REMARK  1 active torsions:
REMARK  status: ('A' for Active; 'I' for Inactive)
REMARK    1  A    between atoms: O1_2  and  C2_3 
ROOT
HETATM    1  C2  UNL     1      20.650   0.998  50.651  1.00  0.00     0.098 C 
HETATM    2  C3  UNL     1      19.534   0.512  51.169  1.00  0.00     0.019 C 
HETATM    3  C4  UNL     1      19.450  -0.122  52.507  1.00  0.00     0.089 C 
HETATM    4  C5  UNL     1      20.614   0.168  53.372  1.00  0.00     0.042 C 
HETATM    5  N1  UNL     1      21.548   0.110  54.205  1.00  0.00    -0.247 NA
HETATM    6  C6  UNL     1      21.988  -0.912  55.061  1.00  0.00     0.228 C 
HETATM    7  N2  UNL     1      23.137  -0.601  54.663  1.00  0.00    -0.263 NA
HETATM    8  C7  UNL     1      24.435  -1.084  54.952  1.00  0.00     0.274 C 
HETATM    9  N3  UNL     1      25.346  -0.867  53.863  1.00  0.00    -0.368 N 
HETATM   10  C8  UNL     1      26.682  -0.837  53.329  1.00  0.00     0.088 C 
HETATM   11  C9  UNL     1      26.862  -0.053  52.249  1.00  0.00     0.027 C 
HETATM   12  C10 UNL     1      25.580   0.638  52.185  1.00  0.00    -0.024 C 
HETATM   13  C11 UNL     1      25.163   1.835  51.722  1.00  0.00     0.021 C 
HETATM   14 BR1  UNL     1      26.481   2.947  50.921  1.00  0.00    -0.053 Br
HETATM   15  C12 UNL     1      23.776   2.065  52.140  1.00  0.00     0.222 C 
HETATM   16  O2  UNL     1      22.776   2.214  51.164  1.00  0.00    -0.343 OA
HETATM   17  C13 UNL     1      21.517   1.651  51.623  1.00  0.00     0.104 C 
HETATM   18  C14 UNL     1      20.818   1.519  52.784  1.00  0.00     0.067 C 
HETATM   19  C15 UNL     1      24.694  -0.483  52.636  1.00  0.00     0.163 C 
ENDROOT
BRANCH   1  20
HETATM   20  O1  UNL     1      20.924   0.869  49.297  1.00  0.00    -0.353 OA
HETATM   21  C1  UNL     1      20.826   1.913  48.377  1.00  0.00     0.210 C 
ENDBRANCH   1  20
TORSDOF 1
ENDMDL
MODEL 5
REMARK VINA RESULT:      -7.0      2.028      3.176
REMARK  1 active torsions:
REMARK  status: ('A' for Active; 'I' for Inactive)
REMARK    1  A    between atoms: O1_2  and  C2_3 
ROOT
HETATM    1  C2  UNL     1      24.184   0.993  52.767  1.00  0.00     0.098 C 
HETATM    2  C3  UNL     1      23.117   0.430  53.309  1.00  0.00     0.019 C 
HETATM    3  C4  UNL     1      21.743   0.974  53.188  1.00  0.00     0.089 C 
HETATM    4  C5  UNL     1      21.596   1.973  52.108  1.00  0.00     0.042 C 
HETATM    5  N1  UNL     1      21.266   2.956  51.404  1.00  0.00    -0.247 NA
HETATM    6  C6  UNL     1      20.393   4.032  51.633  1.00  0.00     0.228 C 
HETATM    7  N2  UNL     1      21.316   4.738  51.159  1.00  0.00    -0.263 NA
HETATM    8  C7  UNL     1      21.461   6.125  50.922  1.00  0.00     0.274 C 
HETATM    9  N3  UNL     1      22.838   6.535  50.947  1.00  0.00    -0.368 N 
HETATM   10  C8  UNL     1      23.863   7.513  50.692  1.00  0.00     0.088 C 
HETATM   11  C9  UNL     1      25.108   7.026  50.532  1.00  0.00     0.027 C 
HETATM   12  C10 UNL     1      24.847   5.593  50.489  1.00  0.00    -0.024 C 
HETATM   13  C11 UNL     1      25.453   4.529  49.920  1.00  0.00     0.021 C 
HETATM   14 BR1  UNL     1      27.049   4.875  48.947  1.00  0.00    -0.053 Br
HETATM   15  C12 UNL     1      24.590   3.350  50.045  1.00  0.00     0.222 C 
HETATM   16  O2  UNL     1      25.043   2.235  50.771  1.00  0.00    -0.343 OA
HETATM   17  C13 UNL     1      23.941   1.582  51.457  1.00  0.00     0.104 C 
HETATM   18  C14 UNL     1      22.620   1.318  51.251  1.00  0.00     0.067 C 
HETATM   19  C15 UNL     1      23.727   5.535  51.482  1.00  0.00     0.163 C 
ENDROOT
BRANCH   1  20
HETATM   20  O1  UNL     1      25.404   0.997  53.430  1.00  0.00    -0.353 OA
HETATM   21  C1  UNL     1      25.932  -0.106  54.100  1.00  0.00     0.210 C 
ENDBRANCH   1  20
TORSDOF 1
ENDMDL
MODEL 6
REMARK VINA RESULT:      -7.0      3.091      4.538
REMARK  1 active torsions:
REMARK  status: ('A' for Active; 'I' for Inactive)
REMARK    1  A    between atoms: O1_2  and  C2_3 
ROOT
HETATM    1  C2  UNL     1      26.074  -0.151  52.818  1.00  0.00     0.098 C 
HETATM    2  C3  UNL     1      27.138   0.589  52.552  1.00  0.00     0.019 C 
HETATM    3  C4  UNL     1      27.072   1.962  51.994  1.00  0.00     0.089 C 
HETATM    4  C5  UNL     1      25.736   2.584  52.113  1.00  0.00     0.042 C 
HETATM    5  N1  UNL     1      24.685   3.241  51.927  1.00  0.00    -0.247 NA
HETATM    6  C6  UNL     1      24.265   4.075  50.878  1.00  0.00     0.228 C 
HETATM    7  N2  UNL     1      23.176   3.459  50.971  1.00  0.00    -0.263 NA
HETATM    8  C7  UNL     1      21.943   3.546  50.283  1.00  0.00     0.274 C 
HETATM    9  N3  UNL     1      21.228   2.299  50.298  1.00  0.00    -0.368 N 
HETATM   10  C8  UNL     1      20.027   1.536  50.077  1.00  0.00     0.088 C 
HETATM   11  C9  UNL     1      19.927   0.390  50.776  1.00  0.00     0.027 C 
HETATM   12  C10 UNL     1      21.069   0.507  51.674  1.00  0.00    -0.024 C 
HETATM   13  C11 UNL     1      21.366   0.043  52.906  1.00  0.00     0.021 C 
HETATM   14 BR1  UNL     1      20.058  -1.055  53.742  1.00  0.00    -0.053 Br
HETATM   15  C12 UNL     1      22.595   0.683  53.387  1.00  0.00     0.222 C 
HETATM   16  O2  UNL     1      23.721  -0.108  53.669  1.00  0.00    -0.343 OA
HETATM   17  C13 UNL     1      24.947   0.604  53.349  1.00  0.00     0.104 C 
HETATM   18  C14 UNL     1      25.429   1.877  53.385  1.00  0.00     0.067 C 
HETATM   19  C15 UNL     1      22.026   1.184  50.740  1.00  0.00     0.163 C 
ENDROOT
BRANCH   1  20
HETATM   20  O1  UNL     1      26.082  -1.520  52.591  1.00  0.00    -0.353 OA
HETATM   21  C1  UNL     1      27.228  -2.314  52.644  1.00  0.00     0.210 C 
ENDBRANCH   1  20
TORSDOF 1
ENDMDL
MODEL 7
REMARK VINA RESULT:      -6.8      3.108      5.905
REMARK  1 active torsions:
REMARK  status: ('A' for Active; 'I' for Inactive)
REMARK    1  A    between atoms: O1_2  and  C2_3 
ROOT
HETATM    1  C2  UNL     1      19.938   0.525  51.838  1.00  0.00     0.098 C 
HETATM    2  C3  UNL     1      19.207  -0.336  52.527  1.00  0.00     0.019 C 
HETATM    3  C4  UNL     1      19.716  -1.114  53.683  1.00  0.00     0.089 C 
HETATM    4  C5  UNL     1      20.975  -0.581  54.246  1.00  0.00     0.042 C 
HETATM    5  N1  UNL     1      22.105  -0.444  54.769  1.00  0.00    -0.247 NA
HETATM    6  C6  UNL     1      23.041  -1.372  55.254  1.00  0.00     0.228 C 
HETATM    7  N2  UNL     1      23.884  -0.679  54.635  1.00  0.00    -0.263 NA
HETATM    8  C7  UNL     1      25.286  -0.768  54.463  1.00  0.00     0.274 C 
HETATM    9  N3  UNL     1      25.719  -0.158  53.237  1.00  0.00    -0.368 N 
HETATM   10  C8  UNL     1      26.764   0.343  52.383  1.00  0.00     0.088 C 
HETATM   11  C9  UNL     1      26.386   1.263  51.475  1.00  0.00     0.027 C 
HETATM   12  C10 UNL     1      25.016   1.528  51.896  1.00  0.00    -0.024 C 
HETATM   13  C11 UNL     1      24.178   2.583  51.812  1.00  0.00     0.021 C 
HETATM   14 BR1  UNL     1      24.842   4.130  50.928  1.00  0.00    -0.053 Br
HETATM   15  C12 UNL     1      22.983   2.325  52.622  1.00  0.00     0.222 C 
HETATM   16  O2  UNL     1      21.725   2.270  51.999  1.00  0.00    -0.343 OA
HETATM   17  C13 UNL     1      20.866   1.298  52.654  1.00  0.00     0.104 C 
HETATM   18  C14 UNL     1      20.626   0.825  53.909  1.00  0.00     0.067 C 
HETATM   19  C15 UNL     1      24.639   0.144  52.331  1.00  0.00     0.163 C 
ENDROOT
BRANCH   1  20
HETATM   20  O1  UNL     1      19.796   0.643  50.463  1.00  0.00    -0.353 OA
HETATM   21  C1  UNL     1      18.668   1.173  49.836  1.00  0.00     0.210 C 
ENDBRANCH   1  20
TORSDOF 1
ENDMDL
MODEL 8
REMARK VINA RESULT:      -6.7      3.361      6.083
REMARK  1 active torsions:
REMARK  status: ('A' for Active; 'I' for Inactive)
REMARK    1  A    between atoms: O1_2  and  C2_3 
ROOT
HETATM    1  C2  UNL     1      22.960   5.425  50.311  1.00  0.00     0.098 C 
HETATM    2  C3  UNL     1      24.063   6.093  50.016  1.00  0.00     0.019 C 
HETATM    3  C4  UNL     1      25.427   5.514  50.097  1.00  0.00     0.089 C 
HETATM    4  C5  UNL     1      25.438   4.037  50.161  1.00  0.00     0.042 C 
HETATM    5  N1  UNL     1      25.702   2.838  50.410  1.00  0.00    -0.247 NA
HETATM    6  C6  UNL     1      26.688   2.233  51.207  1.00  0.00     0.228 C 
HETATM    7  N2  UNL     1      25.751   1.510  51.625  1.00  0.00    -0.263 NA
HETATM    8  C7  UNL     1      25.675   0.453  52.562  1.00  0.00     0.274 C 
HETATM    9  N3  UNL     1      24.368   0.346  53.150  1.00  0.00    -0.368 N 
HETATM   10  C8  UNL     1      23.396  -0.375  53.930  1.00  0.00     0.088 C 
HETATM   11  C9  UNL     1      22.109  -0.059  53.695  1.00  0.00     0.027 C 
HETATM   12  C10 UNL     1      22.239   0.804  52.527  1.00  0.00    -0.024 C 
HETATM   13  C11 UNL     1      21.447   1.116  51.479  1.00  0.00     0.021 C 
HETATM   14 BR1  UNL     1      19.725   0.314  51.441  1.00  0.00    -0.053 Br
HETATM   15  C12 UNL     1      22.220   1.883  50.495  1.00  0.00     0.222 C 
HETATM   16  O2  UNL     1      21.829   3.196  50.182  1.00  0.00    -0.343 OA
HETATM   17  C13 UNL     1      22.988   4.027  49.901  1.00  0.00     0.104 C 
HETATM   18  C14 UNL     1      24.216   3.909  49.324  1.00  0.00     0.067 C 
HETATM   19  C15 UNL     1      23.524   1.484  52.887  1.00  0.00     0.163 C 
ENDROOT
BRANCH   1  20
HETATM   20  O1  UNL     1      21.899   6.047  50.955  1.00  0.00    -0.353 OA
HETATM   21  C1  UNL     1      21.508   7.365  50.721  1.00  0.00     0.210 C 
ENDBRANCH   1  20
TORSDOF 1
ENDMDL
MODEL 9
REMARK VINA RESULT:      -6.5      2.810      4.979
REMARK  1 active torsions:
REMARK  status: ('A' for Active; 'I' for Inactive)
REMARK    1  A    between atoms: O1_2  and  C2_3 
ROOT
HETATM    1  C2  UNL     1      20.758   1.260  51.650  1.00  0.00     0.098 C 
HETATM    2  C3  UNL     1      20.813   0.039  52.157  1.00  0.00     0.019 C 
HETATM    3  C4  UNL     1      22.064  -0.606  52.626  1.00  0.00     0.089 C 
HETATM    4  C5  UNL     1      23.176   0.345  52.838  1.00  0.00     0.042 C 
HETATM    5  N1  UNL     1      24.296   0.902  52.908  1.00  0.00    -0.247 NA
HETATM    6  C6  UNL     1      25.592   0.462  52.594  1.00  0.00     0.228 C 
HETATM    7  N2  UNL     1      25.717   1.579  52.035  1.00  0.00    -0.263 NA
HETATM    8  C7  UNL     1      26.772   2.207  51.332  1.00  0.00     0.274 C 
HETATM    9  N3  UNL     1      26.288   3.174  50.386  1.00  0.00    -0.368 N 
HETATM   10  C8  UNL     1      26.517   4.268  49.479  1.00  0.00     0.088 C 
HETATM   11  C9  UNL     1      25.450   5.050  49.227  1.00  0.00     0.027 C 
HETATM   12  C10 UNL     1      24.490   4.539  50.198  1.00  0.00    -0.024 C 
HETATM   13  C11 UNL     1      23.435   5.058  50.861  1.00  0.00     0.021 C 
HETATM   14 BR1  UNL     1      23.002   6.872  50.489  1.00  0.00    -0.053 Br
HETATM   15  C12 UNL     1      22.986   4.108  51.884  1.00  0.00     0.222 C 
HETATM   16  O2  UNL     1      21.686   3.579  51.812  1.00  0.00    -0.343 OA
HETATM   17  C13 UNL     1      21.658   2.208  52.294  1.00  0.00     0.104 C 
HETATM   18  C14 UNL     1      22.265   1.447  53.246  1.00  0.00     0.067 C 
HETATM   19  C15 UNL     1      24.868   3.090  50.152  1.00  0.00     0.163 C 
ENDROOT
BRANCH   1  20
HETATM   20  O1  UNL     1      19.904   1.559  50.598  1.00  0.00    -0.353 OA
HETATM   21  C1  UNL     1      20.296   1.598  49.260  1.00  0.00     0.210 C 
ENDBRANCH   1  20
TORSDOF 1
ENDMDL
