MODEL 1
REMARK VINA RESULT:      -8.1      0.000      0.000
REMARK  8 active torsions:
REMARK  status: ('A' for Active; 'I' for Inactive)
REMARK    1  A    between atoms: C3_3  and  C4_4 
REMARK    2  A    between atoms: C3_3  and  O2_25 
REMARK    3  A    between atoms: C4_4  and  C5_5 
REMARK    4  A    between atoms: C5_5  and  C6_6 
REMARK    5  A    between atoms: C7_7  and  C8_8 
REMARK    6  A    between atoms: C10_10  and  C11_11 
REMARK    7  A    between atoms: N2_18  and  C17_19 
REMARK    8  A    between atoms: C18_21  and  O1_22 
ROOT
HETATM    1  C8  UNL     1      22.661   1.083  52.773  1.00  0.00     0.197 C 
HETATM    2  C9  UNL     1      21.778   0.163  51.912  1.00  0.00     0.102 C 
HETATM    3  C10 UNL     1      20.477   0.750  52.319  1.00  0.00     0.068 C 
HETATM    4  N1  UNL     1      20.690   2.010  52.596  1.00  0.00    -0.173 NA
HETATM    5  N2  UNL     1      22.030   2.330  52.408  1.00  0.00    -0.229 N 
ENDROOT
BRANCH   1   6
HETATM    6  C7  UNL     1      24.021   1.072  52.346  1.00  0.00    -0.078 C 
HETATM    7  C6  UNL     1      25.130   1.070  51.979  1.00  0.00    -0.097 C 
BRANCH   7   8
HETATM    8  C5  UNL     1      26.472   1.050  51.553  1.00  0.00     0.123 C 
BRANCH   8   9
HETATM    9  C4  UNL     1      27.247   0.588  52.609  1.00  0.00     0.045 C 
BRANCH   9  10
HETATM   10  C3  UNL     1      28.294   0.129  53.548  1.00  0.00     0.043 C 
HETATM   11  C2  UNL     1      29.204  -0.730  54.050  1.00  0.00     0.001 C 
HETATM   12  C1  UNL     1      29.257  -1.988  53.268  1.00  0.00     0.038 C 
BRANCH  10  13
HETATM   13  O2  UNL     1      28.007   1.411  54.062  1.00  0.00    -0.360 OA
HETATM   14  C20 UNL     1      28.782   2.545  53.752  1.00  0.00     0.209 C 
ENDBRANCH  10  13
ENDBRANCH   9  10
ENDBRANCH   8   9
ENDBRANCH   7   8
ENDBRANCH   1   6
BRANCH   5  15
HETATM   15  C17 UNL     1      22.496   3.618  51.963  1.00  0.00     0.193 A 
HETATM   16  N3  UNL     1      23.306   4.491  52.485  1.00  0.00    -0.198 NA
HETATM   17  C18 UNL     1      23.590   5.597  51.921  1.00  0.00     0.171 A 
HETATM   18  C19 UNL     1      23.033   5.949  50.676  1.00  0.00     0.111 A 
HETATM   19  S1  UNL     1      21.989   4.486  50.318  1.00  0.00    -0.058 SA
BRANCH  17  20
HETATM   20  O1  UNL     1      24.379   6.701  52.193  1.00  0.00    -0.344 OA
HETATM   21  H15 UNL     1      24.153   7.652  51.947  1.00  0.00     0.219 HD
ENDBRANCH  17  20
ENDBRANCH   5  15
BRANCH   3  22
HETATM   22  C11 UNL     1      19.233  -0.013  52.372  1.00  0.00    -0.010 A 
HETATM   23  C12 UNL     1      18.235   0.174  51.446  1.00  0.00     0.013 A 
HETATM   24  C13 UNL     1      17.041  -0.557  51.494  1.00  0.00     0.001 A 
HETATM   25  C14 UNL     1      16.894  -1.474  52.501  1.00  0.00     0.000 A 
HETATM   26  C15 UNL     1      17.858  -1.726  53.480  1.00  0.00     0.001 A 
HETATM   27  C16 UNL     1      18.990  -0.957  53.344  1.00  0.00     0.013 A 
ENDBRANCH   3  22
TORSDOF 8
ENDMDL
MODEL 2
REMARK VINA RESULT:      -8.1      3.754      8.421
REMARK  8 active torsions:
REMARK  status: ('A' for Active; 'I' for Inactive)
REMARK    1  A    between atoms: C3_3  and  C4_4 
REMARK    2  A    between atoms: C3_3  and  O2_25 
REMARK    3  A    between atoms: C4_4  and  C5_5 
REMARK    4  A    between atoms: C5_5  and  C6_6 
REMARK    5  A    between atoms: C7_7  and  C8_8 
REMARK    6  A    between atoms: C10_10  and  C11_11 
REMARK    7  A    between atoms: N2_18  and  C17_19 
REMARK    8  A    between atoms: C18_21  and  O1_22 
ROOT
HETATM    1  C8  UNL     1      25.151   2.250  52.378  1.00  0.00     0.197 C 
HETATM    2  C9  UNL     1      24.897   2.657  50.917  1.00  0.00     0.102 C 
HETATM    3  C10 UNL     1      26.187   3.360  50.711  1.00  0.00     0.068 C 
HETATM    4  N1  UNL     1      27.071   2.779  51.480  1.00  0.00    -0.173 NA
HETATM    5  N2  UNL     1      26.488   1.737  52.191  1.00  0.00    -0.229 N 
ENDROOT
BRANCH   1   6
HETATM    6  C7  UNL     1      24.276   1.208  52.805  1.00  0.00    -0.078 C 
HETATM    7  C6  UNL     1      23.544   0.365  53.147  1.00  0.00    -0.097 C 
BRANCH   7   8
HETATM    8  C5  UNL     1      22.678  -0.659  53.578  1.00  0.00     0.123 C 
BRANCH   8   9
HETATM    9  C4  UNL     1      21.439  -0.446  52.986  1.00  0.00     0.045 C 
BRANCH   9  10
HETATM   10  C3  UNL     1      20.253   0.005  52.227  1.00  0.00     0.043 C 
HETATM   11  C2  UNL     1      19.598   0.559  51.186  1.00  0.00     0.001 C 
HETATM   12  C1  UNL     1      20.534   1.021  50.134  1.00  0.00     0.038 C 
BRANCH  10  13
HETATM   13  O2  UNL     1      19.649  -0.534  53.382  1.00  0.00    -0.360 OA
HETATM   14  C20 UNL     1      18.421  -1.221  53.347  1.00  0.00     0.209 C 
ENDBRANCH  10  13
ENDBRANCH   9  10
ENDBRANCH   8   9
ENDBRANCH   7   8
ENDBRANCH   1   6
BRANCH   5  15
HETATM   15  C17 UNL     1      27.181   0.530  52.564  1.00  0.00     0.193 A 
HETATM   16  N3  UNL     1      26.940  -0.728  52.341  1.00  0.00    -0.198 NA
HETATM   17  C18 UNL     1      27.690  -1.664  52.772  1.00  0.00     0.171 A 
HETATM   18  C19 UNL     1      28.844  -1.388  53.530  1.00  0.00     0.111 A 
HETATM   19  S1  UNL     1      28.802   0.443  53.602  1.00  0.00    -0.058 SA
BRANCH  17  20
HETATM   20  O1  UNL     1      27.720  -3.047  52.716  1.00  0.00    -0.344 OA
HETATM   21  H15 UNL     1      27.623  -3.597  51.878  1.00  0.00     0.219 HD
ENDBRANCH  17  20
ENDBRANCH   5  15
BRANCH   3  22
HETATM   22  C11 UNL     1      26.352   4.485  49.795  1.00  0.00    -0.010 A 
HETATM   23  C12 UNL     1      27.525   4.688  49.108  1.00  0.00     0.013 A 
HETATM   24  C13 UNL     1      27.686   5.766  48.228  1.00  0.00     0.001 A 
HETATM   25  C14 UNL     1      26.628   6.623  48.069  1.00  0.00     0.000 A 
HETATM   26  C15 UNL     1      25.403   6.488  48.727  1.00  0.00     0.001 A 
HETATM   27  C16 UNL     1      25.349   5.400  49.567  1.00  0.00     0.013 A 
ENDBRANCH   3  22
TORSDOF 8
ENDMDL
MODEL 3
REMARK VINA RESULT:      -7.9      2.549      7.832
REMARK  8 active torsions:
REMARK  status: ('A' for Active; 'I' for Inactive)
REMARK    1  A    between atoms: C3_3  and  C4_4 
REMARK    2  A    between atoms: C3_3  and  O2_25 
REMARK    3  A    between atoms: C4_4  and  C5_5 
REMARK    4  A    between atoms: C5_5  and  C6_6 
REMARK    5  A    between atoms: C7_7  and  C8_8 
REMARK    6  A    between atoms: C10_10  and  C11_11 
REMARK    7  A    between atoms: N2_18  and  C17_19 
REMARK    8  A    between atoms: C18_21  and  O1_22 
ROOT
HETATM    1  C8  UNL     1      24.016  -0.104  52.819  1.00  0.00     0.197 C 
HETATM    2  C9  UNL     1      25.121  -0.161  53.889  1.00  0.00     0.102 C 
HETATM    3  C10 UNL     1      26.249   0.175  52.985  1.00  0.00     0.068 C 
HETATM    4  N1  UNL     1      25.771   0.938  52.037  1.00  0.00    -0.173 NA
HETATM    5  N2  UNL     1      24.410   1.151  52.222  1.00  0.00    -0.229 N 
ENDROOT
BRANCH   1   6
HETATM    6  C7  UNL     1      22.717   0.007  53.394  1.00  0.00    -0.078 C 
HETATM    7  C6  UNL     1      21.657   0.084  53.879  1.00  0.00    -0.097 C 
BRANCH   7   8
HETATM    8  C5  UNL     1      20.370   0.185  54.441  1.00  0.00     0.123 C 
BRANCH   8   9
HETATM    9  C4  UNL     1      19.453  -0.226  53.481  1.00  0.00     0.045 C 
BRANCH   9  10
HETATM   10  C3  UNL     1      18.403  -0.383  52.452  1.00  0.00     0.043 C 
HETATM   11  C2  UNL     1      17.837  -0.219  51.238  1.00  0.00     0.001 C 
HETATM   12  C1  UNL     1      18.702   0.575  50.335  1.00  0.00     0.038 C 
BRANCH  10  13
HETATM   13  O2  UNL     1      17.836  -1.093  53.531  1.00  0.00    -0.360 OA
HETATM   14  C20 UNL     1      17.774  -2.499  53.567  1.00  0.00     0.209 C 
ENDBRANCH  10  13
ENDBRANCH   9  10
ENDBRANCH   8   9
ENDBRANCH   7   8
ENDBRANCH   1   6
BRANCH   5  15
HETATM   15  C17 UNL     1      23.728   2.367  51.857  1.00  0.00     0.193 A 
HETATM   16  N3  UNL     1      23.737   3.566  52.357  1.00  0.00    -0.198 NA
HETATM   17  C18 UNL     1      23.044   4.522  51.879  1.00  0.00     0.171 A 
HETATM   18  C19 UNL     1      22.209   4.334  50.761  1.00  0.00     0.111 A 
HETATM   19  S1  UNL     1      22.492   2.560  50.391  1.00  0.00    -0.058 SA
BRANCH  17  20
HETATM   20  O1  UNL     1      22.831   5.861  52.160  1.00  0.00    -0.344 OA
HETATM   21  H15 UNL     1      23.473   6.460  52.654  1.00  0.00     0.219 HD
ENDBRANCH  17  20
ENDBRANCH   5  15
BRANCH   3  22
HETATM   22  C11 UNL     1      27.613  -0.302  53.192  1.00  0.00    -0.010 A 
HETATM   23  C12 UNL     1      28.634   0.558  53.522  1.00  0.00     0.013 A 
HETATM   24  C13 UNL     1      29.943   0.103  53.722  1.00  0.00     0.001 A 
HETATM   25  C14 UNL     1      30.182  -1.239  53.579  1.00  0.00     0.000 A 
HETATM   26  C15 UNL     1      29.202  -2.179  53.248  1.00  0.00     0.001 A 
HETATM   27  C16 UNL     1      27.954  -1.631  53.073  1.00  0.00     0.013 A 
ENDBRANCH   3  22
TORSDOF 8
ENDMDL
MODEL 4
REMARK VINA RESULT:      -7.9      2.718      7.384
REMARK  8 active torsions:
REMARK  status: ('A' for Active; 'I' for Inactive)
REMARK    1  A    between atoms: C3_3  and  C4_4 
REMARK    2  A    between atoms: C3_3  and  O2_25 
REMARK    3  A    between atoms: C4_4  and  C5_5 
REMARK    4  A    between atoms: C5_5  and  C6_6 
REMARK    5  A    between atoms: C7_7  and  C8_8 
REMARK    6  A    between atoms: C10_10  and  C11_11 
REMARK    7  A    between atoms: N2_18  and  C17_19 
REMARK    8  A    between atoms: C18_21  and  O1_22 
ROOT
HETATM    1  C8  UNL     1      24.845   1.890  53.408  1.00  0.00     0.197 C 
HETATM    2  C9  UNL     1      25.986   1.380  52.511  1.00  0.00     0.102 C 
HETATM    3  C10 UNL     1      26.106   0.040  53.136  1.00  0.00     0.068 C 
HETATM    4  N1  UNL     1      24.920  -0.287  53.581  1.00  0.00    -0.173 NA
HETATM    5  N2  UNL     1      24.003   0.721  53.308  1.00  0.00    -0.229 N 
ENDROOT
BRANCH   1   6
HETATM    6  C7  UNL     1      24.187   3.024  52.846  1.00  0.00    -0.078 C 
HETATM    7  C6  UNL     1      23.635   3.940  52.378  1.00  0.00    -0.097 C 
BRANCH   7   8
HETATM    8  C5  UNL     1      22.991   5.058  51.813  1.00  0.00     0.123 C 
BRANCH   8   9
HETATM    9  C4  UNL     1      23.798   5.543  50.791  1.00  0.00     0.045 C 
BRANCH   9  10
HETATM   10  C3  UNL     1      24.827   5.833  49.770  1.00  0.00     0.043 C 
HETATM   11  C2  UNL     1      25.928   5.589  49.030  1.00  0.00     0.001 C 
HETATM   12  C1  UNL     1      26.538   4.283  49.375  1.00  0.00     0.038 C 
BRANCH  10  13
HETATM   13  O2  UNL     1      24.018   6.986  49.679  1.00  0.00    -0.360 OA
HETATM   14  C20 UNL     1      24.339   8.193  50.328  1.00  0.00     0.209 C 
ENDBRANCH  10  13
ENDBRANCH   9  10
ENDBRANCH   8   9
ENDBRANCH   7   8
ENDBRANCH   1   6
BRANCH   5  15
HETATM   15  C17 UNL     1      22.610   0.486  53.022  1.00  0.00     0.193 A 
HETATM   16  N3  UNL     1      21.624   0.047  53.746  1.00  0.00    -0.198 NA
HETATM   17  C18 UNL     1      20.442  -0.096  53.294  1.00  0.00     0.171 A 
HETATM   18  C19 UNL     1      20.126   0.217  51.958  1.00  0.00     0.111 A 
HETATM   19  S1  UNL     1      21.751   0.779  51.322  1.00  0.00    -0.058 SA
BRANCH  17  20
HETATM   20  O1  UNL     1      19.215  -0.520  53.776  1.00  0.00    -0.344 OA
HETATM   21  H15 UNL     1      19.028  -0.794  54.727  1.00  0.00     0.219 HD
ENDBRANCH  17  20
ENDBRANCH   5  15
BRANCH   3  22
HETATM   22  C11 UNL     1      27.358  -0.709  53.199  1.00  0.00    -0.010 A 
HETATM   23  C12 UNL     1      27.413  -2.046  52.886  1.00  0.00     0.013 A 
HETATM   24  C13 UNL     1      28.613  -2.767  52.945  1.00  0.00     0.001 A 
HETATM   25  C14 UNL     1      29.744  -2.093  53.326  1.00  0.00     0.000 A 
HETATM   26  C15 UNL     1      29.774  -0.736  53.658  1.00  0.00     0.001 A 
HETATM   27  C16 UNL     1      28.547  -0.123  53.569  1.00  0.00     0.013 A 
ENDBRANCH   3  22
TORSDOF 8
ENDMDL
MODEL 5
REMARK VINA RESULT:      -7.6      3.050      7.866
REMARK  8 active torsions:
REMARK  status: ('A' for Active; 'I' for Inactive)
REMARK    1  A    between atoms: C3_3  and  C4_4 
REMARK    2  A    between atoms: C3_3  and  O2_25 
REMARK    3  A    between atoms: C4_4  and  C5_5 
REMARK    4  A    between atoms: C5_5  and  C6_6 
REMARK    5  A    between atoms: C7_7  and  C8_8 
REMARK    6  A    between atoms: C10_10  and  C11_11 
REMARK    7  A    between atoms: N2_18  and  C17_19 
REMARK    8  A    between atoms: C18_21  and  O1_22 
ROOT
HETATM    1  C8  UNL     1      24.566   2.047  53.114  1.00  0.00     0.197 C 
HETATM    2  C9  UNL     1      25.689   1.468  52.236  1.00  0.00     0.102 C 
HETATM    3  C10 UNL     1      25.966   0.279  53.079  1.00  0.00     0.068 C 
HETATM    4  N1  UNL     1      24.845  -0.048  53.667  1.00  0.00    -0.173 NA
HETATM    5  N2  UNL     1      23.826   0.819  53.291  1.00  0.00    -0.229 N 
ENDROOT
BRANCH   1   6
HETATM    6  C7  UNL     1      23.776   3.005  52.413  1.00  0.00    -0.078 C 
HETATM    7  C6  UNL     1      23.138   3.803  51.848  1.00  0.00    -0.097 C 
BRANCH   7   8
HETATM    8  C5  UNL     1      22.350   4.749  51.164  1.00  0.00     0.123 C 
BRANCH   8   9
HETATM    9  C4  UNL     1      21.374   4.058  50.457  1.00  0.00     0.045 C 
BRANCH   9  10
HETATM   10  C3  UNL     1      20.543   3.123  49.669  1.00  0.00     0.043 C 
HETATM   11  C2  UNL     1      20.309   2.075  48.852  1.00  0.00     0.001 C 
HETATM   12  C1  UNL     1      21.568   1.403  48.452  1.00  0.00     0.038 C 
BRANCH  10  13
HETATM   13  O2  UNL     1      19.556   3.963  50.226  1.00  0.00    -0.360 OA
HETATM   14  C20 UNL     1      18.867   3.643  51.412  1.00  0.00     0.209 C 
ENDBRANCH  10  13
ENDBRANCH   9  10
ENDBRANCH   8   9
ENDBRANCH   7   8
ENDBRANCH   1   6
BRANCH   5  15
HETATM   15  C17 UNL     1      22.444   0.431  53.162  1.00  0.00     0.193 A 
HETATM   16  N3  UNL     1      21.596   0.510  52.180  1.00  0.00    -0.198 NA
HETATM   17  C18 UNL     1      20.391   0.106  52.271  1.00  0.00     0.171 A 
HETATM   18  C19 UNL     1      19.896  -0.459  53.462  1.00  0.00     0.111 A 
HETATM   19  S1  UNL     1      21.374  -0.379  54.544  1.00  0.00    -0.058 SA
BRANCH  17  20
HETATM   20  O1  UNL     1      19.276   0.046  51.453  1.00  0.00    -0.344 OA
HETATM   21  H15 UNL     1      19.244  -0.391  50.546  1.00  0.00     0.219 HD
ENDBRANCH  17  20
ENDBRANCH   5  15
BRANCH   3  22
HETATM   22  C11 UNL     1      27.281  -0.349  53.175  1.00  0.00    -0.010 A 
HETATM   23  C12 UNL     1      27.457  -1.690  52.935  1.00  0.00     0.013 A 
HETATM   24  C13 UNL     1      28.717  -2.295  53.026  1.00  0.00     0.001 A 
HETATM   25  C14 UNL     1      29.783  -1.502  53.365  1.00  0.00     0.000 A 
HETATM   26  C15 UNL     1      29.690  -0.132  53.623  1.00  0.00     0.001 A 
HETATM   27  C16 UNL     1      28.412   0.362  53.508  1.00  0.00     0.013 A 
ENDBRANCH   3  22
TORSDOF 8
ENDMDL
MODEL 6
REMARK VINA RESULT:      -7.3      3.065      7.196
REMARK  8 active torsions:
REMARK  status: ('A' for Active; 'I' for Inactive)
REMARK    1  A    between atoms: C3_3  and  C4_4 
REMARK    2  A    between atoms: C3_3  and  O2_25 
REMARK    3  A    between atoms: C4_4  and  C5_5 
REMARK    4  A    between atoms: C5_5  and  C6_6 
REMARK    5  A    between atoms: C7_7  and  C8_8 
REMARK    6  A    between atoms: C10_10  and  C11_11 
REMARK    7  A    between atoms: N2_18  and  C17_19 
REMARK    8  A    between atoms: C18_21  and  O1_22 
ROOT
HETATM    1  C8  UNL     1      25.547   2.809  51.663  1.00  0.00     0.197 C 
HETATM    2  C9  UNL     1      26.390   1.663  51.077  1.00  0.00     0.102 C 
HETATM    3  C10 UNL     1      26.180   0.711  52.196  1.00  0.00     0.068 C 
HETATM    4  N1  UNL     1      25.005   0.968  52.707  1.00  0.00    -0.173 NA
HETATM    5  N2  UNL     1      24.396   2.016  52.027  1.00  0.00    -0.229 N 
ENDROOT
BRANCH   1   6
HETATM    6  C7  UNL     1      25.192   3.773  50.674  1.00  0.00    -0.078 C 
HETATM    7  C6  UNL     1      24.919   4.564  49.859  1.00  0.00    -0.097 C 
BRANCH   7   8
HETATM    8  C5  UNL     1      24.570   5.524  48.890  1.00  0.00     0.123 C 
BRANCH   8   9
HETATM    9  C4  UNL     1      25.616   6.434  48.796  1.00  0.00     0.045 C 
BRANCH   9  10
HETATM   10  C3  UNL     1      26.850   7.241  48.906  1.00  0.00     0.043 C 
HETATM   11  C2  UNL     1      27.614   8.266  49.336  1.00  0.00     0.001 C 
HETATM   12  C1  UNL     1      26.857   9.175  50.230  1.00  0.00     0.038 C 
BRANCH  10  13
HETATM   13  O2  UNL     1      27.277   6.205  48.049  1.00  0.00    -0.360 OA
HETATM   14  C20 UNL     1      28.333   5.333  48.378  1.00  0.00     0.209 C 
ENDBRANCH  10  13
ENDBRANCH   9  10
ENDBRANCH   8   9
ENDBRANCH   7   8
ENDBRANCH   1   6
BRANCH   5  15
HETATM   15  C17 UNL     1      22.973   2.129  51.829  1.00  0.00     0.193 A 
HETATM   16  N3  UNL     1      22.060   2.859  52.397  1.00  0.00    -0.198 NA
HETATM   17  C18 UNL     1      20.829   2.806  52.073  1.00  0.00     0.171 A 
HETATM   18  C19 UNL     1      20.374   1.936  51.063  1.00  0.00     0.111 A 
HETATM   19  S1  UNL     1      21.937   1.126  50.550  1.00  0.00    -0.058 SA
BRANCH  17  20
HETATM   20  O1  UNL     1      19.650   3.419  52.461  1.00  0.00    -0.344 OA
HETATM   21  H15 UNL     1      19.422   4.388  52.308  1.00  0.00     0.219 HD
ENDBRANCH  17  20
ENDBRANCH   5  15
BRANCH   3  22
HETATM   22  C11 UNL     1      27.160  -0.299  52.586  1.00  0.00    -0.010 A 
HETATM   23  C12 UNL     1      28.374   0.049  53.129  1.00  0.00     0.013 A 
HETATM   24  C13 UNL     1      29.316  -0.918  53.504  1.00  0.00     0.001 A 
HETATM   25  C14 UNL     1      28.989  -2.235  53.314  1.00  0.00     0.000 A 
HETATM   26  C15 UNL     1      27.779  -2.672  52.770  1.00  0.00     0.001 A 
HETATM   27  C16 UNL     1      26.926  -1.647  52.435  1.00  0.00     0.013 A 
ENDBRANCH   3  22
TORSDOF 8
ENDMDL
MODEL 7
REMARK VINA RESULT:      -7.2      2.453      7.260
REMARK  8 active torsions:
REMARK  status: ('A' for Active; 'I' for Inactive)
REMARK    1  A    between atoms: C3_3  and  C4_4 
REMARK    2  A    between atoms: C3_3  and  O2_25 
REMARK    3  A    between atoms: C4_4  and  C5_5 
REMARK    4  A    between atoms: C5_5  and  C6_6 
REMARK    5  A    between atoms: C7_7  and  C8_8 
REMARK    6  A    between atoms: C10_10  and  C11_11 
REMARK    7  A    between atoms: N2_18  and  C17_19 
REMARK    8  A    between atoms: C18_21  and  O1_22 
ROOT
HETATM    1  C8  UNL     1      23.782   1.593  51.028  1.00  0.00     0.197 C 
HETATM    2  C9  UNL     1      24.214   1.257  52.466  1.00  0.00     0.102 C 
HETATM    3  C10 UNL     1      25.505   1.987  52.430  1.00  0.00     0.068 C 
HETATM    4  N1  UNL     1      25.358   2.992  51.607  1.00  0.00    -0.173 NA
HETATM    5  N2  UNL     1      24.071   3.008  51.082  1.00  0.00    -0.229 N 
ENDROOT
BRANCH   1   6
HETATM    6  C7  UNL     1      22.388   1.380  50.823  1.00  0.00    -0.078 C 
HETATM    7  C6  UNL     1      21.248   1.205  50.636  1.00  0.00    -0.097 C 
BRANCH   7   8
HETATM    8  C5  UNL     1      19.869   1.005  50.432  1.00  0.00     0.123 C 
BRANCH   8   9
HETATM    9  C4  UNL     1      19.380   0.277  51.509  1.00  0.00     0.045 C 
BRANCH   9  10
HETATM   10  C3  UNL     1      19.139  -0.565  52.701  1.00  0.00     0.043 C 
HETATM   11  C2  UNL     1      19.480  -1.241  53.817  1.00  0.00     0.001 C 
HETATM   12  C1  UNL     1      20.932  -1.142  54.095  1.00  0.00     0.038 C 
BRANCH  10  13
HETATM   13  O2  UNL     1      17.836  -0.461  52.171  1.00  0.00    -0.360 OA
HETATM   14  C20 UNL     1      16.724  -1.093  52.759  1.00  0.00     0.209 C 
ENDBRANCH  10  13
ENDBRANCH   9  10
ENDBRANCH   8   9
ENDBRANCH   7   8
ENDBRANCH   1   6
BRANCH   5  15
HETATM   15  C17 UNL     1      23.357   4.210  50.734  1.00  0.00     0.193 A 
HETATM   16  N3  UNL     1      22.897   5.197  51.443  1.00  0.00    -0.198 NA
HETATM   17  C18 UNL     1      22.276   6.186  50.934  1.00  0.00     0.171 A 
HETATM   18  C19 UNL     1      22.044   6.270  49.547  1.00  0.00     0.111 A 
HETATM   19  S1  UNL     1      22.832   4.726  48.953  1.00  0.00    -0.058 SA
BRANCH  17  20
HETATM   20  O1  UNL     1      21.681   7.352  51.384  1.00  0.00    -0.344 OA
HETATM   21  H15 UNL     1      20.689   7.508  51.458  1.00  0.00     0.219 HD
ENDBRANCH  17  20
ENDBRANCH   5  15
BRANCH   3  22
HETATM   22  C11 UNL     1      26.676   1.588  53.206  1.00  0.00    -0.010 A 
HETATM   23  C12 UNL     1      27.849   2.301  53.157  1.00  0.00     0.013 A 
HETATM   24  C13 UNL     1      28.974   1.921  53.900  1.00  0.00     0.001 A 
HETATM   25  C14 UNL     1      28.870   0.804  54.688  1.00  0.00     0.000 A 
HETATM   26  C15 UNL     1      27.715   0.025  54.797  1.00  0.00     0.001 A 
HETATM   27  C16 UNL     1      26.671   0.483  54.027  1.00  0.00     0.013 A 
ENDBRANCH   3  22
TORSDOF 8
ENDMDL
MODEL 8
REMARK VINA RESULT:      -7.2      3.042      7.756
REMARK  8 active torsions:
REMARK  status: ('A' for Active; 'I' for Inactive)
REMARK    1  A    between atoms: C3_3  and  C4_4 
REMARK    2  A    between atoms: C3_3  and  O2_25 
REMARK    3  A    between atoms: C4_4  and  C5_5 
REMARK    4  A    between atoms: C5_5  and  C6_6 
REMARK    5  A    between atoms: C7_7  and  C8_8 
REMARK    6  A    between atoms: C10_10  and  C11_11 
REMARK    7  A    between atoms: N2_18  and  C17_19 
REMARK    8  A    between atoms: C18_21  and  O1_22 
ROOT
HETATM    1  C8  UNL     1      23.578   2.674  52.461  1.00  0.00     0.197 C 
HETATM    2  C9  UNL     1      23.303   2.798  50.952  1.00  0.00     0.102 C 
HETATM    3  C10 UNL     1      24.350   3.812  50.673  1.00  0.00     0.068 C 
HETATM    4  N1  UNL     1      25.316   3.616  51.531  1.00  0.00    -0.173 NA
HETATM    5  N2  UNL     1      25.014   2.551  52.371  1.00  0.00    -0.229 N 
ENDROOT
BRANCH   1   6
HETATM    6  C7  UNL     1      23.012   1.487  53.013  1.00  0.00    -0.078 C 
HETATM    7  C6  UNL     1      22.563   0.505  53.457  1.00  0.00    -0.097 C 
BRANCH   7   8
HETATM    8  C5  UNL     1      21.999  -0.669  53.993  1.00  0.00     0.123 C 
BRANCH   8   9
HETATM    9  C4  UNL     1      20.696  -0.768  53.522  1.00  0.00     0.045 C 
BRANCH   9  10
HETATM   10  C3  UNL     1      19.368  -0.623  52.888  1.00  0.00     0.043 C 
HETATM   11  C2  UNL     1      18.453  -0.072  52.064  1.00  0.00     0.001 C 
HETATM   12  C1  UNL     1      19.017   1.072  51.308  1.00  0.00     0.038 C 
BRANCH  10  13
HETATM   13  O2  UNL     1      19.146  -1.728  53.736  1.00  0.00    -0.360 OA
HETATM   14  C20 UNL     1      17.949  -2.469  53.722  1.00  0.00     0.209 C 
ENDBRANCH  10  13
ENDBRANCH   9  10
ENDBRANCH   8   9
ENDBRANCH   7   8
ENDBRANCH   1   6
BRANCH   5  15
HETATM   15  C17 UNL     1      25.999   1.655  52.922  1.00  0.00     0.193 A 
HETATM   16  N3  UNL     1      26.800   1.746  53.941  1.00  0.00    -0.198 NA
HETATM   17  C18 UNL     1      27.617   0.824  54.265  1.00  0.00     0.171 A 
HETATM   18  C19 UNL     1      27.704  -0.371  53.526  1.00  0.00     0.111 A 
HETATM   19  S1  UNL     1      26.444  -0.086  52.225  1.00  0.00    -0.058 SA
BRANCH  17  20
HETATM   20  O1  UNL     1      28.568   0.610  55.248  1.00  0.00    -0.344 OA
HETATM   21  H15 UNL     1      28.583   1.059  56.150  1.00  0.00     0.219 HD
ENDBRANCH  17  20
ENDBRANCH   5  15
BRANCH   3  22
HETATM   22  C11 UNL     1      24.240   4.808  49.611  1.00  0.00    -0.010 A 
HETATM   23  C12 UNL     1      23.137   4.872  48.795  1.00  0.00     0.013 A 
HETATM   24  C13 UNL     1      23.029   5.828  47.777  1.00  0.00     0.001 A 
HETATM   25  C14 UNL     1      24.067   6.708  47.615  1.00  0.00     0.000 A 
HETATM   26  C15 UNL     1      25.221   6.712  48.401  1.00  0.00     0.001 A 
HETATM   27  C16 UNL     1      25.228   5.736  49.370  1.00  0.00     0.013 A 
ENDBRANCH   3  22
TORSDOF 8
ENDMDL
MODEL 9
REMARK VINA RESULT:      -7.1      3.923      6.038
REMARK  8 active torsions:
REMARK  status: ('A' for Active; 'I' for Inactive)
REMARK    1  A    between atoms: C3_3  and  C4_4 
REMARK    2  A    between atoms: C3_3  and  O2_25 
REMARK    3  A    between atoms: C4_4  and  C5_5 
REMARK    4  A    between atoms: C5_5  and  C6_6 
REMARK    5  A    between atoms: C7_7  and  C8_8 
REMARK    6  A    between atoms: C10_10  and  C11_11 
REMARK    7  A    between atoms: N2_18  and  C17_19 
REMARK    8  A    between atoms: C18_21  and  O1_22 
ROOT
HETATM    1  C8  UNL     1      24.348   3.584  50.918  1.00  0.00     0.197 C 
HETATM    2  C9  UNL     1      24.437   2.101  51.318  1.00  0.00     0.102 C 
HETATM    3  C10 UNL     1      23.010   1.942  51.695  1.00  0.00     0.068 C 
HETATM    4  N1  UNL     1      22.320   2.770  50.954  1.00  0.00    -0.173 NA
HETATM    5  N2  UNL     1      23.160   3.478  50.103  1.00  0.00    -0.229 N 
ENDROOT
BRANCH   1   6
HETATM    6  C7  UNL     1      25.459   3.993  50.124  1.00  0.00    -0.078 C 
HETATM    7  C6  UNL     1      26.357   4.332  49.459  1.00  0.00    -0.097 C 
BRANCH   7   8
HETATM    8  C5  UNL     1      27.455   4.725  48.670  1.00  0.00     0.123 C 
BRANCH   8   9
HETATM    9  C4  UNL     1      27.366   6.097  48.470  1.00  0.00     0.045 C 
BRANCH   9  10
HETATM   10  C3  UNL     1      27.021   7.493  48.124  1.00  0.00     0.043 C 
HETATM   11  C2  UNL     1      26.313   8.471  47.524  1.00  0.00     0.001 C 
HETATM   12  C1  UNL     1      25.209   7.921  46.702  1.00  0.00     0.038 C 
BRANCH  10  13
HETATM   13  O2  UNL     1      28.129   7.688  48.975  1.00  0.00    -0.360 OA
HETATM   14  C20 UNL     1      29.032   8.756  48.815  1.00  0.00     0.209 C 
ENDBRANCH  10  13
ENDBRANCH   9  10
ENDBRANCH   8   9
ENDBRANCH   7   8
ENDBRANCH   1   6
BRANCH   5  15
HETATM   15  C17 UNL     1      22.785   3.917  48.783  1.00  0.00     0.193 A 
HETATM   16  N3  UNL     1      22.551   3.277  47.675  1.00  0.00    -0.198 NA
HETATM   17  C18 UNL     1      22.230   3.864  46.591  1.00  0.00     0.171 A 
HETATM   18  C19 UNL     1      22.107   5.265  46.524  1.00  0.00     0.111 A 
HETATM   19  S1  UNL     1      22.509   5.747  48.247  1.00  0.00    -0.058 SA
BRANCH  17  20
HETATM   20  O1  UNL     1      21.927   3.498  45.290  1.00  0.00    -0.344 OA
HETATM   21  H15 UNL     1      21.423   2.668  45.023  1.00  0.00     0.219 HD
ENDBRANCH  17  20
ENDBRANCH   5  15
BRANCH   3  22
HETATM   22  C11 UNL     1      22.549   1.006  52.716  1.00  0.00    -0.010 A 
HETATM   23  C12 UNL     1      23.382   0.050  53.245  1.00  0.00     0.013 A 
HETATM   24  C13 UNL     1      22.942  -0.849  54.226  1.00  0.00     0.001 A 
HETATM   25  C14 UNL     1      21.642  -0.745  54.648  1.00  0.00     0.000 A 
HETATM   26  C15 UNL     1      20.732   0.198  54.164  1.00  0.00     0.001 A 
HETATM   27  C16 UNL     1      21.263   1.029  53.207  1.00  0.00     0.013 A 
ENDBRANCH   3  22
TORSDOF 8
ENDMDL
