MODEL 1
REMARK VINA RESULT:      -7.6      0.000      0.000
REMARK  5 active torsions:
REMARK  status: ('A' for Active; 'I' for Inactive)
REMARK    1  A    between atoms: C6_8  and  N3_9 
REMARK    2  A    between atoms: N3_9  and  C7_10 
REMARK    3  A    between atoms: C10_15  and  C11_16 
REMARK    4  A    between atoms: P1_20  and  O2_21 
REMARK    5  A    between atoms: P1_20  and  C15_23 
ROOT
HETATM    1  C7  UNL     1      24.061  -0.244  53.783  1.00  0.00     0.123 A 
HETATM    2  N4  UNL     1      24.063  -1.070  54.819  1.00  0.00    -0.227 NA
HETATM    3  C8  UNL     1      22.878  -1.383  55.344  1.00  0.00     0.235 A 
HETATM    4  N5  UNL     1      21.630  -0.975  54.969  1.00  0.00    -0.244 NA
HETATM    5  C9  UNL     1      21.398  -0.199  54.022  1.00  0.00     0.068 A 
HETATM    6  C10 UNL     1      22.708   0.206  53.369  1.00  0.00     0.107 A 
HETATM    7  C15 UNL     1      21.210   0.511  53.153  1.00  0.00     0.018 A 
ENDROOT
BRANCH   1   8
HETATM    8  N3  UNL     1      25.175   0.233  53.061  1.00  0.00    -0.349 N 
HETATM    9  H8  UNL     1      25.483   0.510  52.140  1.00  0.00     0.163 HD
BRANCH   8  10
HETATM   10  C6  UNL     1      26.283   0.389  53.921  1.00  0.00     0.258 A 
HETATM   11  C2  UNL     1      27.472  -0.436  53.507  1.00  0.00     0.072 A 
HETATM   12  N1  UNL     1      27.245  -1.691  53.317  1.00  0.00    -0.295 NA
HETATM   13  C3  UNL     1      28.807   0.122  53.323  1.00  0.00     0.032 A 
HETATM   14  C1  UNL     1      28.237  -2.647  52.920  1.00  0.00     0.178 C 
HETATM   15  C4  UNL     1      29.061   1.415  53.493  1.00  0.00     0.021 A 
HETATM   16  C5  UNL     1      27.887   2.211  53.878  1.00  0.00     0.113 A 
HETATM   17  N2  UNL     1      26.686   1.779  54.063  1.00  0.00    -0.270 NA
ENDBRANCH   8  10
ENDBRANCH   1   8
BRANCH   6  18
HETATM   18  C11 UNL     1      22.570   1.204  52.134  1.00  0.00     0.085 A 
HETATM   19  C12 UNL     1      23.144   2.813  52.411  1.00  0.00     0.048 A 
HETATM   20  O1  UNL     1      22.571   2.496  51.030  1.00  0.00     0.000 OA
HETATM   21  P1  UNL     1      23.182   2.460  52.821  1.00  0.00     0.026 P 
HETATM   22  C13 UNL     1      23.400   2.182  49.923  1.00  0.00     0.000 C 
BRANCH  21  23
HETATM   23  O2  UNL     1      23.038   4.258  50.933  1.00  0.00    -0.369 OA
HETATM   24  C14 UNL     1      23.339   5.054  52.065  1.00  0.00     0.207 C 
ENDBRANCH  21  23
ENDBRANCH   6  18
TORSDOF 5
ENDMDL
MODEL 2
REMARK VINA RESULT:      -7.5      1.806      5.044
REMARK  5 active torsions:
REMARK  status: ('A' for Active; 'I' for Inactive)
REMARK    1  A    between atoms: C6_8  and  N3_9 
REMARK    2  A    between atoms: N3_9  and  C7_10 
REMARK    3  A    between atoms: C10_15  and  C11_16 
REMARK    4  A    between atoms: P1_20  and  O2_21 
REMARK    5  A    between atoms: P1_20  and  C15_23 
ROOT
HETATM    1  C7  UNL     1      27.028  -0.414  53.142  1.00  0.00     0.123 A 
HETATM    2  N4  UNL     1      27.935  -1.346  53.400  1.00  0.00    -0.227 NA
HETATM    3  C8  UNL     1      29.160  -0.926  53.717  1.00  0.00     0.235 A 
HETATM    4  N5  UNL     1      29.638   0.350  53.819  1.00  0.00    -0.244 NA
HETATM    5  C9  UNL     1      28.958   1.375  53.619  1.00  0.00     0.068 A 
HETATM    6  C10 UNL     1      27.540   0.975  53.250  1.00  0.00     0.107 A 
HETATM    7  C15 UNL     1      28.318   2.296  53.431  1.00  0.00     0.018 A 
ENDROOT
BRANCH   1   8
HETATM    8  N3  UNL     1      25.676  -0.604  52.788  1.00  0.00    -0.349 N 
HETATM    9  H8  UNL     1      25.072  -0.926  52.045  1.00  0.00     0.163 HD
BRANCH   8  10
HETATM   10  C6  UNL     1      24.834  -0.201  53.847  1.00  0.00     0.258 A 
HETATM   11  C2  UNL     1      23.371  -0.346  53.525  1.00  0.00     0.072 A 
HETATM   12  N1  UNL     1      22.980   0.206  52.427  1.00  0.00    -0.295 NA
HETATM   13  C3  UNL     1      22.432  -1.062  54.381  1.00  0.00     0.032 A 
HETATM   14  C1  UNL     1      21.633   0.184  51.939  1.00  0.00     0.178 C 
HETATM   15  C4  UNL     1      22.814  -1.657  55.506  1.00  0.00     0.021 A 
HETATM   16  C5  UNL     1      24.249  -1.524  55.796  1.00  0.00     0.113 A 
HETATM   17  N2  UNL     1      25.127  -0.901  55.088  1.00  0.00    -0.270 NA
ENDBRANCH   8  10
ENDBRANCH   1   8
BRANCH   6  18
HETATM   18  C11 UNL     1      26.547   2.189  52.963  1.00  0.00     0.085 A 
HETATM   19  C12 UNL     1      26.162   2.455  51.296  1.00  0.00     0.048 A 
HETATM   20  O1  UNL     1      25.523   3.387  52.326  1.00  0.00     0.000 OA
HETATM   21  P1  UNL     1      26.499   2.046  51.413  1.00  0.00     0.026 P 
HETATM   22  C13 UNL     1      24.201   3.192  52.802  1.00  0.00     0.000 C 
BRANCH  21  23
HETATM   23  O2  UNL     1      24.900   3.991  50.719  1.00  0.00    -0.369 OA
HETATM   24  C14 UNL     1      25.529   3.684  49.488  1.00  0.00     0.207 C 
ENDBRANCH  21  23
ENDBRANCH   6  18
TORSDOF 5
ENDMDL
MODEL 3
REMARK VINA RESULT:      -7.3      3.485      5.697
REMARK  5 active torsions:
REMARK  status: ('A' for Active; 'I' for Inactive)
REMARK    1  A    between atoms: C6_8  and  N3_9 
REMARK    2  A    between atoms: N3_9  and  C7_10 
REMARK    3  A    between atoms: C10_15  and  C11_16 
REMARK    4  A    between atoms: P1_20  and  O2_21 
REMARK    5  A    between atoms: P1_20  and  C15_23 
ROOT
HETATM    1  C7  UNL     1      23.999   2.976  52.090  1.00  0.00     0.123 A 
HETATM    2  N4  UNL     1      22.735   3.370  52.152  1.00  0.00    -0.227 NA
HETATM    3  C8  UNL     1      21.828   2.445  52.464  1.00  0.00     0.235 A 
HETATM    4  N5  UNL     1      22.003   1.118  52.738  1.00  0.00    -0.244 NA
HETATM    5  C9  UNL     1      23.107   0.539  52.737  1.00  0.00     0.068 A 
HETATM    6  C10 UNL     1      24.199   1.535  52.386  1.00  0.00     0.107 A 
HETATM    7  C15 UNL     1      24.125   0.031  52.729  1.00  0.00     0.018 A 
ENDROOT
BRANCH   1   8
HETATM    8  N3  UNL     1      25.131   3.759  51.783  1.00  0.00    -0.349 N 
HETATM    9  H8  UNL     1      25.961   4.172  52.183  1.00  0.00     0.163 HD
BRANCH   8  10
HETATM   10  C6  UNL     1      25.124   4.111  50.416  1.00  0.00     0.258 A 
HETATM   11  C2  UNL     1      25.090   5.598  50.190  1.00  0.00     0.072 A 
HETATM   12  N1  UNL     1      24.156   6.239  50.806  1.00  0.00    -0.295 NA
HETATM   13  C3  UNL     1      26.042   6.298  49.334  1.00  0.00     0.032 A 
HETATM   14  C1  UNL     1      23.950   7.655  50.725  1.00  0.00     0.178 C 
HETATM   15  C4  UNL     1      27.026   5.663  48.706  1.00  0.00     0.021 A 
HETATM   16  C5  UNL     1      27.058   4.215  48.952  1.00  0.00     0.113 A 
HETATM   17  N2  UNL     1      26.245   3.537  49.688  1.00  0.00    -0.270 NA
ENDBRANCH   8  10
ENDBRANCH   1   8
BRANCH   6  18
HETATM   18  C11 UNL     1      25.675   0.935  52.345  1.00  0.00     0.085 A 
HETATM   19  C12 UNL     1      26.788   1.623  53.478  1.00  0.00     0.048 A 
HETATM   20  O1  UNL     1      27.309   0.519  52.558  1.00  0.00     0.000 OA
HETATM   21  P1  UNL     1      26.281   1.815  53.478  1.00  0.00     0.026 P 
HETATM   22  C13 UNL     1      27.409  -0.832  52.982  1.00  0.00     0.000 C 
BRANCH  21  23
HETATM   23  O2  UNL     1      28.756   0.987  53.570  1.00  0.00    -0.369 OA
HETATM   24  C14 UNL     1      28.895   2.347  53.937  1.00  0.00     0.207 C 
ENDBRANCH  21  23
ENDBRANCH   6  18
TORSDOF 5
ENDMDL
MODEL 4
REMARK VINA RESULT:      -7.1      3.105      5.316
REMARK  5 active torsions:
REMARK  status: ('A' for Active; 'I' for Inactive)
REMARK    1  A    between atoms: C6_8  and  N3_9 
REMARK    2  A    between atoms: N3_9  and  C7_10 
REMARK    3  A    between atoms: C10_15  and  C11_16 
REMARK    4  A    between atoms: P1_20  and  O2_21 
REMARK    5  A    between atoms: P1_20  and  C15_23 
ROOT
HETATM    1  C7  UNL     1      24.219   0.883  52.116  1.00  0.00     0.123 A 
HETATM    2  N4  UNL     1      22.978   0.946  51.655  1.00  0.00    -0.227 NA
HETATM    3  C8  UNL     1      22.048   0.270  52.328  1.00  0.00     0.235 A 
HETATM    4  N5  UNL     1      22.178  -0.498  53.451  1.00  0.00    -0.244 NA
HETATM    5  C9  UNL     1      23.254  -0.693  54.049  1.00  0.00     0.068 A 
HETATM    6  C10 UNL     1      24.370   0.050  53.336  1.00  0.00     0.107 A 
HETATM    7  C15 UNL     1      24.246  -0.858  54.579  1.00  0.00     0.018 A 
ENDROOT
BRANCH   1   8
HETATM    8  N3  UNL     1      25.367   1.505  51.585  1.00  0.00    -0.349 N 
HETATM    9  H8  UNL     1      26.189   1.341  51.022  1.00  0.00     0.163 HD
BRANCH   8  10
HETATM   10  C6  UNL     1      25.408   2.863  51.969  1.00  0.00     0.258 A 
HETATM   11  C2  UNL     1      25.689   3.793  50.820  1.00  0.00     0.072 A 
HETATM   12  N1  UNL     1      26.730   3.513  50.113  1.00  0.00    -0.295 NA
HETATM   13  C3  UNL     1      24.853   4.945  50.502  1.00  0.00     0.032 A 
HETATM   14  C1  UNL     1      27.172   4.270  48.978  1.00  0.00     0.178 C 
HETATM   15  C4  UNL     1      23.764   5.243  51.202  1.00  0.00     0.021 A 
HETATM   16  C5  UNL     1      23.492   4.315  52.309  1.00  0.00     0.113 A 
HETATM   17  N2  UNL     1      24.192   3.286  52.646  1.00  0.00    -0.270 NA
ENDBRANCH   8  10
ENDBRANCH   1   8
BRANCH   6  18
HETATM   18  C11 UNL     1      25.815  -0.107  53.991  1.00  0.00     0.085 A 
HETATM   19  C12 UNL     1      26.926  -1.098  53.108  1.00  0.00     0.048 A 
HETATM   20  O1  UNL     1      27.421  -0.469  54.411  1.00  0.00     0.000 OA
HETATM   21  P1  UNL     1      26.429  -1.033  52.901  1.00  0.00     0.026 P 
HETATM   22  C13 UNL     1      28.193   0.722  54.428  1.00  0.00     0.000 C 
BRANCH  21  23
HETATM   23  O2  UNL     1      28.847  -1.434  53.802  1.00  0.00    -0.369 OA
HETATM   24  C14 UNL     1      28.655  -2.572  52.982  1.00  0.00     0.207 C 
ENDBRANCH  21  23
ENDBRANCH   6  18
TORSDOF 5
ENDMDL
MODEL 5
REMARK VINA RESULT:      -7.1      2.948      5.991
REMARK  5 active torsions:
REMARK  status: ('A' for Active; 'I' for Inactive)
REMARK    1  A    between atoms: C6_8  and  N3_9 
REMARK    2  A    between atoms: N3_9  and  C7_10 
REMARK    3  A    between atoms: C10_15  and  C11_16 
REMARK    4  A    between atoms: P1_20  and  O2_21 
REMARK    5  A    between atoms: P1_20  and  C15_23 
ROOT
HETATM    1  C7  UNL     1      24.161   2.794  52.226  1.00  0.00     0.123 A 
HETATM    2  N4  UNL     1      23.605   3.944  51.873  1.00  0.00    -0.227 NA
HETATM    3  C8  UNL     1      24.250   4.672  50.961  1.00  0.00     0.235 A 
HETATM    4  N5  UNL     1      25.425   4.409  50.316  1.00  0.00    -0.244 NA
HETATM    5  C9  UNL     1      26.113   3.386  50.496  1.00  0.00     0.068 A 
HETATM    6  C10 UNL     1      25.440   2.501  51.530  1.00  0.00     0.107 A 
HETATM    7  C15 UNL     1      26.725   2.444  50.677  1.00  0.00     0.018 A 
ENDROOT
BRANCH   1   8
HETATM    8  N3  UNL     1      23.678   1.856  53.161  1.00  0.00    -0.349 N 
HETATM    9  H8  UNL     1      23.656   1.633  54.146  1.00  0.00     0.163 HD
BRANCH   8  10
HETATM   10  C6  UNL     1      22.951   0.841  52.502  1.00  0.00     0.258 A 
HETATM   11  C2  UNL     1      22.316  -0.140  53.450  1.00  0.00     0.072 A 
HETATM   12  N1  UNL     1      23.105  -0.670  54.321  1.00  0.00    -0.295 NA
HETATM   13  C3  UNL     1      20.900  -0.489  53.409  1.00  0.00     0.032 A 
HETATM   14  C1  UNL     1      22.701  -1.625  55.312  1.00  0.00     0.178 C 
HETATM   15  C4  UNL     1      20.063   0.058  52.534  1.00  0.00     0.021 A 
HETATM   16  C5  UNL     1      20.694   1.029  51.629  1.00  0.00     0.113 A 
HETATM   17  N2  UNL     1      21.936   1.375  51.607  1.00  0.00    -0.270 NA
ENDBRANCH   8  10
ENDBRANCH   1   8
BRANCH   6  18
HETATM   18  C11 UNL     1      26.209   1.146  51.867  1.00  0.00     0.085 A 
HETATM   19  C12 UNL     1      26.991   1.100  53.410  1.00  0.00     0.048 A 
HETATM   20  O1  UNL     1      27.102  -0.142  52.526  1.00  0.00     0.000 OA
HETATM   21  P1  UNL     1      26.725   1.554  53.278  1.00  0.00     0.026 P 
HETATM   22  C13 UNL     1      26.260  -1.270  52.701  1.00  0.00     0.000 C 
BRANCH  21  23
HETATM   23  O2  UNL     1      28.053  -0.567  54.025  1.00  0.00    -0.369 OA
HETATM   24  C14 UNL     1      28.605   0.429  54.868  1.00  0.00     0.207 C 
ENDBRANCH  21  23
ENDBRANCH   6  18
TORSDOF 5
ENDMDL
MODEL 6
REMARK VINA RESULT:      -7.0      2.643      5.504
REMARK  5 active torsions:
REMARK  status: ('A' for Active; 'I' for Inactive)
REMARK    1  A    between atoms: C6_8  and  N3_9 
REMARK    2  A    between atoms: N3_9  and  C7_10 
REMARK    3  A    between atoms: C10_15  and  C11_16 
REMARK    4  A    between atoms: P1_20  and  O2_21 
REMARK    5  A    between atoms: P1_20  and  C15_23 
ROOT
HETATM    1  C7  UNL     1      22.897  -0.180  53.110  1.00  0.00     0.123 A 
HETATM    2  N4  UNL     1      21.692  -0.730  53.145  1.00  0.00    -0.227 NA
HETATM    3  C8  UNL     1      21.416  -1.516  54.185  1.00  0.00     0.235 A 
HETATM    4  N5  UNL     1      22.204  -1.853  55.249  1.00  0.00    -0.244 NA
HETATM    5  C9  UNL     1      23.372  -1.449  55.416  1.00  0.00     0.068 A 
HETATM    6  C10 UNL     1      23.761  -0.541  54.263  1.00  0.00     0.107 A 
HETATM    7  C15 UNL     1      24.435  -1.069  55.547  1.00  0.00     0.018 A 
ENDROOT
BRANCH   1   8
HETATM    8  N3  UNL     1      23.422   0.681  52.125  1.00  0.00    -0.349 N 
HETATM    9  H8  UNL     1      24.281   0.974  51.680  1.00  0.00     0.163 HD
BRANCH   8  10
HETATM   10  C6  UNL     1      22.382   1.421  51.520  1.00  0.00     0.258 A 
HETATM   11  C2  UNL     1      22.710   2.882  51.369  1.00  0.00     0.072 A 
HETATM   12  N1  UNL     1      23.102   3.484  52.440  1.00  0.00    -0.295 NA
HETATM   13  C3  UNL     1      22.600   3.598  50.103  1.00  0.00     0.032 A 
HETATM   14  C1  UNL     1      23.461   4.870  52.511  1.00  0.00     0.178 C 
HETATM   15  C4  UNL     1      22.218   2.996  48.982  1.00  0.00     0.021 A 
HETATM   16  C5  UNL     1      21.922   1.566  49.141  1.00  0.00     0.113 A 
HETATM   17  N2  UNL     1      21.991   0.877  50.229  1.00  0.00    -0.270 NA
ENDBRANCH   8  10
ENDBRANCH   1   8
BRANCH   6  18
HETATM   18  C11 UNL     1      25.237   0.055  54.338  1.00  0.00     0.085 A 
HETATM   19  C12 UNL     1      26.391  -0.682  53.280  1.00  0.00     0.048 A 
HETATM   20  O1  UNL     1      26.880   0.458  54.173  1.00  0.00     0.000 OA
HETATM   21  P1  UNL     1      25.883  -0.872  53.268  1.00  0.00     0.026 P 
HETATM   22  C13 UNL     1      27.003   1.789  53.699  1.00  0.00     0.000 C 
BRANCH  21  23
HETATM   23  O2  UNL     1      28.364  -0.056  53.241  1.00  0.00    -0.369 OA
HETATM   24  C14 UNL     1      28.519  -1.452  53.060  1.00  0.00     0.207 C 
ENDBRANCH  21  23
ENDBRANCH   6  18
TORSDOF 5
ENDMDL
MODEL 7
REMARK VINA RESULT:      -7.0      2.615      5.544
REMARK  5 active torsions:
REMARK  status: ('A' for Active; 'I' for Inactive)
REMARK    1  A    between atoms: C6_8  and  N3_9 
REMARK    2  A    between atoms: N3_9  and  C7_10 
REMARK    3  A    between atoms: C10_15  and  C11_16 
REMARK    4  A    between atoms: P1_20  and  O2_21 
REMARK    5  A    between atoms: P1_20  and  C15_23 
ROOT
HETATM    1  C7  UNL     1      27.254   1.683  53.100  1.00  0.00     0.123 A 
HETATM    2  N4  UNL     1      28.535   1.978  53.272  1.00  0.00    -0.227 NA
HETATM    3  C8  UNL     1      29.387   0.955  53.342  1.00  0.00     0.235 A 
HETATM    4  N5  UNL     1      29.138  -0.385  53.260  1.00  0.00    -0.244 NA
HETATM    5  C9  UNL     1      28.007  -0.883  53.099  1.00  0.00     0.068 A 
HETATM    6  C10 UNL     1      26.975   0.227  53.011  1.00  0.00     0.107 A 
HETATM    7  C15 UNL     1      26.965  -1.315  52.952  1.00  0.00     0.018 A 
ENDROOT
BRANCH   1   8
HETATM    8  N3  UNL     1      26.171   2.580  52.996  1.00  0.00    -0.349 N 
HETATM    9  H8  UNL     1      25.596   3.219  53.525  1.00  0.00     0.163 HD
BRANCH   8  10
HETATM   10  C6  UNL     1      25.693   2.614  51.667  1.00  0.00     0.258 A 
HETATM   11  C2  UNL     1      24.627   3.655  51.451  1.00  0.00     0.072 A 
HETATM   12  N1  UNL     1      23.630   3.616  52.269  1.00  0.00    -0.295 NA
HETATM   13  C3  UNL     1      24.692   4.657  50.393  1.00  0.00     0.032 A 
HETATM   14  C1  UNL     1      22.514   4.514  52.235  1.00  0.00     0.178 C 
HETATM   15  C4  UNL     1      25.718   4.730  49.552  1.00  0.00     0.021 A 
HETATM   16  C5  UNL     1      26.759   3.721  49.788  1.00  0.00     0.113 A 
HETATM   17  N2  UNL     1      26.759   2.807  50.697  1.00  0.00    -0.270 NA
ENDBRANCH   8  10
ENDBRANCH   1   8
BRANCH   6  18
HETATM   18  C11 UNL     1      25.471  -0.259  52.803  1.00  0.00     0.085 A 
HETATM   19  C12 UNL     1      24.552  -0.469  54.254  1.00  0.00     0.048 A 
HETATM   20  O1  UNL     1      23.852  -0.759  52.927  1.00  0.00     0.000 OA
HETATM   21  P1  UNL     1      25.066  -0.304  54.306  1.00  0.00     0.026 P 
HETATM   22  C13 UNL     1      23.006   0.189  52.296  1.00  0.00     0.000 C 
BRANCH  21  23
HETATM   23  O2  UNL     1      22.584  -1.108  54.194  1.00  0.00    -0.369 OA
HETATM   24  C14 UNL     1      22.940  -1.461  55.518  1.00  0.00     0.207 C 
ENDBRANCH  21  23
ENDBRANCH   6  18
TORSDOF 5
ENDMDL
MODEL 8
REMARK VINA RESULT:      -7.0      1.543      2.553
REMARK  5 active torsions:
REMARK  status: ('A' for Active; 'I' for Inactive)
REMARK    1  A    between atoms: C6_8  and  N3_9 
REMARK    2  A    between atoms: N3_9  and  C7_10 
REMARK    3  A    between atoms: C10_15  and  C11_16 
REMARK    4  A    between atoms: P1_20  and  O2_21 
REMARK    5  A    between atoms: P1_20  and  C15_23 
ROOT
HETATM    1  C7  UNL     1      23.937   0.571  53.148  1.00  0.00     0.123 A 
HETATM    2  N4  UNL     1      23.244  -0.342  53.813  1.00  0.00    -0.227 NA
HETATM    3  C8  UNL     1      22.055  -0.680  53.314  1.00  0.00     0.235 A 
HETATM    4  N5  UNL     1      21.423  -0.221  52.194  1.00  0.00    -0.244 NA
HETATM    5  C9  UNL     1      21.895   0.638  51.423  1.00  0.00     0.068 A 
HETATM    6  C10 UNL     1      23.258   1.076  51.928  1.00  0.00     0.107 A 
HETATM    7  C15 UNL     1      22.344   1.423  50.733  1.00  0.00     0.018 A 
ENDROOT
BRANCH   1   8
HETATM    8  N3  UNL     1      25.208   1.090  53.469  1.00  0.00    -0.349 N 
HETATM    9  H8  UNL     1      25.686   1.740  54.076  1.00  0.00     0.163 HD
BRANCH   8  10
HETATM   10  C6  UNL     1      26.197   0.497  52.654  1.00  0.00     0.258 A 
HETATM   11  C2  UNL     1      27.598   0.810  53.105  1.00  0.00     0.072 A 
HETATM   12  N1  UNL     1      27.868   2.060  53.273  1.00  0.00    -0.295 NA
HETATM   13  C3  UNL     1      28.608  -0.215  53.346  1.00  0.00     0.032 A 
HETATM   14  C1  UNL     1      29.139   2.569  53.697  1.00  0.00     0.178 C 
HETATM   15  C4  UNL     1      28.348  -1.510  53.201  1.00  0.00     0.021 A 
HETATM   16  C5  UNL     1      26.971  -1.801  52.779  1.00  0.00     0.113 A 
HETATM   17  N2  UNL     1      26.036  -0.945  52.543  1.00  0.00    -0.270 NA
ENDBRANCH   8  10
ENDBRANCH   1   8
BRANCH   6  18
HETATM   18  C11 UNL     1      23.988   2.179  51.038  1.00  0.00     0.085 A 
HETATM   19  C12 UNL     1      23.933   3.793  51.662  1.00  0.00     0.048 A 
HETATM   20  O1  UNL     1      24.668   3.572  50.340  1.00  0.00     0.000 OA
HETATM   21  P1  UNL     1      23.689   3.404  51.951  1.00  0.00     0.026 P 
HETATM   22  C13 UNL     1      26.078   3.437  50.274  1.00  0.00     0.000 C 
BRANCH  21  23
HETATM   23  O2  UNL     1      24.812   5.366  50.644  1.00  0.00    -0.369 OA
HETATM   24  C14 UNL     1      23.962   6.065  51.536  1.00  0.00     0.207 C 
ENDBRANCH  21  23
ENDBRANCH   6  18
TORSDOF 5
ENDMDL
MODEL 9
REMARK VINA RESULT:      -7.0      2.746      5.557
REMARK  5 active torsions:
REMARK  status: ('A' for Active; 'I' for Inactive)
REMARK    1  A    between atoms: C6_8  and  N3_9 
REMARK    2  A    between atoms: N3_9  and  C7_10 
REMARK    3  A    between atoms: C10_15  and  C11_16 
REMARK    4  A    between atoms: P1_20  and  O2_21 
REMARK    5  A    between atoms: P1_20  and  C15_23 
ROOT
HETATM    1  C7  UNL     1      23.326   0.952  52.651  1.00  0.00     0.123 A 
HETATM    2  N4  UNL     1      22.078   0.941  53.097  1.00  0.00    -0.227 NA
HETATM    3  C8  UNL     1      21.803   0.110  54.102  1.00  0.00     0.235 A 
HETATM    4  N5  UNL     1      22.629  -0.755  54.761  1.00  0.00    -0.244 NA
HETATM    5  C9  UNL     1      23.839  -0.905  54.505  1.00  0.00     0.068 A 
HETATM    6  C10 UNL     1      24.231   0.014  53.362  1.00  0.00     0.107 A 
HETATM    7  C15 UNL     1      24.942  -1.026  54.254  1.00  0.00     0.018 A 
ENDROOT
BRANCH   1   8
HETATM    8  N3  UNL     1      23.860   1.737  51.608  1.00  0.00    -0.349 N 
HETATM    9  H8  UNL     1      24.725   2.022  51.172  1.00  0.00     0.163 HD
BRANCH   8  10
HETATM   10  C6  UNL     1      22.821   2.371  50.893  1.00  0.00     0.258 A 
HETATM   11  C2  UNL     1      23.182   3.758  50.434  1.00  0.00     0.072 A 
HETATM   12  N1  UNL     1      23.627   4.553  51.346  1.00  0.00    -0.295 NA
HETATM   13  C3  UNL     1      23.048   4.201  49.051  1.00  0.00     0.032 A 
HETATM   14  C1  UNL     1      24.026   5.911  51.118  1.00  0.00     0.178 C 
HETATM   15  C4  UNL     1      22.611   3.395  48.089  1.00  0.00     0.021 A 
HETATM   16  C5  UNL     1      22.282   2.038  48.550  1.00  0.00     0.113 A 
HETATM   17  N2  UNL     1      22.370   1.587  49.754  1.00  0.00    -0.270 NA
ENDBRANCH   8  10
ENDBRANCH   1   8
BRANCH   6  18
HETATM   18  C11 UNL     1      25.760  -0.068  52.919  1.00  0.00     0.085 A 
HETATM   19  C12 UNL     1      26.754   1.254  53.431  1.00  0.00     0.048 A 
HETATM   20  O1  UNL     1      27.420   0.143  52.619  1.00  0.00     0.000 OA
HETATM   21  P1  UNL     1      26.230   1.265  53.572  1.00  0.00     0.026 P 
HETATM   22  C13 UNL     1      28.156  -0.902  53.233  1.00  0.00     0.000 C 
BRANCH  21  23
HETATM   23  O2  UNL     1      28.764   1.336  52.944  1.00  0.00    -0.369 OA
HETATM   24  C14 UNL     1      28.607   2.560  53.639  1.00  0.00     0.207 C 
ENDBRANCH  21  23
ENDBRANCH   6  18
TORSDOF 5
ENDMDL
