MODEL 1
REMARK VINA RESULT:      -7.7      0.000      0.000
REMARK  8 active torsions:
REMARK  status: ('A' for Active; 'I' for Inactive)
REMARK    1  A    between atoms: N1_1  and  C1_2 
REMARK    2  A    between atoms: C1_2  and  C2_3 
REMARK    3  A    between atoms: C4_6  and  C5_7 
REMARK    4  A    between atoms: C6_8  and  N3_9 
REMARK    5  A    between atoms: C6_8  and  C7_10 
REMARK    6  A    between atoms: C7_10  and  C8_11 
REMARK    7  A    between atoms: C14_17  and  N4_18 
REMARK    8  A    between atoms: N4_18  and  C15_19 
ROOT
HETATM    1  C2  UNL     1      27.900   0.589  53.779  1.00  0.00     0.155 A 
HETATM    2  N2  UNL     1      27.349  -0.419  54.477  1.00  0.00    -0.243 NA
HETATM    3  C3  UNL     1      26.048  -0.704  54.318  1.00  0.00     0.134 A 
HETATM    4  C4  UNL     1      25.273   0.031  53.442  1.00  0.00     0.029 A 
HETATM    5  C14 UNL     1      25.842   1.054  52.735  1.00  0.00     0.141 A 
HETATM    6  N5  UNL     1      27.164   1.337  52.903  1.00  0.00    -0.213 NA
ENDROOT
BRANCH   4   7
HETATM    7  C5  UNL     1      23.867  -0.236  53.226  1.00  0.00     0.041 C 
HETATM    8  C6  UNL     1      22.820  -0.708  53.866  1.00  0.00     0.007 C 
BRANCH   8   9
HETATM    9  N3  UNL     1      22.647  -1.203  55.198  1.00  0.00    -0.402 N 
HETATM   10  H7  UNL     1      22.934  -1.948  55.859  1.00  0.00     0.156 HD
HETATM   11  H8  UNL     1      21.996  -0.601  55.703  1.00  0.00     0.156 HD
ENDBRANCH   8   9
BRANCH   8  12
HETATM   12  C7  UNL     1      21.499  -0.808  53.257  1.00  0.00     0.095 C 
BRANCH  12  13
HETATM   13  C8  UNL     1      21.117   0.307  52.385  1.00  0.00    -0.053 A 
HETATM   14  C9  UNL     1      21.187   0.382  51.028  1.00  0.00     0.007 A 
HETATM   15  C10 UNL     1      20.781   1.519  50.345  1.00  0.00     0.001 A 
HETATM   16  C11 UNL     1      20.289   2.624  51.008  1.00  0.00     0.000 A 
HETATM   17  C12 UNL     1      20.198   2.596  52.381  1.00  0.00     0.001 A 
HETATM   18  C13 UNL     1      20.609   1.457  53.007  1.00  0.00     0.007 A 
ENDBRANCH  12  13
ENDBRANCH   8  12
ENDBRANCH   4   7
BRANCH   5  19
HETATM   19  N4  UNL     1      25.225   1.872  51.782  1.00  0.00    -0.342 N 
HETATM   20  H16 UNL     1      25.191   1.802  50.750  1.00  0.00     0.167 HD
BRANCH  19  21
HETATM   21  C15 UNL     1      24.469   3.061  51.968  1.00  0.00     0.029 A 
HETATM   22  C16 UNL     1      23.692   3.566  52.932  1.00  0.00     0.026 A 
HETATM   23  C17 UNL     1      23.178   4.869  52.529  1.00  0.00    -0.001 A 
HETATM   24  C18 UNL     1      23.666   5.112  51.327  1.00  0.00    -0.005 A 
HETATM   25  C19 UNL     1      24.540   4.021  50.807  1.00  0.00     0.130 A 
HETATM   26 BR1  UNL     1      23.882   3.209  49.207  1.00  0.00    -0.080 Br
ENDBRANCH  19  21
ENDBRANCH   5  19
BRANCH   1  27
HETATM   27  C1  UNL     1      29.348   0.829  54.019  1.00  0.00     0.346 C 
BRANCH  27  28
HETATM   28  N1  UNL     1      29.589   2.159  54.552  1.00  0.00     0.085 N 
HETATM   29  H1  UNL     1      29.356   2.199  55.563  1.00  0.00     0.313 HD
HETATM   30  H2  UNL     1      30.636   2.297  54.462  1.00  0.00     0.313 HD
ENDBRANCH  27  28
ENDBRANCH   1  27
TORSDOF 8
ENDMDL
MODEL 2
REMARK VINA RESULT:      -7.5      1.106      1.447
REMARK  8 active torsions:
REMARK  status: ('A' for Active; 'I' for Inactive)
REMARK    1  A    between atoms: N1_1  and  C1_2 
REMARK    2  A    between atoms: C1_2  and  C2_3 
REMARK    3  A    between atoms: C4_6  and  C5_7 
REMARK    4  A    between atoms: C6_8  and  N3_9 
REMARK    5  A    between atoms: C6_8  and  C7_10 
REMARK    6  A    between atoms: C7_10  and  C8_11 
REMARK    7  A    between atoms: C14_17  and  N4_18 
REMARK    8  A    between atoms: N4_18  and  C15_19 
ROOT
HETATM    1  C2  UNL     1      27.786   0.561  53.975  1.00  0.00     0.155 A 
HETATM    2  N2  UNL     1      27.124  -0.085  54.951  1.00  0.00    -0.243 NA
HETATM    3  C3  UNL     1      25.808  -0.309  54.825  1.00  0.00     0.134 A 
HETATM    4  C4  UNL     1      25.129   0.118  53.700  1.00  0.00     0.029 A 
HETATM    5  C14 UNL     1      25.810   0.773  52.712  1.00  0.00     0.141 A 
HETATM    6  N5  UNL     1      27.147   0.998  52.847  1.00  0.00    -0.213 NA
ENDROOT
BRANCH   4   7
HETATM    7  C5  UNL     1      23.712  -0.103  53.509  1.00  0.00     0.041 C 
HETATM    8  C6  UNL     1      22.702  -0.720  54.080  1.00  0.00     0.007 C 
BRANCH   8   9
HETATM    9  N3  UNL     1      22.604  -1.517  55.265  1.00  0.00    -0.402 N 
HETATM   10  H7  UNL     1      21.958  -2.084  55.843  1.00  0.00     0.156 HD
HETATM   11  H8  UNL     1      23.514  -1.550  55.728  1.00  0.00     0.156 HD
ENDBRANCH   8   9
BRANCH   8  12
HETATM   12  C7  UNL     1      21.347  -0.685  53.542  1.00  0.00     0.095 C 
BRANCH  12  13
HETATM   13  C8  UNL     1      21.094   0.341  52.525  1.00  0.00    -0.053 A 
HETATM   14  C9  UNL     1      21.388   0.305  51.197  1.00  0.00     0.007 A 
HETATM   15  C10 UNL     1      21.080   1.369  50.361  1.00  0.00     0.001 A 
HETATM   16  C11 UNL     1      20.464   2.508  50.836  1.00  0.00     0.000 A 
HETATM   17  C12 UNL     1      20.148   2.591  52.173  1.00  0.00     0.001 A 
HETATM   18  C13 UNL     1      20.469   1.521  52.954  1.00  0.00     0.007 A 
ENDBRANCH  12  13
ENDBRANCH   8  12
ENDBRANCH   4   7
BRANCH   5  19
HETATM   19  N4  UNL     1      25.299   1.238  51.495  1.00  0.00    -0.342 N 
HETATM   20  H16 UNL     1      24.684   0.779  50.799  1.00  0.00     0.167 HD
BRANCH  19  21
HETATM   21  C15 UNL     1      25.497   2.490  50.853  1.00  0.00     0.029 A 
HETATM   22  C16 UNL     1      26.515   3.109  50.244  1.00  0.00     0.026 A 
HETATM   23  C17 UNL     1      26.092   4.420  49.772  1.00  0.00    -0.001 A 
HETATM   24  C18 UNL     1      24.823   4.554  50.112  1.00  0.00    -0.005 A 
HETATM   25  C19 UNL     1      24.273   3.371  50.834  1.00  0.00     0.130 A 
HETATM   26 BR1  UNL     1      23.682   3.762  52.608  1.00  0.00    -0.080 Br
ENDBRANCH  19  21
ENDBRANCH   5  19
BRANCH   1  27
HETATM   27  C1  UNL     1      29.242   0.762  54.200  1.00  0.00     0.346 C 
BRANCH  27  28
HETATM   28  N1  UNL     1      29.547   2.143  54.532  1.00  0.00     0.085 N 
HETATM   29  H1  UNL     1      29.915   2.218  55.500  1.00  0.00     0.313 HD
HETATM   30  H2  UNL     1      30.333   2.409  53.873  1.00  0.00     0.313 HD
ENDBRANCH  27  28
ENDBRANCH   1  27
TORSDOF 8
ENDMDL
MODEL 3
REMARK VINA RESULT:      -7.4      2.611      5.073
REMARK  8 active torsions:
REMARK  status: ('A' for Active; 'I' for Inactive)
REMARK    1  A    between atoms: N1_1  and  C1_2 
REMARK    2  A    between atoms: C1_2  and  C2_3 
REMARK    3  A    between atoms: C4_6  and  C5_7 
REMARK    4  A    between atoms: C6_8  and  N3_9 
REMARK    5  A    between atoms: C6_8  and  C7_10 
REMARK    6  A    between atoms: C7_10  and  C8_11 
REMARK    7  A    between atoms: C14_17  and  N4_18 
REMARK    8  A    between atoms: N4_18  and  C15_19 
ROOT
HETATM    1  C2  UNL     1      26.849   4.505  49.260  1.00  0.00     0.155 A 
HETATM    2  N2  UNL     1      25.687   5.177  49.194  1.00  0.00    -0.243 NA
HETATM    3  C3  UNL     1      24.621   4.732  49.876  1.00  0.00     0.134 A 
HETATM    4  C4  UNL     1      24.710   3.589  50.646  1.00  0.00     0.029 A 
HETATM    5  C14 UNL     1      25.896   2.911  50.709  1.00  0.00     0.141 A 
HETATM    6  N5  UNL     1      26.974   3.369  50.013  1.00  0.00    -0.213 NA
ENDROOT
BRANCH   4   7
HETATM    7  C5  UNL     1      23.596   3.068  51.406  1.00  0.00     0.041 C 
HETATM    8  C6  UNL     1      22.622   2.192  51.298  1.00  0.00     0.007 C 
BRANCH   8   9
HETATM    9  N3  UNL     1      22.241   1.300  50.245  1.00  0.00    -0.402 N 
HETATM   10  H7  UNL     1      21.434   0.838  49.789  1.00  0.00     0.156 HD
HETATM   11  H8  UNL     1      23.074   0.996  49.740  1.00  0.00     0.156 HD
ENDBRANCH   8   9
BRANCH   8  12
HETATM   12  C7  UNL     1      21.657   1.945  52.363  1.00  0.00     0.095 C 
BRANCH  12  13
HETATM   13  C8  UNL     1      21.856   0.708  53.126  1.00  0.00    -0.053 A 
HETATM   14  C9  UNL     1      23.013   0.209  53.641  1.00  0.00     0.007 A 
HETATM   15  C10 UNL     1      23.033  -0.985  54.345  1.00  0.00     0.001 A 
HETATM   16  C11 UNL     1      21.886  -1.721  54.556  1.00  0.00     0.000 A 
HETATM   17  C12 UNL     1      20.691  -1.257  54.055  1.00  0.00     0.001 A 
HETATM   18  C13 UNL     1      20.721  -0.079  53.370  1.00  0.00     0.007 A 
ENDBRANCH  12  13
ENDBRANCH   8  12
ENDBRANCH   4   7
BRANCH   5  19
HETATM   19  N4  UNL     1      26.179   1.767  51.463  1.00  0.00    -0.342 N 
HETATM   20  H16 UNL     1      25.800   0.805  51.402  1.00  0.00     0.167 HD
BRANCH  19  21
HETATM   21  C15 UNL     1      27.074   1.605  52.555  1.00  0.00     0.029 A 
HETATM   22  C16 UNL     1      28.183   2.214  52.989  1.00  0.00     0.026 A 
HETATM   23  C17 UNL     1      28.662   1.573  54.206  1.00  0.00    -0.001 A 
HETATM   24  C18 UNL     1      27.821   0.590  54.473  1.00  0.00    -0.005 A 
HETATM   25  C19 UNL     1      26.712   0.471  53.482  1.00  0.00     0.130 A 
HETATM   26 BR1  UNL     1      26.694  -1.196  52.549  1.00  0.00    -0.080 Br
ENDBRANCH  19  21
ENDBRANCH   5  19
BRANCH   1  27
HETATM   27  C1  UNL     1      27.975   5.073  48.474  1.00  0.00     0.346 C 
BRANCH  27  28
HETATM   28  N1  UNL     1      28.225   6.461  48.823  1.00  0.00     0.085 N 
HETATM   29  H1  UNL     1      27.335   6.957  49.022  1.00  0.00     0.313 HD
HETATM   30  H2  UNL     1      28.772   6.414  49.729  1.00  0.00     0.313 HD
ENDBRANCH  27  28
ENDBRANCH   1  27
TORSDOF 8
ENDMDL
MODEL 4
REMARK VINA RESULT:      -7.1      1.846      2.104
REMARK  8 active torsions:
REMARK  status: ('A' for Active; 'I' for Inactive)
REMARK    1  A    between atoms: N1_1  and  C1_2 
REMARK    2  A    between atoms: C1_2  and  C2_3 
REMARK    3  A    between atoms: C4_6  and  C5_7 
REMARK    4  A    between atoms: C6_8  and  N3_9 
REMARK    5  A    between atoms: C6_8  and  C7_10 
REMARK    6  A    between atoms: C7_10  and  C8_11 
REMARK    7  A    between atoms: C14_17  and  N4_18 
REMARK    8  A    between atoms: N4_18  and  C15_19 
ROOT
HETATM    1  C2  UNL     1      26.363   0.310  54.119  1.00  0.00     0.155 A 
HETATM    2  N2  UNL     1      25.894  -0.662  54.919  1.00  0.00    -0.243 NA
HETATM    3  C3  UNL     1      24.615  -1.054  54.810  1.00  0.00     0.134 A 
HETATM    4  C4  UNL     1      23.780  -0.465  53.882  1.00  0.00     0.029 A 
HETATM    5  C14 UNL     1      24.266   0.523  53.071  1.00  0.00     0.141 A 
HETATM    6  N5  UNL     1      25.565   0.915  53.188  1.00  0.00    -0.213 NA
ENDROOT
BRANCH   4   7
HETATM    7  C5  UNL     1      22.396  -0.852  53.716  1.00  0.00     0.041 C 
HETATM    8  C6  UNL     1      21.196  -0.509  54.129  1.00  0.00     0.007 C 
BRANCH   8   9
HETATM    9  N3  UNL     1      20.740   0.514  55.020  1.00  0.00    -0.402 N 
HETATM   10  H7  UNL     1      20.424   1.500  55.074  1.00  0.00     0.156 HD
HETATM   11  H8  UNL     1      20.704   0.145  55.971  1.00  0.00     0.156 HD
ENDBRANCH   8   9
BRANCH   8  12
HETATM   12  C7  UNL     1      19.983  -1.188  53.690  1.00  0.00     0.095 C 
BRANCH  12  13
HETATM   13  C8  UNL     1      19.292  -0.578  52.549  1.00  0.00    -0.053 A 
HETATM   14  C9  UNL     1      19.804   0.236  51.587  1.00  0.00     0.007 A 
HETATM   15  C10 UNL     1      19.010   0.734  50.565  1.00  0.00     0.001 A 
HETATM   16  C11 UNL     1      17.668   0.429  50.477  1.00  0.00     0.000 A 
HETATM   17  C12 UNL     1      17.104  -0.391  51.428  1.00  0.00     0.001 A 
HETATM   18  C13 UNL     1      17.924  -0.856  52.412  1.00  0.00     0.007 A 
ENDBRANCH  12  13
ENDBRANCH   8  12
ENDBRANCH   4   7
BRANCH   5  19
HETATM   19  N4  UNL     1      23.581   1.199  52.054  1.00  0.00    -0.342 N 
HETATM   20  H16 UNL     1      23.349   0.911  51.087  1.00  0.00     0.167 HD
BRANCH  19  21
HETATM   21  C15 UNL     1      23.015   2.502  52.061  1.00  0.00     0.029 A 
HETATM   22  C16 UNL     1      21.809   3.025  52.305  1.00  0.00     0.026 A 
HETATM   23  C17 UNL     1      21.851   4.473  52.147  1.00  0.00    -0.001 A 
HETATM   24  C18 UNL     1      23.089   4.782  51.811  1.00  0.00    -0.005 A 
HETATM   25  C19 UNL     1      23.991   3.597  51.710  1.00  0.00     0.130 A 
HETATM   26 BR1  UNL     1      24.717   3.334  49.963  1.00  0.00    -0.080 Br
ENDBRANCH  19  21
ENDBRANCH   5  19
BRANCH   1  27
HETATM   27  C1  UNL     1      27.792   0.676  54.310  1.00  0.00     0.346 C 
BRANCH  27  28
HETATM   28  N1  UNL     1      28.610  -0.490  54.597  1.00  0.00     0.085 N 
HETATM   29  H1  UNL     1      29.403  -0.241  55.219  1.00  0.00     0.313 HD
HETATM   30  H2  UNL     1      27.971  -1.137  55.141  1.00  0.00     0.313 HD
ENDBRANCH  27  28
ENDBRANCH   1  27
TORSDOF 8
ENDMDL
MODEL 5
REMARK VINA RESULT:      -7.1      2.500      5.769
REMARK  8 active torsions:
REMARK  status: ('A' for Active; 'I' for Inactive)
REMARK    1  A    between atoms: N1_1  and  C1_2 
REMARK    2  A    between atoms: C1_2  and  C2_3 
REMARK    3  A    between atoms: C4_6  and  C5_7 
REMARK    4  A    between atoms: C6_8  and  N3_9 
REMARK    5  A    between atoms: C6_8  and  C7_10 
REMARK    6  A    between atoms: C7_10  and  C8_11 
REMARK    7  A    between atoms: C14_17  and  N4_18 
REMARK    8  A    between atoms: N4_18  and  C15_19 
ROOT
HETATM    1  C2  UNL     1      19.098  -0.174  52.370  1.00  0.00     0.155 A 
HETATM    2  N2  UNL     1      19.372  -0.870  53.486  1.00  0.00    -0.243 NA
HETATM    3  C3  UNL     1      20.646  -1.018  53.882  1.00  0.00     0.134 A 
HETATM    4  C4  UNL     1      21.675  -0.459  53.150  1.00  0.00     0.029 A 
HETATM    5  C14 UNL     1      21.387   0.250  52.017  1.00  0.00     0.141 A 
HETATM    6  N5  UNL     1      20.092   0.394  51.621  1.00  0.00    -0.213 NA
ENDROOT
BRANCH   4   7
HETATM    7  C5  UNL     1      23.064  -0.580  53.534  1.00  0.00     0.041 C 
HETATM    8  C6  UNL     1      23.799  -0.971  54.552  1.00  0.00     0.007 C 
BRANCH   8   9
HETATM    9  N3  UNL     1      23.461  -1.493  55.840  1.00  0.00    -0.402 N 
HETATM   10  H7  UNL     1      23.789  -2.104  56.610  1.00  0.00     0.156 HD
HETATM   11  H8  UNL     1      22.549  -1.132  56.125  1.00  0.00     0.156 HD
ENDBRANCH   8   9
BRANCH   8  12
HETATM   12  C7  UNL     1      25.257  -0.943  54.532  1.00  0.00     0.095 C 
BRANCH  12  13
HETATM   13  C8  UNL     1      25.861   0.048  53.635  1.00  0.00    -0.053 A 
HETATM   14  C9  UNL     1      26.139  -0.071  52.308  1.00  0.00     0.007 A 
HETATM   15  C10 UNL     1      26.716   0.970  51.596  1.00  0.00     0.001 A 
HETATM   16  C11 UNL     1      27.033   2.170  52.197  1.00  0.00     0.000 A 
HETATM   17  C12 UNL     1      26.770   2.339  53.537  1.00  0.00     0.001 A 
HETATM   18  C13 UNL     1      26.202   1.289  54.195  1.00  0.00     0.007 A 
ENDBRANCH  12  13
ENDBRANCH   8  12
ENDBRANCH   4   7
BRANCH   5  19
HETATM   19  N4  UNL     1      22.291   0.914  51.180  1.00  0.00    -0.342 N 
HETATM   20  H16 UNL     1      22.682   0.648  50.259  1.00  0.00     0.167 HD
BRANCH  19  21
HETATM   21  C15 UNL     1      22.950   2.159  51.372  1.00  0.00     0.029 A 
HETATM   22  C16 UNL     1      23.079   3.034  52.375  1.00  0.00     0.026 A 
HETATM   23  C17 UNL     1      23.904   4.159  51.953  1.00  0.00    -0.001 A 
HETATM   24  C18 UNL     1      24.250   3.926  50.701  1.00  0.00    -0.005 A 
HETATM   25  C19 UNL     1      23.705   2.647  50.161  1.00  0.00     0.130 A 
HETATM   26 BR1  UNL     1      22.532   2.882  48.672  1.00  0.00    -0.080 Br
ENDBRANCH  19  21
ENDBRANCH   5  19
BRANCH   1  27
HETATM   27  C1  UNL     1      17.660  -0.061  52.011  1.00  0.00     0.346 C 
BRANCH  27  28
HETATM   28  N1  UNL     1      16.827  -0.889  52.866  1.00  0.00     0.085 N 
HETATM   29  H1  UNL     1      15.992  -1.230  52.351  1.00  0.00     0.313 HD
HETATM   30  H2  UNL     1      17.429  -1.733  53.088  1.00  0.00     0.313 HD
ENDBRANCH  27  28
ENDBRANCH   1  27
TORSDOF 8
ENDMDL
MODEL 6
REMARK VINA RESULT:      -7.1      2.584      6.774
REMARK  8 active torsions:
REMARK  status: ('A' for Active; 'I' for Inactive)
REMARK    1  A    between atoms: N1_1  and  C1_2 
REMARK    2  A    between atoms: C1_2  and  C2_3 
REMARK    3  A    between atoms: C4_6  and  C5_7 
REMARK    4  A    between atoms: C6_8  and  N3_9 
REMARK    5  A    between atoms: C6_8  and  C7_10 
REMARK    6  A    between atoms: C7_10  and  C8_11 
REMARK    7  A    between atoms: C14_17  and  N4_18 
REMARK    8  A    between atoms: N4_18  and  C15_19 
ROOT
HETATM    1  C2  UNL     1      21.962   4.277  50.567  1.00  0.00     0.155 A 
HETATM    2  N2  UNL     1      22.946   5.017  51.105  1.00  0.00    -0.243 NA
HETATM    3  C3  UNL     1      23.874   4.431  51.877  1.00  0.00     0.134 A 
HETATM    4  C4  UNL     1      23.823   3.073  52.122  1.00  0.00     0.029 A 
HETATM    5  C14 UNL     1      22.820   2.326  51.569  1.00  0.00     0.141 A 
HETATM    6  N5  UNL     1      21.881   2.929  50.787  1.00  0.00    -0.213 NA
ENDROOT
BRANCH   4   7
HETATM    7  C5  UNL     1      24.800   2.388  52.940  1.00  0.00     0.041 C 
HETATM    8  C6  UNL     1      26.090   2.141  52.976  1.00  0.00     0.007 C 
BRANCH   8   9
HETATM    9  N3  UNL     1      27.166   2.501  52.103  1.00  0.00    -0.402 N 
HETATM   10  H7  UNL     1      27.558   2.363  51.154  1.00  0.00     0.156 HD
HETATM   11  H8  UNL     1      27.795   3.143  52.587  1.00  0.00     0.156 HD
ENDBRANCH   8   9
BRANCH   8  12
HETATM   12  C7  UNL     1      26.720   1.374  54.045  1.00  0.00     0.095 C 
BRANCH  12  13
HETATM   13  C8  UNL     1      27.322   0.098  53.640  1.00  0.00    -0.053 A 
HETATM   14  C9  UNL     1      26.721  -0.971  53.050  1.00  0.00     0.007 A 
HETATM   15  C10 UNL     1      27.437  -2.114  52.728  1.00  0.00     0.001 A 
HETATM   16  C11 UNL     1      28.787  -2.220  52.990  1.00  0.00     0.000 A 
HETATM   17  C12 UNL     1      29.439  -1.164  53.585  1.00  0.00     0.001 A 
HETATM   18  C13 UNL     1      28.694  -0.063  53.883  1.00  0.00     0.007 A 
ENDBRANCH  12  13
ENDBRANCH   8  12
ENDBRANCH   4   7
BRANCH   5  19
HETATM   19  N4  UNL     1      22.635   0.943  51.675  1.00  0.00    -0.342 N 
HETATM   20  H16 UNL     1      22.612   0.205  50.949  1.00  0.00     0.167 HD
BRANCH  19  21
HETATM   21  C15 UNL     1      22.408   0.149  52.832  1.00  0.00     0.029 A 
HETATM   22  C16 UNL     1      23.049  -0.844  53.458  1.00  0.00     0.026 A 
HETATM   23  C17 UNL     1      22.296  -1.263  54.632  1.00  0.00    -0.001 A 
HETATM   24  C18 UNL     1      21.217  -0.504  54.681  1.00  0.00    -0.005 A 
HETATM   25  C19 UNL     1      21.134   0.484  53.566  1.00  0.00     0.130 A 
HETATM   26 BR1  UNL     1      19.611   0.242  52.439  1.00  0.00    -0.080 Br
ENDBRANCH  19  21
ENDBRANCH   5  19
BRANCH   1  27
HETATM   27  C1  UNL     1      20.982   5.011  49.724  1.00  0.00     0.346 C 
BRANCH  27  28
HETATM   28  N1  UNL     1      21.604   6.121  49.023  1.00  0.00     0.085 N 
HETATM   29  H1  UNL     1      22.271   6.622  49.642  1.00  0.00     0.313 HD
HETATM   30  H2  UNL     1      22.169   5.665  48.251  1.00  0.00     0.313 HD
ENDBRANCH  27  28
ENDBRANCH   1  27
TORSDOF 8
ENDMDL
MODEL 7
REMARK VINA RESULT:      -7.0      1.380      1.922
REMARK  8 active torsions:
REMARK  status: ('A' for Active; 'I' for Inactive)
REMARK    1  A    between atoms: N1_1  and  C1_2 
REMARK    2  A    between atoms: C1_2  and  C2_3 
REMARK    3  A    between atoms: C4_6  and  C5_7 
REMARK    4  A    between atoms: C6_8  and  N3_9 
REMARK    5  A    between atoms: C6_8  and  C7_10 
REMARK    6  A    between atoms: C7_10  and  C8_11 
REMARK    7  A    between atoms: C14_17  and  N4_18 
REMARK    8  A    between atoms: N4_18  and  C15_19 
ROOT
HETATM    1  C2  UNL     1      26.916   0.558  53.675  1.00  0.00     0.155 A 
HETATM    2  N2  UNL     1      26.363  -0.599  54.075  1.00  0.00    -0.243 NA
HETATM    3  C3  UNL     1      25.047  -0.799  53.913  1.00  0.00     0.134 A 
HETATM    4  C4  UNL     1      24.257   0.176  53.336  1.00  0.00     0.029 A 
HETATM    5  C14 UNL     1      24.827   1.350  52.930  1.00  0.00     0.141 A 
HETATM    6  N5  UNL     1      26.164   1.546  53.099  1.00  0.00    -0.213 NA
ENDROOT
BRANCH   4   7
HETATM    7  C5  UNL     1      22.834   0.011  53.131  1.00  0.00     0.041 C 
HETATM    8  C6  UNL     1      21.736  -0.215  53.816  1.00  0.00     0.007 C 
BRANCH   8   9
HETATM    9  N3  UNL     1      21.494  -0.411  55.213  1.00  0.00    -0.402 N 
HETATM   10  H7  UNL     1      20.795  -0.734  55.906  1.00  0.00     0.156 HD
HETATM   11  H8  UNL     1      22.322  -0.132  55.743  1.00  0.00     0.156 HD
ENDBRANCH   8   9
BRANCH   8  12
HETATM   12  C7  UNL     1      20.419  -0.304  53.195  1.00  0.00     0.095 C 
BRANCH  12  13
HETATM   13  C8  UNL     1      20.044   0.826  52.339  1.00  0.00    -0.053 A 
HETATM   14  C9  UNL     1      20.086   2.155  52.626  1.00  0.00     0.007 A 
HETATM   15  C10 UNL     1      19.692   3.107  51.697  1.00  0.00     0.001 A 
HETATM   16  C11 UNL     1      19.241   2.752  50.443  1.00  0.00     0.000 A 
HETATM   17  C12 UNL     1      19.180   1.419  50.106  1.00  0.00     0.001 A 
HETATM   18  C13 UNL     1      19.578   0.521  51.051  1.00  0.00     0.007 A 
ENDBRANCH  12  13
ENDBRANCH   8  12
ENDBRANCH   4   7
BRANCH   5  19
HETATM   19  N4  UNL     1      24.194   2.425  52.295  1.00  0.00    -0.342 N 
HETATM   20  H16 UNL     1      23.927   3.360  52.651  1.00  0.00     0.167 HD
BRANCH  19  21
HETATM   21  C15 UNL     1      23.716   2.530  50.961  1.00  0.00     0.029 A 
HETATM   22  C16 UNL     1      22.869   1.844  50.186  1.00  0.00     0.026 A 
HETATM   23  C17 UNL     1      22.787   2.459  48.868  1.00  0.00    -0.001 A 
HETATM   24  C18 UNL     1      23.591   3.506  48.888  1.00  0.00    -0.005 A 
HETATM   25  C19 UNL     1      24.284   3.698  50.195  1.00  0.00     0.130 A 
HETATM   26 BR1  UNL     1      26.187   3.580  50.078  1.00  0.00    -0.080 Br
ENDBRANCH  19  21
ENDBRANCH   5  19
BRANCH   1  27
HETATM   27  C1  UNL     1      28.381   0.690  53.892  1.00  0.00     0.346 C 
BRANCH  27  28
HETATM   28  N1  UNL     1      28.723   1.979  54.468  1.00  0.00     0.085 N 
HETATM   29  H1  UNL     1      28.100   2.203  55.269  1.00  0.00     0.313 HD
HETATM   30  H2  UNL     1      29.701   1.848  54.854  1.00  0.00     0.313 HD
ENDBRANCH  27  28
ENDBRANCH   1  27
TORSDOF 8
ENDMDL
MODEL 8
REMARK VINA RESULT:      -7.0      2.247      4.532
REMARK  8 active torsions:
REMARK  status: ('A' for Active; 'I' for Inactive)
REMARK    1  A    between atoms: N1_1  and  C1_2 
REMARK    2  A    between atoms: C1_2  and  C2_3 
REMARK    3  A    between atoms: C4_6  and  C5_7 
REMARK    4  A    between atoms: C6_8  and  N3_9 
REMARK    5  A    between atoms: C6_8  and  C7_10 
REMARK    6  A    between atoms: C7_10  and  C8_11 
REMARK    7  A    between atoms: C14_17  and  N4_18 
REMARK    8  A    between atoms: N4_18  and  C15_19 
ROOT
HETATM    1  C2  UNL     1      27.936   0.029  53.247  1.00  0.00     0.155 A 
HETATM    2  N2  UNL     1      28.313   1.296  53.005  1.00  0.00    -0.243 NA
HETATM    3  C3  UNL     1      27.422   2.174  52.519  1.00  0.00     0.134 A 
HETATM    4  C4  UNL     1      26.122   1.784  52.265  1.00  0.00     0.029 A 
HETATM    5  C14 UNL     1      25.746   0.493  52.515  1.00  0.00     0.141 A 
HETATM    6  N5  UNL     1      26.656  -0.392  53.008  1.00  0.00    -0.213 NA
ENDROOT
BRANCH   4   7
HETATM    7  C5  UNL     1      25.120   2.689  51.747  1.00  0.00     0.041 C 
HETATM    8  C6  UNL     1      25.020   3.753  50.981  1.00  0.00     0.007 C 
BRANCH   8   9
HETATM    9  N3  UNL     1      25.995   4.525  50.274  1.00  0.00    -0.402 N 
HETATM   10  H7  UNL     1      26.263   4.886  49.340  1.00  0.00     0.156 HD
HETATM   11  H8  UNL     1      26.705   4.859  50.929  1.00  0.00     0.156 HD
ENDBRANCH   8   9
BRANCH   8  12
HETATM   12  C7  UNL     1      23.746   4.395  50.681  1.00  0.00     0.095 C 
BRANCH  12  13
HETATM   13  C8  UNL     1      23.188   4.108  49.355  1.00  0.00    -0.053 A 
HETATM   14  C9  UNL     1      22.839   4.986  48.376  1.00  0.00     0.007 A 
HETATM   15  C10 UNL     1      22.320   4.549  47.166  1.00  0.00     0.001 A 
HETATM   16  C11 UNL     1      22.133   3.208  46.901  1.00  0.00     0.000 A 
HETATM   17  C12 UNL     1      22.472   2.281  47.860  1.00  0.00     0.001 A 
HETATM   18  C13 UNL     1      22.978   2.759  49.032  1.00  0.00     0.007 A 
ENDBRANCH  12  13
ENDBRANCH   8  12
ENDBRANCH   4   7
BRANCH   5  19
HETATM   19  N4  UNL     1      24.473  -0.064  52.357  1.00  0.00    -0.342 N 
HETATM   20  H16 UNL     1      24.006  -0.462  51.523  1.00  0.00     0.167 HD
BRANCH  19  21
HETATM   21  C15 UNL     1      23.436  -0.230  53.315  1.00  0.00     0.029 A 
HETATM   22  C16 UNL     1      23.230  -1.004  54.386  1.00  0.00     0.026 A 
HETATM   23  C17 UNL     1      21.935  -0.702  54.980  1.00  0.00    -0.001 A 
HETATM   24  C18 UNL     1      21.394   0.252  54.245  1.00  0.00    -0.005 A 
HETATM   25  C19 UNL     1      22.253   0.682  53.104  1.00  0.00     0.130 A 
HETATM   26 BR1  UNL     1      21.458   0.386  51.392  1.00  0.00    -0.080 Br
ENDBRANCH  19  21
ENDBRANCH   5  19
BRANCH   1  27
HETATM   27  C1  UNL     1      28.989  -0.871  53.787  1.00  0.00     0.346 C 
BRANCH  27  28
HETATM   28  N1  UNL     1      28.807  -2.239  53.334  1.00  0.00     0.085 N 
HETATM   29  H1  UNL     1      29.370  -2.423  52.480  1.00  0.00     0.313 HD
HETATM   30  H2  UNL     1      29.210  -2.834  54.113  1.00  0.00     0.313 HD
ENDBRANCH  27  28
ENDBRANCH   1  27
TORSDOF 8
ENDMDL
MODEL 9
REMARK VINA RESULT:      -6.8      2.487      6.453
REMARK  8 active torsions:
REMARK  status: ('A' for Active; 'I' for Inactive)
REMARK    1  A    between atoms: N1_1  and  C1_2 
REMARK    2  A    between atoms: C1_2  and  C2_3 
REMARK    3  A    between atoms: C4_6  and  C5_7 
REMARK    4  A    between atoms: C6_8  and  N3_9 
REMARK    5  A    between atoms: C6_8  and  C7_10 
REMARK    6  A    between atoms: C7_10  and  C8_11 
REMARK    7  A    between atoms: C14_17  and  N4_18 
REMARK    8  A    between atoms: N4_18  and  C15_19 
ROOT
HETATM    1  C2  UNL     1      23.807   4.177  49.433  1.00  0.00     0.155 A 
HETATM    2  N2  UNL     1      25.096   3.806  49.368  1.00  0.00    -0.243 NA
HETATM    3  C3  UNL     1      25.615   3.030  50.333  1.00  0.00     0.134 A 
HETATM    4  C4  UNL     1      24.831   2.613  51.391  1.00  0.00     0.029 A 
HETATM    5  C14 UNL     1      23.520   2.995  51.449  1.00  0.00     0.141 A 
HETATM    6  N5  UNL     1      23.001   3.783  50.466  1.00  0.00    -0.213 NA
ENDROOT
BRANCH   4   7
HETATM    7  C5  UNL     1      25.336   1.772  52.455  1.00  0.00     0.041 C 
HETATM    8  C6  UNL     1      26.212   1.801  53.434  1.00  0.00     0.007 C 
BRANCH   8   9
HETATM    9  N3  UNL     1      27.124   2.809  53.882  1.00  0.00    -0.402 N 
HETATM   10  H7  UNL     1      27.290   3.526  54.612  1.00  0.00     0.156 HD
HETATM   11  H8  UNL     1      27.925   2.847  53.250  1.00  0.00     0.156 HD
ENDBRANCH   8   9
BRANCH   8  12
HETATM   12  C7  UNL     1      26.420   0.681  54.344  1.00  0.00     0.095 C 
BRANCH  12  13
HETATM   13  C8  UNL     1      27.187  -0.445  53.799  1.00  0.00    -0.053 A 
HETATM   14  C9  UNL     1      26.728  -1.530  53.119  1.00  0.00     0.007 A 
HETATM   15  C10 UNL     1      27.592  -2.516  52.666  1.00  0.00     0.001 A 
HETATM   16  C11 UNL     1      28.952  -2.442  52.883  1.00  0.00     0.000 A 
HETATM   17  C12 UNL     1      29.464  -1.362  53.566  1.00  0.00     0.001 A 
HETATM   18  C13 UNL     1      28.576  -0.420  53.991  1.00  0.00     0.007 A 
ENDBRANCH  12  13
ENDBRANCH   8  12
ENDBRANCH   4   7
BRANCH   5  19
HETATM   19  N4  UNL     1      22.575   2.637  52.417  1.00  0.00    -0.342 N 
HETATM   20  H16 UNL     1      22.569   2.780  53.443  1.00  0.00     0.167 HD
BRANCH  19  21
HETATM   21  C15 UNL     1      21.340   1.950  52.262  1.00  0.00     0.029 A 
HETATM   22  C16 UNL     1      20.046   2.287  52.259  1.00  0.00     0.026 A 
HETATM   23  C17 UNL     1      19.223   1.104  52.045  1.00  0.00    -0.001 A 
HETATM   24  C18 UNL     1      20.051   0.083  51.923  1.00  0.00    -0.005 A 
HETATM   25  C19 UNL     1      21.488   0.466  52.040  1.00  0.00     0.130 A 
HETATM   26 BR1  UNL     1      22.383  -0.361  53.512  1.00  0.00    -0.080 Br
ENDBRANCH  19  21
ENDBRANCH   5  19
BRANCH   1  27
HETATM   27  C1  UNL     1      23.320   5.033  48.319  1.00  0.00     0.346 C 
BRANCH  27  28
HETATM   28  N1  UNL     1      22.048   5.658  48.641  1.00  0.00     0.085 N 
HETATM   29  H1  UNL     1      21.258   5.017  48.430  1.00  0.00     0.313 HD
HETATM   30  H2  UNL     1      22.075   5.793  49.691  1.00  0.00     0.313 HD
ENDBRANCH  27  28
ENDBRANCH   1  27
TORSDOF 8
ENDMDL
