MODEL 1
REMARK VINA RESULT:      -8.1      0.000      0.000
REMARK  3 active torsions:
REMARK  status: ('A' for Active; 'I' for Inactive)
REMARK    1  A    between atoms: O1_2  and  C2_3 
REMARK    2  A    between atoms: C4_5  and  N1_6 
REMARK    3  A    between atoms: C11_16  and  C12_17 
ROOT
HETATM    1  C2  UNL     1      26.380  -0.238  52.860  1.00  0.00     0.077 A 
HETATM    2  C3  UNL     1      27.506   0.482  52.732  1.00  0.00     0.052 A 
HETATM    3  C4  UNL     1      27.154   1.919  52.687  1.00  0.00     0.301 A 
HETATM    4  C5  UNL     1      25.683   1.872  52.808  1.00  0.00     0.102 A 
HETATM    5  C6  UNL     1      25.199   0.644  52.910  1.00  0.00     0.025 A 
HETATM    6  C7  UNL     1      23.833   0.101  53.047  1.00  0.00     0.164 C 
HETATM    7  N2  UNL     1      22.845   0.839  52.268  1.00  0.00    -0.380 N 
HETATM    8  C8  UNL     1      22.644   2.268  52.322  1.00  0.00     0.112 A 
HETATM    9  C9  UNL     1      23.591   3.274  52.554  1.00  0.00     0.200 A 
HETATM   10  N3  UNL     1      23.202   4.567  52.547  1.00  0.00    -0.215 NA
HETATM   11  C10 UNL     1      21.888   4.853  52.312  1.00  0.00     0.236 A 
HETATM   12  N4  UNL     1      20.975   3.892  52.088  1.00  0.00    -0.239 NA
HETATM   13  C11 UNL     1      21.317   2.573  52.086  1.00  0.00     0.099 A 
HETATM   14  O2  UNL     1      24.963   3.079  52.805  1.00  0.00    -0.291 OA
HETATM   15  H10 UNL     1      22.149   0.447  51.562  1.00  0.00     0.160 HD
ENDROOT
BRANCH  13  16
HETATM   16  C12 UNL     1      20.272   1.587  51.840  1.00  0.00    -0.004 A 
HETATM   17  C13 UNL     1      19.757   1.723  50.544  1.00  0.00     0.014 A 
HETATM   18  C14 UNL     1      18.747   0.914  50.070  1.00  0.00     0.002 A 
HETATM   19  C15 UNL     1      18.218  -0.053  50.869  1.00  0.00     0.019 A 
HETATM   20  C16 UNL     1      18.715  -0.195  52.141  1.00  0.00     0.011 A 
HETATM   21 BR1  UNL     1      18.043  -1.514  53.329  1.00  0.00    -0.051 Br
HETATM   22  C17 UNL     1      19.712   0.587  52.642  1.00  0.00     0.033 A 
ENDBRANCH  13  16
BRANCH   1  23
HETATM   23  O1  UNL     1      26.309  -1.643  52.936  1.00  0.00    -0.356 OA
HETATM   24  C1  UNL     1      27.474  -2.397  52.667  1.00  0.00     0.210 C 
ENDBRANCH   1  23
BRANCH   3  25
HETATM   25  N1  UNL     1      27.702   2.511  53.896  1.00  0.00     0.092 N 
HETATM   26  H6  UNL     1      27.337   2.060  54.763  1.00  0.00     0.314 HD
HETATM   27  H7  UNL     1      27.651   3.540  53.877  1.00  0.00     0.314 HD
ENDBRANCH   3  25
TORSDOF 3
ENDMDL
MODEL 2
REMARK VINA RESULT:      -8.1      4.617      6.391
REMARK  3 active torsions:
REMARK  status: ('A' for Active; 'I' for Inactive)
REMARK    1  A    between atoms: O1_2  and  C2_3 
REMARK    2  A    between atoms: C4_5  and  N1_6 
REMARK    3  A    between atoms: C11_16  and  C12_17 
ROOT
HETATM    1  C2  UNL     1      27.118   1.012  54.109  1.00  0.00     0.077 A 
HETATM    2  C3  UNL     1      26.249   0.330  54.874  1.00  0.00     0.052 A 
HETATM    3  C4  UNL     1      24.943   0.273  54.181  1.00  0.00     0.301 A 
HETATM    4  C5  UNL     1      25.229   1.018  52.938  1.00  0.00     0.102 A 
HETATM    5  C6  UNL     1      26.474   1.461  52.860  1.00  0.00     0.025 A 
HETATM    6  C7  UNL     1      27.213   2.234  51.844  1.00  0.00     0.164 C 
HETATM    7  N2  UNL     1      26.399   3.265  51.209  1.00  0.00    -0.380 N 
HETATM    8  C8  UNL     1      25.113   3.045  50.593  1.00  0.00     0.112 A 
HETATM    9  C9  UNL     1      24.122   2.119  50.946  1.00  0.00     0.200 A 
HETATM   10  N3  UNL     1      22.967   2.081  50.247  1.00  0.00    -0.215 NA
HETATM   11  C10 UNL     1      22.802   2.955  49.210  1.00  0.00     0.236 A 
HETATM   12  N4  UNL     1      23.748   3.846  48.867  1.00  0.00    -0.239 NA
HETATM   13  C11 UNL     1      24.931   3.923  49.540  1.00  0.00     0.099 A 
HETATM   14  O2  UNL     1      24.200   1.182  51.994  1.00  0.00    -0.291 OA
HETATM   15  H10 UNL     1      26.624   4.303  51.114  1.00  0.00     0.160 HD
ENDROOT
BRANCH  13  16
HETATM   16  C12 UNL     1      25.910   4.911  49.108  1.00  0.00    -0.004 A 
HETATM   17  C13 UNL     1      25.316   6.172  48.971  1.00  0.00     0.014 A 
HETATM   18  C14 UNL     1      26.030   7.276  48.561  1.00  0.00     0.002 A 
HETATM   19  C15 UNL     1      27.356   7.162  48.274  1.00  0.00     0.019 A 
HETATM   20  C16 UNL     1      27.949   5.931  48.404  1.00  0.00     0.011 A 
HETATM   21 BR1  UNL     1      29.791   5.670  48.027  1.00  0.00    -0.051 Br
HETATM   22  C17 UNL     1      27.274   4.818  48.806  1.00  0.00     0.033 A 
ENDBRANCH  13  16
BRANCH   1  23
HETATM   23  O1  UNL     1      28.463   1.277  54.432  1.00  0.00    -0.356 OA
HETATM   24  C1  UNL     1      29.448   0.331  54.064  1.00  0.00     0.210 C 
ENDBRANCH   1  23
BRANCH   3  25
HETATM   25  N1  UNL     1      24.720  -1.124  53.846  1.00  0.00     0.092 N 
HETATM   26  H6  UNL     1      24.145  -1.620  54.562  1.00  0.00     0.314 HD
HETATM   27  H7  UNL     1      25.593  -1.598  53.575  1.00  0.00     0.314 HD
ENDBRANCH   3  25
TORSDOF 3
ENDMDL
MODEL 3
REMARK VINA RESULT:      -8.0      2.584      3.266
REMARK  3 active torsions:
REMARK  status: ('A' for Active; 'I' for Inactive)
REMARK    1  A    between atoms: O1_2  and  C2_3 
REMARK    2  A    between atoms: C4_5  and  N1_6 
REMARK    3  A    between atoms: C11_16  and  C12_17 
ROOT
HETATM    1  C2  UNL     1      26.737   0.320  54.683  1.00  0.00     0.077 A 
HETATM    2  C3  UNL     1      28.074   0.191  54.670  1.00  0.00     0.052 A 
HETATM    3  C4  UNL     1      28.628   1.047  53.598  1.00  0.00     0.301 A 
HETATM    4  C5  UNL     1      27.405   1.654  53.035  1.00  0.00     0.102 A 
HETATM    5  C6  UNL     1      26.293   1.259  53.635  1.00  0.00     0.025 A 
HETATM    6  C7  UNL     1      24.866   1.576  53.437  1.00  0.00     0.164 C 
HETATM    7  N2  UNL     1      24.507   1.734  52.032  1.00  0.00    -0.380 N 
HETATM    8  C8  UNL     1      25.177   2.605  51.096  1.00  0.00     0.112 A 
HETATM    9  C9  UNL     1      26.529   2.969  51.058  1.00  0.00     0.200 A 
HETATM   10  N3  UNL     1      26.969   3.792  50.081  1.00  0.00    -0.215 NA
HETATM   11  C10 UNL     1      26.073   4.245  49.155  1.00  0.00     0.236 A 
HETATM   12  N4  UNL     1      24.775   3.899  49.187  1.00  0.00    -0.239 NA
HETATM   13  C11 UNL     1      24.282   3.073  50.153  1.00  0.00     0.099 A 
HETATM   14  O2  UNL     1      27.525   2.556  51.963  1.00  0.00    -0.291 OA
HETATM   15  H10 UNL     1      23.724   1.240  51.501  1.00  0.00     0.160 HD
ENDROOT
BRANCH  13  16
HETATM   16  C12 UNL     1      22.862   2.745  50.125  1.00  0.00    -0.004 A 
HETATM   17  C13 UNL     1      22.595   1.780  49.145  1.00  0.00     0.014 A 
HETATM   18  C14 UNL     1      21.321   1.309  48.911  1.00  0.00     0.002 A 
HETATM   19  C15 UNL     1      20.275   1.782  49.643  1.00  0.00     0.019 A 
HETATM   20  C16 UNL     1      20.525   2.728  50.606  1.00  0.00     0.011 A 
HETATM   21 BR1  UNL     1      19.134   3.448  51.677  1.00  0.00    -0.051 Br
HETATM   22  C17 UNL     1      21.771   3.216  50.864  1.00  0.00     0.033 A 
ENDBRANCH  13  16
BRANCH   1  23
HETATM   23  O1  UNL     1      25.859  -0.339  55.564  1.00  0.00    -0.356 OA
HETATM   24  C1  UNL     1      24.842  -1.160  55.022  1.00  0.00     0.210 C 
ENDBRANCH   1  23
BRANCH   3  25
HETATM   25  N1  UNL     1      29.400   2.085  54.261  1.00  0.00     0.092 N 
HETATM   26  H6  UNL     1      28.951   2.414  55.144  1.00  0.00     0.314 HD
HETATM   27  H7  UNL     1      29.687   2.828  53.608  1.00  0.00     0.314 HD
ENDBRANCH   3  25
TORSDOF 3
ENDMDL
MODEL 4
REMARK VINA RESULT:      -7.9      3.455      5.505
REMARK  3 active torsions:
REMARK  status: ('A' for Active; 'I' for Inactive)
REMARK    1  A    between atoms: O1_2  and  C2_3 
REMARK    2  A    between atoms: C4_5  and  N1_6 
REMARK    3  A    between atoms: C11_16  and  C12_17 
ROOT
HETATM    1  C2  UNL     1      23.694  -0.670  54.326  1.00  0.00     0.077 A 
HETATM    2  C3  UNL     1      22.769  -1.230  55.122  1.00  0.00     0.052 A 
HETATM    3  C4  UNL     1      21.453  -0.616  54.834  1.00  0.00     0.301 A 
HETATM    4  C5  UNL     1      21.799   0.351  53.772  1.00  0.00     0.102 A 
HETATM    5  C6  UNL     1      23.084   0.350  53.452  1.00  0.00     0.025 A 
HETATM    6  C7  UNL     1      23.886   1.116  52.480  1.00  0.00     0.164 C 
HETATM    7  N2  UNL     1      23.464   2.508  52.362  1.00  0.00    -0.380 N 
HETATM    8  C8  UNL     1      22.114   2.946  52.101  1.00  0.00     0.112 A 
HETATM    9  C9  UNL     1      20.910   2.345  52.492  1.00  0.00     0.200 A 
HETATM   10  N3  UNL     1      19.738   2.928  52.160  1.00  0.00    -0.215 NA
HETATM   11  C10 UNL     1      19.765   4.093  51.448  1.00  0.00     0.236 A 
HETATM   12  N4  UNL     1      20.917   4.674  51.071  1.00  0.00    -0.239 NA
HETATM   13  C11 UNL     1      22.125   4.126  51.380  1.00  0.00     0.099 A 
HETATM   14  O2  UNL     1      20.780   1.150  53.224  1.00  0.00    -0.291 OA
HETATM   15  H10 UNL     1      24.069   3.381  52.454  1.00  0.00     0.160 HD
ENDROOT
BRANCH  13  16
HETATM   16  C12 UNL     1      23.331   4.811  50.934  1.00  0.00    -0.004 A 
HETATM   17  C13 UNL     1      23.274   6.174  51.252  1.00  0.00     0.014 A 
HETATM   18  C14 UNL     1      24.290   7.045  50.925  1.00  0.00     0.002 A 
HETATM   19  C15 UNL     1      25.394   6.588  50.271  1.00  0.00     0.019 A 
HETATM   20  C16 UNL     1      25.461   5.254  49.954  1.00  0.00     0.011 A 
HETATM   21 BR1  UNL     1      26.957   4.523  49.043  1.00  0.00    -0.051 Br
HETATM   22  C17 UNL     1      24.475   4.365  50.262  1.00  0.00     0.033 A 
ENDBRANCH  13  16
BRANCH   1  23
HETATM   23  O1  UNL     1      25.065  -0.993  54.308  1.00  0.00    -0.356 OA
HETATM   24  C1  UNL     1      25.965  -0.172  55.025  1.00  0.00     0.210 C 
ENDBRANCH   1  23
BRANCH   3  25
HETATM   25  N1  UNL     1      20.631  -1.666  54.256  1.00  0.00     0.092 N 
HETATM   26  H6  UNL     1      20.134  -2.230  54.981  1.00  0.00     0.314 HD
HETATM   27  H7  UNL     1      21.144  -2.211  53.549  1.00  0.00     0.314 HD
ENDBRANCH   3  25
TORSDOF 3
ENDMDL
MODEL 5
REMARK VINA RESULT:      -7.8      2.933      5.190
REMARK  3 active torsions:
REMARK  status: ('A' for Active; 'I' for Inactive)
REMARK    1  A    between atoms: O1_2  and  C2_3 
REMARK    2  A    between atoms: C4_5  and  N1_6 
REMARK    3  A    between atoms: C11_16  and  C12_17 
ROOT
HETATM    1  C2  UNL     1      24.228   4.849  49.085  1.00  0.00     0.077 A 
HETATM    2  C3  UNL     1      25.315   5.628  48.963  1.00  0.00     0.052 A 
HETATM    3  C4  UNL     1      26.452   4.976  49.652  1.00  0.00     0.301 A 
HETATM    4  C5  UNL     1      25.824   3.740  50.162  1.00  0.00     0.102 A 
HETATM    5  C6  UNL     1      24.541   3.631  49.856  1.00  0.00     0.025 A 
HETATM    6  C7  UNL     1      23.516   2.606  50.133  1.00  0.00     0.164 C 
HETATM    7  N2  UNL     1      23.643   2.019  51.463  1.00  0.00    -0.380 N 
HETATM    8  C8  UNL     1      24.850   1.440  52.003  1.00  0.00     0.112 A 
HETATM    9  C9  UNL     1      26.179   1.806  51.757  1.00  0.00     0.200 A 
HETATM   10  N3  UNL     1      27.178   1.144  52.380  1.00  0.00    -0.215 NA
HETATM   11  C10 UNL     1      26.855   0.131  53.237  1.00  0.00     0.236 A 
HETATM   12  N4  UNL     1      25.581  -0.225  53.477  1.00  0.00    -0.239 NA
HETATM   13  C11 UNL     1      24.539   0.411  52.873  1.00  0.00     0.099 A 
HETATM   14  O2  UNL     1      26.610   2.832  50.894  1.00  0.00    -0.291 OA
HETATM   15  H10 UNL     1      22.889   1.937  52.212  1.00  0.00     0.160 HD
ENDROOT
BRANCH  13  16
HETATM   16  C12 UNL     1      23.185  -0.032  53.179  1.00  0.00    -0.004 A 
HETATM   17  C13 UNL     1      23.177  -0.853  54.314  1.00  0.00     0.014 A 
HETATM   18  C14 UNL     1      22.017  -1.413  54.803  1.00  0.00     0.002 A 
HETATM   19  C15 UNL     1      20.830  -1.174  54.180  1.00  0.00     0.019 A 
HETATM   20  C16 UNL     1      20.826  -0.371  53.067  1.00  0.00     0.011 A 
HETATM   21 BR1  UNL     1      19.223   0.021  52.130  1.00  0.00    -0.051 Br
HETATM   22  C17 UNL     1      21.954   0.199  52.556  1.00  0.00     0.033 A 
ENDBRANCH  13  16
BRANCH   1  23
HETATM   23  O1  UNL     1      22.952   5.134  48.561  1.00  0.00    -0.356 OA
HETATM   24  C1  UNL     1      22.086   5.972  49.300  1.00  0.00     0.210 C 
ENDBRANCH   1  23
BRANCH   3  25
HETATM   25  N1  UNL     1      27.408   4.620  48.617  1.00  0.00     0.092 N 
HETATM   26  H6  UNL     1      27.637   5.424  47.991  1.00  0.00     0.314 HD
HETATM   27  H7  UNL     1      27.147   3.747  48.137  1.00  0.00     0.314 HD
ENDBRANCH   3  25
TORSDOF 3
ENDMDL
MODEL 6
REMARK VINA RESULT:      -7.6      3.799      6.980
REMARK  3 active torsions:
REMARK  status: ('A' for Active; 'I' for Inactive)
REMARK    1  A    between atoms: O1_2  and  C2_3 
REMARK    2  A    between atoms: C4_5  and  N1_6 
REMARK    3  A    between atoms: C11_16  and  C12_17 
ROOT
HETATM    1  C2  UNL     1      20.102   1.993  52.550  1.00  0.00     0.077 A 
HETATM    2  C3  UNL     1      19.715   0.753  52.890  1.00  0.00     0.052 A 
HETATM    3  C4  UNL     1      20.916  -0.091  53.074  1.00  0.00     0.301 A 
HETATM    4  C5  UNL     1      22.004   0.866  52.785  1.00  0.00     0.102 A 
HETATM    5  C6  UNL     1      21.573   2.080  52.478  1.00  0.00     0.025 A 
HETATM    6  C7  UNL     1      22.257   3.338  52.123  1.00  0.00     0.164 C 
HETATM    7  N2  UNL     1      23.439   3.130  51.293  1.00  0.00    -0.380 N 
HETATM    8  C8  UNL     1      24.527   2.235  51.607  1.00  0.00     0.112 A 
HETATM    9  C9  UNL     1      24.483   1.018  52.300  1.00  0.00     0.200 A 
HETATM   10  N3  UNL     1      25.621   0.313  52.478  1.00  0.00    -0.215 NA
HETATM   11  C10 UNL     1      26.786   0.813  51.971  1.00  0.00     0.236 A 
HETATM   12  N4  UNL     1      26.834   1.980  51.304  1.00  0.00    -0.239 NA
HETATM   13  C11 UNL     1      25.714   2.729  51.100  1.00  0.00     0.099 A 
HETATM   14  O2  UNL     1      23.336   0.423  52.858  1.00  0.00    -0.291 OA
HETATM   15  H10 UNL     1      23.665   3.589  50.358  1.00  0.00     0.160 HD
ENDROOT
BRANCH  13  16
HETATM   16  C12 UNL     1      25.844   3.984  50.372  1.00  0.00    -0.004 A 
HETATM   17  C13 UNL     1      26.887   3.911  49.439  1.00  0.00     0.014 A 
HETATM   18  C14 UNL     1      27.221   4.976  48.632  1.00  0.00     0.002 A 
HETATM   19  C15 UNL     1      26.530   6.146  48.726  1.00  0.00     0.019 A 
HETATM   20  C16 UNL     1      25.506   6.229  49.637  1.00  0.00     0.011 A 
HETATM   21 BR1  UNL     1      24.485   7.815  49.843  1.00  0.00    -0.051 Br
HETATM   22  C17 UNL     1      25.149   5.196  50.451  1.00  0.00     0.033 A 
ENDBRANCH  13  16
BRANCH   1  23
HETATM   23  O1  UNL     1      19.243   3.079  52.291  1.00  0.00    -0.356 OA
HETATM   24  C1  UNL     1      18.591   3.145  51.038  1.00  0.00     0.210 C 
ENDBRANCH   1  23
BRANCH   3  25
HETATM   25  N1  UNL     1      20.962  -0.435  54.485  1.00  0.00     0.092 N 
HETATM   26  H6  UNL     1      20.239  -1.141  54.748  1.00  0.00     0.314 HD
HETATM   27  H7  UNL     1      21.001   0.402  55.084  1.00  0.00     0.314 HD
ENDBRANCH   3  25
TORSDOF 3
ENDMDL
MODEL 7
REMARK VINA RESULT:      -7.5      3.400      7.019
REMARK  3 active torsions:
REMARK  status: ('A' for Active; 'I' for Inactive)
REMARK    1  A    between atoms: O1_2  and  C2_3 
REMARK    2  A    between atoms: C4_5  and  N1_6 
REMARK    3  A    between atoms: C11_16  and  C12_17 
ROOT
HETATM    1  C2  UNL     1      21.470   4.117  50.115  1.00  0.00     0.077 A 
HETATM    2  C3  UNL     1      20.160   4.002  49.841  1.00  0.00     0.052 A 
HETATM    3  C4  UNL     1      19.567   2.993  50.746  1.00  0.00     0.301 A 
HETATM    4  C5  UNL     1      20.739   2.582  51.546  1.00  0.00     0.102 A 
HETATM    5  C6  UNL     1      21.856   3.208  51.211  1.00  0.00     0.025 A 
HETATM    6  C7  UNL     1      23.244   3.139  51.707  1.00  0.00     0.164 C 
HETATM    7  N2  UNL     1      23.656   1.786  52.062  1.00  0.00    -0.380 N 
HETATM    8  C8  UNL     1      22.938   0.907  52.954  1.00  0.00     0.112 A 
HETATM    9  C9  UNL     1      21.556   0.818  53.167  1.00  0.00     0.200 A 
HETATM   10  N3  UNL     1      21.075  -0.092  54.042  1.00  0.00    -0.215 NA
HETATM   11  C10 UNL     1      21.959  -0.902  54.695  1.00  0.00     0.236 A 
HETATM   12  N4  UNL     1      23.286  -0.822  54.494  1.00  0.00    -0.239 NA
HETATM   13  C11 UNL     1      23.821   0.080  53.624  1.00  0.00     0.099 A 
HETATM   14  O2  UNL     1      20.570   1.606  52.545  1.00  0.00    -0.291 OA
HETATM   15  H10 UNL     1      24.518   1.259  51.723  1.00  0.00     0.160 HD
ENDROOT
BRANCH  13  16
HETATM   16  C12 UNL     1      25.269   0.111  53.461  1.00  0.00    -0.004 A 
HETATM   17  C13 UNL     1      25.748  -1.135  53.036  1.00  0.00     0.014 A 
HETATM   18  C14 UNL     1      27.088  -1.368  52.822  1.00  0.00     0.002 A 
HETATM   19  C15 UNL     1      27.994  -0.371  53.023  1.00  0.00     0.019 A 
HETATM   20  C16 UNL     1      27.536   0.853  53.440  1.00  0.00     0.011 A 
HETATM   21 BR1  UNL     1      28.720   2.305  53.747  1.00  0.00    -0.051 Br
HETATM   22  C17 UNL     1      26.218   1.120  53.662  1.00  0.00     0.033 A 
ENDBRANCH  13  16
BRANCH   1  23
HETATM   23  O1  UNL     1      22.372   4.979  49.462  1.00  0.00    -0.356 OA
HETATM   24  C1  UNL     1      22.462   6.323  49.893  1.00  0.00     0.210 C 
ENDBRANCH   1  23
BRANCH   3  25
HETATM   25  N1  UNL     1      18.644   3.712  51.609  1.00  0.00     0.092 N 
HETATM   26  H6  UNL     1      18.872   3.599  52.621  1.00  0.00     0.314 HD
HETATM   27  H7  UNL     1      17.662   3.533  51.355  1.00  0.00     0.314 HD
ENDBRANCH   3  25
TORSDOF 3
ENDMDL
MODEL 8
REMARK VINA RESULT:      -7.5      5.481      7.699
REMARK  3 active torsions:
REMARK  status: ('A' for Active; 'I' for Inactive)
REMARK    1  A    between atoms: O1_2  and  C2_3 
REMARK    2  A    between atoms: C4_5  and  N1_6 
REMARK    3  A    between atoms: C11_16  and  C12_17 
ROOT
HETATM    1  C2  UNL     1      25.459   1.497  52.153  1.00  0.00     0.077 A 
HETATM    2  C3  UNL     1      24.242   1.225  52.651  1.00  0.00     0.052 A 
HETATM    3  C4  UNL     1      23.239   2.052  51.944  1.00  0.00     0.301 A 
HETATM    4  C5  UNL     1      24.085   2.807  50.998  1.00  0.00     0.102 A 
HETATM    5  C6  UNL     1      25.373   2.514  51.089  1.00  0.00     0.025 A 
HETATM    6  C7  UNL     1      26.573   2.992  50.376  1.00  0.00     0.164 C 
HETATM    7  N2  UNL     1      26.525   4.418  50.071  1.00  0.00    -0.380 N 
HETATM    8  C8  UNL     1      25.443   5.084  49.387  1.00  0.00     0.112 A 
HETATM    9  C9  UNL     1      24.076   4.783  49.416  1.00  0.00     0.200 A 
HETATM   10  N3  UNL     1      23.211   5.546  48.713  1.00  0.00    -0.215 NA
HETATM   11  C10 UNL     1      23.704   6.596  47.991  1.00  0.00     0.236 A 
HETATM   12  N4  UNL     1      25.015   6.890  47.961  1.00  0.00    -0.239 NA
HETATM   13  C11 UNL     1      25.927   6.150  48.652  1.00  0.00     0.099 A 
HETATM   14  O2  UNL     1      23.475   3.726  50.126  1.00  0.00    -0.291 OA
HETATM   15  H10 UNL     1      27.257   5.157  50.305  1.00  0.00     0.160 HD
ENDROOT
BRANCH  13  16
HETATM   16  C12 UNL     1      27.332   6.528  48.567  1.00  0.00    -0.004 A 
HETATM   17  C13 UNL     1      27.499   7.887  48.862  1.00  0.00     0.014 A 
HETATM   18  C14 UNL     1      28.736   8.493  48.839  1.00  0.00     0.002 A 
HETATM   19  C15 UNL     1      29.844   7.768  48.521  1.00  0.00     0.019 A 
HETATM   20  C16 UNL     1      29.692   6.436  48.231  1.00  0.00     0.011 A 
HETATM   21 BR1  UNL     1      31.175   5.342  47.777  1.00  0.00    -0.051 Br
HETATM   22  C17 UNL     1      28.485   5.803  48.244  1.00  0.00     0.033 A 
ENDBRANCH  13  16
BRANCH   1  23
HETATM   23  O1  UNL     1      26.667   0.907  52.573  1.00  0.00    -0.356 OA
HETATM   24  C1  UNL     1      26.803  -0.498  52.488  1.00  0.00     0.210 C 
ENDBRANCH   1  23
BRANCH   3  25
HETATM   25  N1  UNL     1      22.406   1.129  51.190  1.00  0.00     0.092 N 
HETATM   26  H6  UNL     1      21.913   0.443  51.803  1.00  0.00     0.314 HD
HETATM   27  H7  UNL     1      22.911   0.722  50.390  1.00  0.00     0.314 HD
ENDBRANCH   3  25
TORSDOF 3
ENDMDL
MODEL 9
REMARK VINA RESULT:      -7.4      3.730      6.979
REMARK  3 active torsions:
REMARK  status: ('A' for Active; 'I' for Inactive)
REMARK    1  A    between atoms: O1_2  and  C2_3 
REMARK    2  A    between atoms: C4_5  and  N1_6 
REMARK    3  A    between atoms: C11_16  and  C12_17 
ROOT
HETATM    1  C2  UNL     1      23.974   4.740  48.974  1.00  0.00     0.077 A 
HETATM    2  C3  UNL     1      22.820   4.802  48.289  1.00  0.00     0.052 A 
HETATM    3  C4  UNL     1      21.861   3.841  48.877  1.00  0.00     0.301 A 
HETATM    4  C5  UNL     1      22.658   3.253  49.973  1.00  0.00     0.102 A 
HETATM    5  C6  UNL     1      23.883   3.746  50.061  1.00  0.00     0.025 A 
HETATM    6  C7  UNL     1      25.020   3.483  50.965  1.00  0.00     0.164 C 
HETATM    7  N2  UNL     1      25.147   2.075  51.325  1.00  0.00    -0.380 N 
HETATM    8  C8  UNL     1      24.089   1.259  51.871  1.00  0.00     0.112 A 
HETATM    9  C9  UNL     1      22.712   1.337  51.626  1.00  0.00     0.200 A 
HETATM   10  N3  UNL     1      21.879   0.461  52.228  1.00  0.00    -0.215 NA
HETATM   11  C10 UNL     1      22.411  -0.480  53.062  1.00  0.00     0.236 A 
HETATM   12  N4  UNL     1      23.731  -0.560  53.301  1.00  0.00    -0.239 NA
HETATM   13  C11 UNL     1      24.613   0.301  52.719  1.00  0.00     0.099 A 
HETATM   14  O2  UNL     1      22.071   2.268  50.786  1.00  0.00    -0.291 OA
HETATM   15  H10 UNL     1      26.012   1.457  51.237  1.00  0.00     0.160 HD
ENDROOT
BRANCH  13  16
HETATM   16  C12 UNL     1      26.030   0.156  53.029  1.00  0.00    -0.004 A 
HETATM   17  C13 UNL     1      26.478  -1.132  52.709  1.00  0.00     0.014 A 
HETATM   18  C14 UNL     1      27.781  -1.526  52.919  1.00  0.00     0.002 A 
HETATM   19  C15 UNL     1      28.679  -0.653  53.454  1.00  0.00     0.019 A 
HETATM   20  C16 UNL     1      28.251   0.612  53.771  1.00  0.00     0.011 A 
HETATM   21 BR1  UNL     1      29.426   1.900  54.521  1.00  0.00    -0.051 Br
HETATM   22  C17 UNL     1      26.970   1.035  53.577  1.00  0.00     0.033 A 
ENDBRANCH  13  16
BRANCH   1  23
HETATM   23  O1  UNL     1      25.126   5.506  48.711  1.00  0.00    -0.356 OA
HETATM   24  C1  UNL     1      25.309   6.720  49.413  1.00  0.00     0.210 C 
ENDBRANCH   1  23
BRANCH   3  25
HETATM   25  N1  UNL     1      20.790   4.635  49.456  1.00  0.00     0.092 N 
HETATM   26  H6  UNL     1      20.769   5.610  49.083  1.00  0.00     0.314 HD
HETATM   27  H7  UNL     1      20.762   4.555  50.482  1.00  0.00     0.314 HD
ENDBRANCH   3  25
TORSDOF 3
ENDMDL
