MODEL 1
REMARK VINA RESULT:      -7.4      0.000      0.000
REMARK  7 active torsions:
REMARK  status: ('A' for Active; 'I' for Inactive)
REMARK    1  A    between atoms: O1_1  and  C1_2 
REMARK    2  A    between atoms: C1_2  and  C2_3 
REMARK    3  A    between atoms: C2_3  and  C3_4 
REMARK    4  A    between atoms: C2_3  and  N1_10 
REMARK    5  A    between atoms: C3_4  and  C4_5 
REMARK    6  A    between atoms: C5_6  and  C6_7 
REMARK    7  A    between atoms: N1_10  and  C8_11 
ROOT
HETATM    1  C8  UNL     1      23.448   3.760  51.898  1.00  0.00     0.139 A 
HETATM    2  N2  UNL     1      23.216   4.985  51.420  1.00  0.00    -0.224 NA
HETATM    3  C9  UNL     1      22.019   5.474  51.193  1.00  0.00     0.236 A 
HETATM    4  N3  UNL     1      20.992   4.658  51.472  1.00  0.00    -0.234 NA
HETATM    5  C10 UNL     1      21.196   3.408  51.960  1.00  0.00     0.114 A 
HETATM    6  S1  UNL     1      20.032   2.220  52.373  1.00  0.00    -0.073 SA
HETATM    7  C11 UNL     1      21.326   0.958  52.902  1.00  0.00    -0.008 A 
HETATM    8  C12 UNL     1      22.499   1.598  52.697  1.00  0.00    -0.028 A 
HETATM    9  C13 UNL     1      22.444   2.862  52.210  1.00  0.00     0.053 A 
HETATM   10  C14 UNL     1      23.519   0.601  53.135  1.00  0.00     0.041 C 
HETATM   11  C15 UNL     1      22.848  -0.478  53.882  1.00  0.00     0.010 C 
HETATM   12  C16 UNL     1      21.429  -0.415  53.419  1.00  0.00     0.047 C 
ENDROOT
BRANCH   1  13
HETATM   13  N1  UNL     1      24.859   3.512  52.013  1.00  0.00    -0.367 N 
HETATM   14  H11 UNL     1      25.356   3.933  52.823  1.00  0.00     0.161 HD
BRANCH  13  15
HETATM   15  C2  UNL     1      25.682   2.730  51.130  1.00  0.00     0.110 C 
BRANCH  15  16
HETATM   16  C1  UNL     1      26.186   3.573  49.969  1.00  0.00     0.189 C 
BRANCH  16  17
HETATM   17  O1  UNL     1      26.127   4.919  50.359  1.00  0.00    -0.399 OA
HETATM   18  H1  UNL     1      26.492   5.479  49.643  1.00  0.00     0.209 HD
ENDBRANCH  16  17
ENDBRANCH  15  16
BRANCH  15  19
HETATM   19  C3  UNL     1      26.883   2.105  51.803  1.00  0.00     0.054 C 
BRANCH  19  20
HETATM   20  C4  UNL     1      26.849   0.642  51.836  1.00  0.00    -0.025 C 
HETATM   21  C5  UNL     1      26.989  -0.266  52.779  1.00  0.00    -0.003 C 
BRANCH  21  22
HETATM   22  C6  UNL     1      27.241   0.120  54.159  1.00  0.00     0.007 C 
HETATM   23  C7  UNL     1      28.443  -0.062  54.671  1.00  0.00     0.056 C 
HETATM   24 BR1  UNL     1      29.837  -0.820  53.620  1.00  0.00    -0.064 Br
ENDBRANCH  21  22
ENDBRANCH  19  20
ENDBRANCH  15  19
ENDBRANCH  13  15
ENDBRANCH   1  13
TORSDOF 7
ENDMDL
MODEL 2
REMARK VINA RESULT:      -7.2      1.834      2.056
REMARK  7 active torsions:
REMARK  status: ('A' for Active; 'I' for Inactive)
REMARK    1  A    between atoms: O1_1  and  C1_2 
REMARK    2  A    between atoms: C1_2  and  C2_3 
REMARK    3  A    between atoms: C2_3  and  C3_4 
REMARK    4  A    between atoms: C2_3  and  N1_10 
REMARK    5  A    between atoms: C3_4  and  C4_5 
REMARK    6  A    between atoms: C5_6  and  C6_7 
REMARK    7  A    between atoms: N1_10  and  C8_11 
ROOT
HETATM    1  C8  UNL     1      22.760   1.586  51.124  1.00  0.00     0.139 A 
HETATM    2  N2  UNL     1      22.370   2.413  50.151  1.00  0.00    -0.224 NA
HETATM    3  C9  UNL     1      21.118   2.625  49.821  1.00  0.00     0.236 A 
HETATM    4  N3  UNL     1      20.204   1.949  50.532  1.00  0.00    -0.234 NA
HETATM    5  C10 UNL     1      20.568   1.102  51.528  1.00  0.00     0.114 A 
HETATM    6  S1  UNL     1      19.567   0.151  52.541  1.00  0.00    -0.073 SA
HETATM    7  C11 UNL     1      21.016  -0.588  53.489  1.00  0.00    -0.008 A 
HETATM    8  C12 UNL     1      22.099  -0.017  52.914  1.00  0.00    -0.028 A 
HETATM    9  C13 UNL     1      21.880   0.855  51.900  1.00  0.00     0.053 A 
HETATM   10  C14 UNL     1      23.241  -0.593  53.681  1.00  0.00     0.041 C 
HETATM   11  C15 UNL     1      22.726  -1.246  54.897  1.00  0.00     0.010 C 
HETATM   12  C16 UNL     1      21.296  -1.538  54.577  1.00  0.00     0.047 C 
ENDROOT
BRANCH   1  13
HETATM   13  N1  UNL     1      24.193   1.551  51.225  1.00  0.00    -0.367 N 
HETATM   14  H11 UNL     1      24.685   0.733  50.813  1.00  0.00     0.161 HD
BRANCH  13  15
HETATM   15  C2  UNL     1      25.049   2.535  51.833  1.00  0.00     0.110 C 
BRANCH  15  16
HETATM   16  C1  UNL     1      24.540   2.918  53.214  1.00  0.00     0.189 C 
BRANCH  16  17
HETATM   17  O1  UNL     1      24.153   4.266  53.171  1.00  0.00    -0.399 OA
HETATM   18  H1  UNL     1      24.264   4.662  54.060  1.00  0.00     0.209 HD
ENDBRANCH  16  17
ENDBRANCH  15  16
BRANCH  15  19
HETATM   19  C3  UNL     1      26.487   2.094  51.977  1.00  0.00     0.054 C 
BRANCH  19  20
HETATM   20  C4  UNL     1      26.670   0.643  51.919  1.00  0.00    -0.025 C 
HETATM   21  C5  UNL     1      26.952  -0.291  52.804  1.00  0.00    -0.003 C 
BRANCH  21  22
HETATM   22  C6  UNL     1      27.158   0.043  54.205  1.00  0.00     0.007 C 
HETATM   23  C7  UNL     1      28.371  -0.033  54.716  1.00  0.00     0.056 C 
HETATM   24 BR1  UNL     1      29.842  -0.570  53.636  1.00  0.00    -0.064 Br
ENDBRANCH  21  22
ENDBRANCH  19  20
ENDBRANCH  15  19
ENDBRANCH  13  15
ENDBRANCH   1  13
TORSDOF 7
ENDMDL
MODEL 3
REMARK VINA RESULT:      -7.2      3.368      5.027
REMARK  7 active torsions:
REMARK  status: ('A' for Active; 'I' for Inactive)
REMARK    1  A    between atoms: O1_1  and  C1_2 
REMARK    2  A    between atoms: C1_2  and  C2_3 
REMARK    3  A    between atoms: C2_3  and  C3_4 
REMARK    4  A    between atoms: C2_3  and  N1_10 
REMARK    5  A    between atoms: C3_4  and  C4_5 
REMARK    6  A    between atoms: C5_6  and  C6_7 
REMARK    7  A    between atoms: N1_10  and  C8_11 
ROOT
HETATM    1  C8  UNL     1      24.469  -0.097  53.470  1.00  0.00     0.139 A 
HETATM    2  N2  UNL     1      25.162  -0.584  54.503  1.00  0.00    -0.224 NA
HETATM    3  C9  UNL     1      24.626  -1.225  55.515  1.00  0.00     0.236 A 
HETATM    4  N3  UNL     1      23.295  -1.379  55.469  1.00  0.00    -0.234 NA
HETATM    5  C10 UNL     1      22.563  -0.897  54.433  1.00  0.00     0.114 A 
HETATM    6  S1  UNL     1      20.869  -0.984  54.190  1.00  0.00    -0.073 SA
HETATM    7  C11 UNL     1      20.931  -0.056  52.553  1.00  0.00    -0.008 A 
HETATM    8  C12 UNL     1      22.246   0.212  52.387  1.00  0.00    -0.028 A 
HETATM    9  C13 UNL     1      23.097  -0.216  53.351  1.00  0.00     0.053 A 
HETATM   10  C14 UNL     1      22.291   0.930  51.080  1.00  0.00     0.041 C 
HETATM   11  C15 UNL     1      20.998   0.760  50.392  1.00  0.00     0.010 C 
HETATM   12  C16 UNL     1      20.040   0.435  51.491  1.00  0.00     0.047 C 
ENDROOT
BRANCH   1  13
HETATM   13  N1  UNL     1      25.336   0.572  52.539  1.00  0.00    -0.367 N 
HETATM   14  H11 UNL     1      25.684   0.025  51.727  1.00  0.00     0.161 HD
BRANCH  13  15
HETATM   15  C2  UNL     1      25.782   1.939  52.591  1.00  0.00     0.110 C 
BRANCH  15  16
HETATM   16  C1  UNL     1      27.296   2.010  52.719  1.00  0.00     0.189 C 
BRANCH  16  17
HETATM   17  O1  UNL     1      27.595   2.705  53.901  1.00  0.00    -0.399 OA
HETATM   18  H1  UNL     1      27.362   2.148  54.671  1.00  0.00     0.209 HD
ENDBRANCH  16  17
ENDBRANCH  15  16
BRANCH  15  19
HETATM   19  C3  UNL     1      25.382   2.762  51.388  1.00  0.00     0.054 C 
BRANCH  19  20
HETATM   20  C4  UNL     1      26.423   2.857  50.363  1.00  0.00    -0.025 C 
HETATM   21  C5  UNL     1      26.764   3.764  49.472  1.00  0.00    -0.003 C 
BRANCH  21  22
HETATM   22  C6  UNL     1      26.032   5.016  49.359  1.00  0.00     0.007 C 
HETATM   23  C7  UNL     1      26.630   6.070  48.838  1.00  0.00     0.056 C 
HETATM   24 BR1  UNL     1      28.432   5.960  48.238  1.00  0.00    -0.064 Br
ENDBRANCH  21  22
ENDBRANCH  19  20
ENDBRANCH  15  19
ENDBRANCH  13  15
ENDBRANCH   1  13
TORSDOF 7
ENDMDL
MODEL 4
REMARK VINA RESULT:      -7.2      3.029      5.310
REMARK  7 active torsions:
REMARK  status: ('A' for Active; 'I' for Inactive)
REMARK    1  A    between atoms: O1_1  and  C1_2 
REMARK    2  A    between atoms: C1_2  and  C2_3 
REMARK    3  A    between atoms: C2_3  and  C3_4 
REMARK    4  A    between atoms: C2_3  and  N1_10 
REMARK    5  A    between atoms: C3_4  and  C4_5 
REMARK    6  A    between atoms: C5_6  and  C6_7 
REMARK    7  A    between atoms: N1_10  and  C8_11 
ROOT
HETATM    1  C8  UNL     1      24.342   2.333  52.480  1.00  0.00     0.139 A 
HETATM    2  N2  UNL     1      23.024   2.156  52.359  1.00  0.00    -0.224 NA
HETATM    3  C9  UNL     1      22.372   1.120  52.833  1.00  0.00     0.236 A 
HETATM    4  N3  UNL     1      23.115   0.205  53.473  1.00  0.00    -0.234 NA
HETATM    5  C10 UNL     1      24.456   0.357  53.613  1.00  0.00     0.114 A 
HETATM    6  S1  UNL     1      25.574  -0.687  54.384  1.00  0.00    -0.073 SA
HETATM    7  C11 UNL     1      27.053   0.417  54.009  1.00  0.00    -0.008 A 
HETATM    8  C12 UNL     1      26.513   1.458  53.336  1.00  0.00    -0.028 A 
HETATM    9  C13 UNL     1      25.174   1.437  53.124  1.00  0.00     0.053 A 
HETATM   10  C14 UNL     1      27.685   2.337  53.059  1.00  0.00     0.041 C 
HETATM   11  C15 UNL     1      28.825   1.895  53.882  1.00  0.00     0.010 C 
HETATM   12  C16 UNL     1      28.510   0.471  54.208  1.00  0.00     0.047 C 
ENDROOT
BRANCH   1  13
HETATM   13  N1  UNL     1      24.758   3.548  51.836  1.00  0.00    -0.367 N 
HETATM   14  H11 UNL     1      25.655   3.973  52.144  1.00  0.00     0.161 HD
BRANCH  13  15
HETATM   15  C2  UNL     1      24.075   4.259  50.788  1.00  0.00     0.110 C 
BRANCH  15  16
HETATM   16  C1  UNL     1      24.057   5.753  51.069  1.00  0.00     0.189 C 
BRANCH  16  17
HETATM   17  O1  UNL     1      24.087   5.930  52.461  1.00  0.00    -0.399 OA
HETATM   18  H1  UNL     1      23.759   5.116  52.896  1.00  0.00     0.209 HD
ENDBRANCH  16  17
ENDBRANCH  15  16
BRANCH  15  19
HETATM   19  C3  UNL     1      24.673   4.054  49.416  1.00  0.00     0.054 C 
BRANCH  19  20
HETATM   20  C4  UNL     1      26.120   3.833  49.427  1.00  0.00    -0.025 C 
HETATM   21  C5  UNL     1      27.169   4.554  49.092  1.00  0.00    -0.003 C 
BRANCH  21  22
HETATM   22  C6  UNL     1      27.016   5.904  48.574  1.00  0.00     0.007 C 
HETATM   23  C7  UNL     1      28.070   6.538  48.098  1.00  0.00     0.056 C 
HETATM   24 BR1  UNL     1      29.777   5.699  48.085  1.00  0.00    -0.064 Br
ENDBRANCH  21  22
ENDBRANCH  19  20
ENDBRANCH  15  19
ENDBRANCH  13  15
ENDBRANCH   1  13
TORSDOF 7
ENDMDL
MODEL 5
REMARK VINA RESULT:      -7.0      3.638      5.563
REMARK  7 active torsions:
REMARK  status: ('A' for Active; 'I' for Inactive)
REMARK    1  A    between atoms: O1_1  and  C1_2 
REMARK    2  A    between atoms: C1_2  and  C2_3 
REMARK    3  A    between atoms: C2_3  and  C3_4 
REMARK    4  A    between atoms: C2_3  and  N1_10 
REMARK    5  A    between atoms: C3_4  and  C4_5 
REMARK    6  A    between atoms: C5_6  and  C6_7 
REMARK    7  A    between atoms: N1_10  and  C8_11 
ROOT
HETATM    1  C8  UNL     1      25.458   0.674  52.514  1.00  0.00     0.139 A 
HETATM    2  N2  UNL     1      26.790   0.663  52.598  1.00  0.00    -0.224 NA
HETATM    3  C9  UNL     1      27.465   0.053  53.544  1.00  0.00     0.236 A 
HETATM    4  N3  UNL     1      26.730  -0.587  54.465  1.00  0.00    -0.234 NA
HETATM    5  C10 UNL     1      25.374  -0.595  54.407  1.00  0.00     0.114 A 
HETATM    6  S1  UNL     1      24.264  -1.343  55.476  1.00  0.00    -0.073 SA
HETATM    7  C11 UNL     1      22.754  -0.753  54.518  1.00  0.00    -0.008 A 
HETATM    8  C12 UNL     1      23.282  -0.052  53.490  1.00  0.00    -0.028 A 
HETATM    9  C13 UNL     1      24.633   0.038  53.423  1.00  0.00     0.053 A 
HETATM   10  C14 UNL     1      22.082   0.397  52.725  1.00  0.00     0.041 C 
HETATM   11  C15 UNL     1      20.903  -0.354  53.193  1.00  0.00     0.010 C 
HETATM   12  C16 UNL     1      21.285  -0.817  54.561  1.00  0.00     0.047 C 
ENDROOT
BRANCH   1  13
HETATM   13  N1  UNL     1      25.020   1.445  51.383  1.00  0.00    -0.367 N 
HETATM   14  H11 UNL     1      24.778   0.930  50.514  1.00  0.00     0.161 HD
BRANCH  13  15
HETATM   15  C2  UNL     1      24.865   2.874  51.309  1.00  0.00     0.110 C 
BRANCH  15  16
HETATM   16  C1  UNL     1      25.934   3.490  50.421  1.00  0.00     0.189 C 
BRANCH  16  17
HETATM   17  O1  UNL     1      27.175   3.297  51.045  1.00  0.00    -0.399 OA
HETATM   18  H1  UNL     1      27.703   2.657  50.525  1.00  0.00     0.209 HD
ENDBRANCH  16  17
ENDBRANCH  15  16
BRANCH  15  19
HETATM   19  C3  UNL     1      23.518   3.319  50.787  1.00  0.00     0.054 C 
BRANCH  19  20
HETATM   20  C4  UNL     1      23.342   3.109  49.349  1.00  0.00    -0.025 C 
HETATM   21  C5  UNL     1      22.638   2.273  48.614  1.00  0.00    -0.003 C 
BRANCH  21  22
HETATM   22  C6  UNL     1      21.790   1.265  49.232  1.00  0.00     0.007 C 
HETATM   23  C7  UNL     1      20.480   1.411  49.193  1.00  0.00     0.056 C 
HETATM   24 BR1  UNL     1      19.701   2.922  48.338  1.00  0.00    -0.064 Br
ENDBRANCH  21  22
ENDBRANCH  19  20
ENDBRANCH  15  19
ENDBRANCH  13  15
ENDBRANCH   1  13
TORSDOF 7
ENDMDL
MODEL 6
REMARK VINA RESULT:      -6.9      3.543      5.388
REMARK  7 active torsions:
REMARK  status: ('A' for Active; 'I' for Inactive)
REMARK    1  A    between atoms: O1_1  and  C1_2 
REMARK    2  A    between atoms: C1_2  and  C2_3 
REMARK    3  A    between atoms: C2_3  and  C3_4 
REMARK    4  A    between atoms: C2_3  and  N1_10 
REMARK    5  A    between atoms: C3_4  and  C4_5 
REMARK    6  A    between atoms: C5_6  and  C6_7 
REMARK    7  A    between atoms: N1_10  and  C8_11 
ROOT
HETATM    1  C8  UNL     1      23.683  -0.239  53.597  1.00  0.00     0.139 A 
HETATM    2  N2  UNL     1      24.047  -0.840  54.733  1.00  0.00    -0.224 NA
HETATM    3  C9  UNL     1      23.216  -1.456  55.541  1.00  0.00     0.236 A 
HETATM    4  N3  UNL     1      21.929  -1.458  55.165  1.00  0.00    -0.234 NA
HETATM    5  C10 UNL     1      21.528  -0.857  54.016  1.00  0.00     0.114 A 
HETATM    6  S1  UNL     1      19.947  -0.745  53.365  1.00  0.00    -0.073 SA
HETATM    7  C11 UNL     1      20.505   0.233  51.855  1.00  0.00    -0.008 A 
HETATM    8  C12 UNL     1      21.840   0.358  52.030  1.00  0.00    -0.028 A 
HETATM    9  C13 UNL     1      22.378  -0.199  53.142  1.00  0.00     0.053 A 
HETATM   10  C14 UNL     1      22.277   1.116  50.823  1.00  0.00     0.041 C 
HETATM   11  C15 UNL     1      21.186   1.119  49.832  1.00  0.00     0.010 C 
HETATM   12  C16 UNL     1      19.957   0.861  50.643  1.00  0.00     0.047 C 
ENDROOT
BRANCH   1  13
HETATM   13  N1  UNL     1      24.815   0.364  52.949  1.00  0.00    -0.367 N 
HETATM   14  H11 UNL     1      25.251  -0.155  52.162  1.00  0.00     0.161 HD
BRANCH  13  15
HETATM   15  C2  UNL     1      25.425   1.629  53.259  1.00  0.00     0.110 C 
BRANCH  15  16
HETATM   16  C1  UNL     1      26.941   1.536  53.173  1.00  0.00     0.189 C 
BRANCH  16  17
HETATM   17  O1  UNL     1      27.479   2.603  53.907  1.00  0.00    -0.399 OA
HETATM   18  H1  UNL     1      28.180   3.038  53.379  1.00  0.00     0.209 HD
ENDBRANCH  16  17
ENDBRANCH  15  16
BRANCH  15  19
HETATM   19  C3  UNL     1      24.982   2.761  52.362  1.00  0.00     0.054 C 
BRANCH  19  20
HETATM   20  C4  UNL     1      23.958   3.622  52.957  1.00  0.00    -0.025 C 
HETATM   21  C5  UNL     1      23.237   4.637  52.527  1.00  0.00    -0.003 C 
BRANCH  21  22
HETATM   22  C6  UNL     1      23.378   5.132  51.166  1.00  0.00     0.007 C 
HETATM   23  C7  UNL     1      22.316   5.187  50.386  1.00  0.00     0.056 C 
HETATM   24 BR1  UNL     1      20.615   4.628  51.027  1.00  0.00    -0.064 Br
ENDBRANCH  21  22
ENDBRANCH  19  20
ENDBRANCH  15  19
ENDBRANCH  13  15
ENDBRANCH   1  13
TORSDOF 7
ENDMDL
MODEL 7
REMARK VINA RESULT:      -6.8      2.401      4.178
REMARK  7 active torsions:
REMARK  status: ('A' for Active; 'I' for Inactive)
REMARK    1  A    between atoms: O1_1  and  C1_2 
REMARK    2  A    between atoms: C1_2  and  C2_3 
REMARK    3  A    between atoms: C2_3  and  C3_4 
REMARK    4  A    between atoms: C2_3  and  N1_10 
REMARK    5  A    between atoms: C3_4  and  C4_5 
REMARK    6  A    between atoms: C5_6  and  C6_7 
REMARK    7  A    between atoms: N1_10  and  C8_11 
ROOT
HETATM    1  C8  UNL     1      22.711   2.136  51.961  1.00  0.00     0.139 A 
HETATM    2  N2  UNL     1      21.470   2.122  52.454  1.00  0.00    -0.224 NA
HETATM    3  C9  UNL     1      20.633   3.130  52.375  1.00  0.00     0.236 A 
HETATM    4  N3  UNL     1      21.094   4.224  51.752  1.00  0.00    -0.234 NA
HETATM    5  C10 UNL     1      22.350   4.269  51.240  1.00  0.00     0.114 A 
HETATM    6  S1  UNL     1      23.123   5.559  50.420  1.00  0.00    -0.073 SA
HETATM    7  C11 UNL     1      24.729   4.606  50.175  1.00  0.00    -0.008 A 
HETATM    8  C12 UNL     1      24.480   3.409  50.752  1.00  0.00    -0.028 A 
HETATM    9  C13 UNL     1      23.257   3.224  51.306  1.00  0.00     0.053 A 
HETATM   10  C14 UNL     1      25.748   2.652  50.539  1.00  0.00     0.041 C 
HETATM   11  C15 UNL     1      26.574   3.364  49.547  1.00  0.00     0.010 C 
HETATM   12  C16 UNL     1      26.071   4.770  49.595  1.00  0.00     0.047 C 
ENDROOT
BRANCH   1  13
HETATM   13  N1  UNL     1      23.383   0.895  52.227  1.00  0.00    -0.367 N 
HETATM   14  H11 UNL     1      24.014   0.521  51.490  1.00  0.00     0.161 HD
BRANCH  13  15
HETATM   15  C2  UNL     1      23.296   0.093  53.419  1.00  0.00     0.110 C 
BRANCH  15  16
HETATM   16  C1  UNL     1      22.402  -1.117  53.194  1.00  0.00     0.189 C 
BRANCH  16  17
HETATM   17  O1  UNL     1      21.088  -0.745  53.516  1.00  0.00    -0.399 OA
HETATM   18  H1  UNL     1      21.094  -0.211  54.336  1.00  0.00     0.209 HD
ENDBRANCH  16  17
ENDBRANCH  15  16
BRANCH  15  19
HETATM   19  C3  UNL     1      24.630  -0.406  53.923  1.00  0.00     0.054 C 
BRANCH  19  20
HETATM   20  C4  UNL     1      25.730  -0.217  52.975  1.00  0.00    -0.025 C 
HETATM   21  C5  UNL     1      26.980   0.186  53.075  1.00  0.00    -0.003 C 
BRANCH  21  22
HETATM   22  C6  UNL     1      27.543   0.566  54.361  1.00  0.00     0.007 C 
HETATM   23  C7  UNL     1      28.734   0.114  54.704  1.00  0.00     0.056 C 
HETATM   24 BR1  UNL     1      29.710  -1.022  53.531  1.00  0.00    -0.064 Br
ENDBRANCH  21  22
ENDBRANCH  19  20
ENDBRANCH  15  19
ENDBRANCH  13  15
ENDBRANCH   1  13
TORSDOF 7
ENDMDL
MODEL 8
REMARK VINA RESULT:      -6.8      3.920      6.510
REMARK  7 active torsions:
REMARK  status: ('A' for Active; 'I' for Inactive)
REMARK    1  A    between atoms: O1_1  and  C1_2 
REMARK    2  A    between atoms: C1_2  and  C2_3 
REMARK    3  A    between atoms: C2_3  and  C3_4 
REMARK    4  A    between atoms: C2_3  and  N1_10 
REMARK    5  A    between atoms: C3_4  and  C4_5 
REMARK    6  A    between atoms: C5_6  and  C6_7 
REMARK    7  A    between atoms: N1_10  and  C8_11 
ROOT
HETATM    1  C8  UNL     1      24.369   0.270  53.049  1.00  0.00     0.139 A 
HETATM    2  N2  UNL     1      25.115  -0.825  53.212  1.00  0.00    -0.224 NA
HETATM    3  C9  UNL     1      26.328  -0.970  52.733  1.00  0.00     0.236 A 
HETATM    4  N3  UNL     1      26.811   0.073  52.042  1.00  0.00    -0.234 NA
HETATM    5  C10 UNL     1      26.078   1.200  51.860  1.00  0.00     0.114 A 
HETATM    6  S1  UNL     1      26.506   2.628  51.014  1.00  0.00    -0.073 SA
HETATM    7  C11 UNL     1      24.863   3.478  51.366  1.00  0.00    -0.008 A 
HETATM    8  C12 UNL     1      24.180   2.564  52.092  1.00  0.00    -0.028 A 
HETATM    9  C13 UNL     1      24.796   1.385  52.351  1.00  0.00     0.053 A 
HETATM   10  C14 UNL     1      22.887   3.250  52.383  1.00  0.00     0.041 C 
HETATM   11  C15 UNL     1      23.019   4.683  52.065  1.00  0.00     0.010 C 
HETATM   12  C16 UNL     1      24.156   4.739  51.096  1.00  0.00     0.047 C 
ENDROOT
BRANCH   1  13
HETATM   13  N1  UNL     1      23.082   0.113  53.669  1.00  0.00    -0.367 N 
HETATM   14  H11 UNL     1      22.925   0.590  54.579  1.00  0.00     0.161 HD
BRANCH  13  15
HETATM   15  C2  UNL     1      21.958  -0.633  53.168  1.00  0.00     0.110 C 
BRANCH  15  16
HETATM   16  C1  UNL     1      21.130  -1.198  54.311  1.00  0.00     0.189 C 
BRANCH  16  17
HETATM   17  O1  UNL     1      22.016  -1.656  55.298  1.00  0.00    -0.399 OA
HETATM   18  H1  UNL     1      22.031  -2.636  55.288  1.00  0.00     0.209 HD
ENDBRANCH  16  17
ENDBRANCH  15  16
BRANCH  15  19
HETATM   19  C3  UNL     1      21.034   0.171  52.282  1.00  0.00     0.054 C 
BRANCH  19  20
HETATM   20  C4  UNL     1      21.382   0.119  50.861  1.00  0.00    -0.025 C 
HETATM   21  C5  UNL     1      21.180   0.910  49.829  1.00  0.00    -0.003 C 
BRANCH  21  22
HETATM   22  C6  UNL     1      20.458   2.164  49.977  1.00  0.00     0.007 C 
HETATM   23  C7  UNL     1      20.871   3.230  49.319  1.00  0.00     0.056 C 
HETATM   24 BR1  UNL     1      22.396   3.134  48.185  1.00  0.00    -0.064 Br
ENDBRANCH  21  22
ENDBRANCH  19  20
ENDBRANCH  15  19
ENDBRANCH  13  15
ENDBRANCH   1  13
TORSDOF 7
ENDMDL
MODEL 9
REMARK VINA RESULT:      -6.8      3.041      5.116
REMARK  7 active torsions:
REMARK  status: ('A' for Active; 'I' for Inactive)
REMARK    1  A    between atoms: O1_1  and  C1_2 
REMARK    2  A    between atoms: C1_2  and  C2_3 
REMARK    3  A    between atoms: C2_3  and  C3_4 
REMARK    4  A    between atoms: C2_3  and  N1_10 
REMARK    5  A    between atoms: C3_4  and  C4_5 
REMARK    6  A    between atoms: C5_6  and  C6_7 
REMARK    7  A    between atoms: N1_10  and  C8_11 
ROOT
HETATM    1  C8  UNL     1      25.233   0.827  52.583  1.00  0.00     0.139 A 
HETATM    2  N2  UNL     1      26.564   0.911  52.656  1.00  0.00    -0.224 NA
HETATM    3  C9  UNL     1      27.291   0.322  53.576  1.00  0.00     0.236 A 
HETATM    4  N3  UNL     1      26.615  -0.401  54.481  1.00  0.00    -0.234 NA
HETATM    5  C10 UNL     1      25.263  -0.506  54.433  1.00  0.00     0.114 A 
HETATM    6  S1  UNL     1      24.221  -1.368  55.485  1.00  0.00    -0.073 SA
HETATM    7  C11 UNL     1      22.662  -0.861  54.558  1.00  0.00    -0.008 A 
HETATM    8  C12 UNL     1      23.127  -0.089  53.550  1.00  0.00    -0.028 A 
HETATM    9  C13 UNL     1      24.466   0.102  53.476  1.00  0.00     0.053 A 
HETATM   10  C14 UNL     1      21.890   0.294  52.810  1.00  0.00     0.041 C 
HETATM   11  C15 UNL     1      20.774  -0.556  53.261  1.00  0.00     0.010 C 
HETATM   12  C16 UNL     1      21.202  -1.034  54.610  1.00  0.00     0.047 C 
ENDROOT
BRANCH   1  13
HETATM   13  N1  UNL     1      24.729   1.600  51.482  1.00  0.00    -0.367 N 
HETATM   14  H11 UNL     1      24.841   1.207  50.526  1.00  0.00     0.161 HD
BRANCH  13  15
HETATM   15  C2  UNL     1      24.066   2.876  51.543  1.00  0.00     0.110 C 
BRANCH  15  16
HETATM   16  C1  UNL     1      24.183   3.481  52.933  1.00  0.00     0.189 C 
BRANCH  16  17
HETATM   17  O1  UNL     1      23.934   4.858  52.824  1.00  0.00    -0.399 OA
HETATM   18  H1  UNL     1      24.777   5.347  52.920  1.00  0.00     0.209 HD
ENDBRANCH  16  17
ENDBRANCH  15  16
BRANCH  15  19
HETATM   19  C3  UNL     1      24.591   3.889  50.553  1.00  0.00     0.054 C 
BRANCH  19  20
HETATM   20  C4  UNL     1      25.921   3.572  50.029  1.00  0.00    -0.025 C 
HETATM   21  C5  UNL     1      26.806   4.216  49.297  1.00  0.00    -0.003 C 
BRANCH  21  22
HETATM   22  C6  UNL     1      26.545   5.566  48.823  1.00  0.00     0.007 C 
HETATM   23  C7  UNL     1      27.537   6.280  48.329  1.00  0.00     0.056 C 
HETATM   24 BR1  UNL     1      29.294   5.557  48.233  1.00  0.00    -0.064 Br
ENDBRANCH  21  22
ENDBRANCH  19  20
ENDBRANCH  15  19
ENDBRANCH  13  15
ENDBRANCH   1  13
TORSDOF 7
ENDMDL
