MODEL 1
REMARK VINA RESULT:      -8.3      0.000      0.000
REMARK  7 active torsions:
REMARK  status: ('A' for Active; 'I' for Inactive)
REMARK    1  A    between atoms: N2_5  and  C4_6 
REMARK    2  A    between atoms: C4_6  and  C5_7 
REMARK    3  A    between atoms: C5_7  and  C6_8 
REMARK       I    between atoms: C6_8  and  N3_10 
REMARK    4  A    between atoms: N3_10  and  C7_11 
REMARK    5  A    between atoms: C12_16  and  N4_17 
REMARK    6  A    between atoms: N6_20  and  N7_21 
REMARK    7  A    between atoms: N7_21  and  C14_22 
ROOT
HETATM    1  C7  UNL     1      25.884   4.252  50.090  1.00  0.00     0.046 A 
HETATM    2  C8  UNL     1      26.805   3.666  49.347  1.00  0.00     0.010 A 
HETATM    3  C9  UNL     1      27.502   4.720  48.603  1.00  0.00     0.089 A 
HETATM    4  C10 UNL     1      26.856   5.995  48.998  1.00  0.00     0.052 A 
HETATM    5  C11 UNL     1      25.885   5.700  49.900  1.00  0.00     0.047 A 
HETATM    6  C12 UNL     1      25.315   6.920  50.235  1.00  0.00     0.110 A 
HETATM    7  C13 UNL     1      25.957   7.901  49.527  1.00  0.00     0.150 A 
HETATM    8  N6  UNL     1      26.908   7.318  48.766  1.00  0.00    -0.268 N 
ENDROOT
BRANCH   1   9
HETATM    9  N3  UNL     1      24.924   3.681  51.006  1.00  0.00    -0.326 N 
HETATM   10  C6  UNL     1      25.511   2.892  52.021  1.00  0.00     0.223 C 
HETATM   11  O1  UNL     1      26.762   2.657  52.174  1.00  0.00    -0.273 OA
HETATM   12  H12 UNL     1      23.911   3.634  51.208  1.00  0.00     0.169 HD
BRANCH  10  13
HETATM   13  C5  UNL     1      25.136   2.088  53.189  1.00  0.00     0.133 C 
BRANCH  13  14
HETATM   14  C4  UNL     1      24.866   0.646  52.815  1.00  0.00     0.281 C 
BRANCH  14  15
HETATM   15  N2  UNL     1      25.541  -0.172  53.820  1.00  0.00     0.092 N 
HETATM   16  C3  UNL     1      26.280  -1.224  53.184  1.00  0.00     0.302 C 
HETATM   17  C2  UNL     1      27.563  -0.699  52.597  1.00  0.00     0.302 C 
HETATM   18  N1  UNL     1      28.378  -0.058  53.612  1.00  0.00     0.087 N 
HETATM   19  C1  UNL     1      29.634  -0.734  53.747  1.00  0.00     0.310 C 
HETATM   20  C21 UNL     1      27.719  -0.018  54.887  1.00  0.00     0.302 C 
HETATM   21  C20 UNL     1      26.345   0.638  54.708  1.00  0.00     0.302 C 
ENDBRANCH  14  15
ENDBRANCH  13  14
ENDBRANCH  10  13
ENDBRANCH   1   9
BRANCH   6  22
HETATM   22  N4  UNL     1      24.255   7.112  51.149  1.00  0.00    -0.156 NA
HETATM   23  N5  UNL     1      24.212   6.600  52.299  1.00  0.00    -0.203 NA
HETATM   24  H16 UNL     1      25.024   5.997  52.572  1.00  0.00     0.212 HD
ENDBRANCH   6  22
BRANCH   8  25
HETATM   25  N7  UNL     1      27.738   8.093  47.932  1.00  0.00    -0.294 N 
HETATM   26  H18 UNL     1      27.361   8.652  47.132  1.00  0.00     0.187 HD
BRANCH  25  27
HETATM   27  C14 UNL     1      29.158   8.118  48.182  1.00  0.00     0.050 A 
HETATM   28  C15 UNL     1      29.759   8.908  49.135  1.00  0.00     0.031 A 
HETATM   29  C16 UNL     1      31.115   8.907  49.375  1.00  0.00     0.004 A 
HETATM   30  C17 UNL     1      31.906   8.052  48.601  1.00  0.00     0.019 A 
HETATM   31  C18 UNL     1      31.331   7.249  47.640  1.00  0.00     0.013 A 
HETATM   32 BR1  UNL     1      32.321   6.035  46.524  1.00  0.00    -0.051 Br
HETATM   33  C19 UNL     1      29.972   7.268  47.419  1.00  0.00     0.050 A 
ENDBRANCH  25  27
ENDBRANCH   8  25
TORSDOF 7
ENDMDL
MODEL 2
REMARK VINA RESULT:      -8.1      3.657      8.880
REMARK  7 active torsions:
REMARK  status: ('A' for Active; 'I' for Inactive)
REMARK    1  A    between atoms: N2_5  and  C4_6 
REMARK    2  A    between atoms: C4_6  and  C5_7 
REMARK    3  A    between atoms: C5_7  and  C6_8 
REMARK       I    between atoms: C6_8  and  N3_10 
REMARK    4  A    between atoms: N3_10  and  C7_11 
REMARK    5  A    between atoms: C12_16  and  N4_17 
REMARK    6  A    between atoms: N6_20  and  N7_21 
REMARK    7  A    between atoms: N7_21  and  C14_22 
ROOT
HETATM    1  C7  UNL     1      25.671   6.788  50.162  1.00  0.00     0.046 A 
HETATM    2  C8  UNL     1      24.563   7.064  50.826  1.00  0.00     0.010 A 
HETATM    3  C9  UNL     1      23.869   5.795  51.065  1.00  0.00     0.089 A 
HETATM    4  C10 UNL     1      24.708   4.745  50.440  1.00  0.00     0.052 A 
HETATM    5  C11 UNL     1      25.796   5.356  49.903  1.00  0.00     0.047 A 
HETATM    6  C12 UNL     1      26.544   4.335  49.334  1.00  0.00     0.110 A 
HETATM    7  C13 UNL     1      25.885   3.152  49.545  1.00  0.00     0.150 A 
HETATM    8  N6  UNL     1      24.752   3.418  50.230  1.00  0.00    -0.268 N 
ENDROOT
BRANCH   1   9
HETATM    9  N3  UNL     1      26.710   7.666  49.677  1.00  0.00    -0.326 N 
HETATM   10  C6  UNL     1      26.580   7.995  48.309  1.00  0.00     0.223 C 
HETATM   11  O1  UNL     1      25.661   7.589  47.513  1.00  0.00    -0.273 OA
HETATM   12  H12 UNL     1      27.560   8.174  49.976  1.00  0.00     0.169 HD
BRANCH  10  13
HETATM   13  C5  UNL     1      27.243   8.785  47.266  1.00  0.00     0.133 C 
BRANCH  13  14
HETATM   14  C4  UNL     1      27.677  10.141  47.780  1.00  0.00     0.281 C 
BRANCH  14  15
HETATM   15  N2  UNL     1      29.104  10.255  47.484  1.00  0.00     0.092 N 
HETATM   16  C3  UNL     1      29.830  10.596  48.673  1.00  0.00     0.302 C 
HETATM   17  C2  UNL     1      30.002   9.391  49.559  1.00  0.00     0.302 C 
HETATM   18  N1  UNL     1      30.674   8.316  48.854  1.00  0.00     0.087 N 
HETATM   19  C1  UNL     1      31.912   7.990  49.499  1.00  0.00     0.310 C 
HETATM   20  C21 UNL     1      30.925   8.646  47.480  1.00  0.00     0.302 C 
HETATM   21  C20 UNL     1      29.603   9.066  46.827  1.00  0.00     0.302 C 
ENDBRANCH  14  15
ENDBRANCH  13  14
ENDBRANCH  10  13
ENDBRANCH   1   9
BRANCH   6  22
HETATM   22  N4  UNL     1      27.773   4.493  48.654  1.00  0.00    -0.156 NA
HETATM   23  N5  UNL     1      28.710   5.233  49.054  1.00  0.00    -0.203 NA
HETATM   24  H16 UNL     1      28.546   5.755  49.947  1.00  0.00     0.212 HD
ENDBRANCH   6  22
BRANCH   8  25
HETATM   25  N7  UNL     1      23.874   2.380  50.597  1.00  0.00    -0.294 N 
HETATM   26  H18 UNL     1      22.958   2.226  50.115  1.00  0.00     0.187 HD
BRANCH  25  27
HETATM   27  C14 UNL     1      24.241   1.497  51.677  1.00  0.00     0.050 A 
HETATM   28  C15 UNL     1      25.539   1.230  52.047  1.00  0.00     0.031 A 
HETATM   29  C16 UNL     1      25.874   0.400  53.093  1.00  0.00     0.004 A 
HETATM   30  C17 UNL     1      24.828  -0.194  53.805  1.00  0.00     0.019 A 
HETATM   31  C18 UNL     1      23.517   0.056  53.458  1.00  0.00     0.013 A 
HETATM   32 BR1  UNL     1      22.004  -0.701  54.370  1.00  0.00    -0.051 Br
HETATM   33  C19 UNL     1      23.209   0.891  52.407  1.00  0.00     0.050 A 
ENDBRANCH  25  27
ENDBRANCH   8  25
TORSDOF 7
ENDMDL
MODEL 3
REMARK VINA RESULT:      -8.1      3.771      9.159
REMARK  7 active torsions:
REMARK  status: ('A' for Active; 'I' for Inactive)
REMARK    1  A    between atoms: N2_5  and  C4_6 
REMARK    2  A    between atoms: C4_6  and  C5_7 
REMARK    3  A    between atoms: C5_7  and  C6_8 
REMARK       I    between atoms: C6_8  and  N3_10 
REMARK    4  A    between atoms: N3_10  and  C7_11 
REMARK    5  A    between atoms: C12_16  and  N4_17 
REMARK    6  A    between atoms: N6_20  and  N7_21 
REMARK    7  A    between atoms: N7_21  and  C14_22 
ROOT
HETATM    1  C7  UNL     1      26.294   5.384  49.607  1.00  0.00     0.046 A 
HETATM    2  C8  UNL     1      26.987   4.347  49.171  1.00  0.00     0.010 A 
HETATM    3  C9  UNL     1      26.188   3.146  49.436  1.00  0.00     0.089 A 
HETATM    4  C10 UNL     1      24.948   3.616  50.098  1.00  0.00     0.052 A 
HETATM    5  C11 UNL     1      25.021   4.969  50.191  1.00  0.00     0.047 A 
HETATM    6  C12 UNL     1      23.843   5.357  50.814  1.00  0.00     0.110 A 
HETATM    7  C13 UNL     1      23.106   4.231  51.074  1.00  0.00     0.150 A 
HETATM    8  N6  UNL     1      23.799   3.161  50.627  1.00  0.00    -0.268 N 
ENDROOT
BRANCH   1   9
HETATM    9  N3  UNL     1      26.617   6.792  49.593  1.00  0.00    -0.326 N 
HETATM   10  C6  UNL     1      25.992   7.505  48.546  1.00  0.00     0.223 C 
HETATM   11  O1  UNL     1      25.209   7.017  47.655  1.00  0.00    -0.273 OA
HETATM   12  H12 UNL     1      27.163   7.513  50.095  1.00  0.00     0.169 HD
BRANCH  10  13
HETATM   13  C5  UNL     1      25.896   8.863  48.000  1.00  0.00     0.133 C 
BRANCH  13  14
HETATM   14  C4  UNL     1      26.807   9.827  48.729  1.00  0.00     0.281 C 
BRANCH  14  15
HETATM   15  N2  UNL     1      28.165   9.522  48.287  1.00  0.00     0.092 N 
HETATM   16  C3  UNL     1      28.594  10.482  47.311  1.00  0.00     0.302 C 
HETATM   17  C2  UNL     1      28.987  11.777  47.970  1.00  0.00     0.302 C 
HETATM   18  N1  UNL     1      30.030  11.566  48.956  1.00  0.00     0.087 N 
HETATM   19  C1  UNL     1      31.210  12.298  48.602  1.00  0.00     0.310 C 
HETATM   20  C21 UNL     1      30.358  10.176  49.105  1.00  0.00     0.302 C 
HETATM   21  C20 UNL     1      29.071   9.399  49.408  1.00  0.00     0.302 C 
ENDBRANCH  14  15
ENDBRANCH  13  14
ENDBRANCH  10  13
ENDBRANCH   1   9
BRANCH   6  22
HETATM   22  N4  UNL     1      23.471   6.684  51.123  1.00  0.00    -0.156 NA
HETATM   23  N5  UNL     1      24.241   7.527  51.655  1.00  0.00    -0.203 NA
HETATM   24  H16 UNL     1      25.213   7.202  51.872  1.00  0.00     0.212 HD
ENDBRANCH   6  22
BRANCH   8  25
HETATM   25  N7  UNL     1      23.275   1.860  50.755  1.00  0.00    -0.294 N 
HETATM   26  H18 UNL     1      22.583   1.467  50.076  1.00  0.00     0.187 HD
BRANCH  25  27
HETATM   27  C14 UNL     1      23.700   1.037  51.860  1.00  0.00     0.050 A 
HETATM   28  C15 UNL     1      25.013   0.857  52.227  1.00  0.00     0.031 A 
HETATM   29  C16 UNL     1      25.402   0.083  53.298  1.00  0.00     0.004 A 
HETATM   30  C17 UNL     1      24.396  -0.545  54.038  1.00  0.00     0.019 A 
HETATM   31  C18 UNL     1      23.071  -0.381  53.695  1.00  0.00     0.013 A 
HETATM   32 BR1  UNL     1      21.609  -1.192  54.644  1.00  0.00    -0.051 Br
HETATM   33  C19 UNL     1      22.708   0.399  52.619  1.00  0.00     0.050 A 
ENDBRANCH  25  27
ENDBRANCH   8  25
TORSDOF 7
ENDMDL
MODEL 4
REMARK VINA RESULT:      -8.0      3.653      8.591
REMARK  7 active torsions:
REMARK  status: ('A' for Active; 'I' for Inactive)
REMARK    1  A    between atoms: N2_5  and  C4_6 
REMARK    2  A    between atoms: C4_6  and  C5_7 
REMARK    3  A    between atoms: C5_7  and  C6_8 
REMARK       I    between atoms: C6_8  and  N3_10 
REMARK    4  A    between atoms: N3_10  and  C7_11 
REMARK    5  A    between atoms: C12_16  and  N4_17 
REMARK    6  A    between atoms: N6_20  and  N7_21 
REMARK    7  A    between atoms: N7_21  and  C14_22 
ROOT
HETATM    1  C7  UNL     1      26.335   5.417  49.594  1.00  0.00     0.046 A 
HETATM    2  C8  UNL     1      27.017   4.361  49.190  1.00  0.00     0.010 A 
HETATM    3  C9  UNL     1      26.187   3.180  49.452  1.00  0.00     0.089 A 
HETATM    4  C10 UNL     1      24.941   3.684  50.076  1.00  0.00     0.052 A 
HETATM    5  C11 UNL     1      25.039   5.037  50.152  1.00  0.00     0.047 A 
HETATM    6  C12 UNL     1      23.855   5.456  50.740  1.00  0.00     0.110 A 
HETATM    7  C13 UNL     1      23.089   4.350  50.997  1.00  0.00     0.150 A 
HETATM    8  N6  UNL     1      23.771   3.260  50.583  1.00  0.00    -0.268 N 
ENDROOT
BRANCH   1   9
HETATM    9  N3  UNL     1      26.686   6.818  49.569  1.00  0.00    -0.326 N 
HETATM   10  C6  UNL     1      27.674   7.137  48.610  1.00  0.00     0.223 C 
HETATM   11  O1  UNL     1      28.250   6.316  47.811  1.00  0.00    -0.273 OA
HETATM   12  H12 UNL     1      26.469   7.726  50.014  1.00  0.00     0.169 HD
BRANCH  10  13
HETATM   13  C5  UNL     1      28.425   8.287  48.097  1.00  0.00     0.133 C 
BRANCH  13  14
HETATM   14  C4  UNL     1      29.260   8.939  49.178  1.00  0.00     0.281 C 
BRANCH  14  15
HETATM   15  N2  UNL     1      30.600   9.103  48.619  1.00  0.00     0.092 N 
HETATM   16  C3  UNL     1      31.570   8.483  49.474  1.00  0.00     0.302 C 
HETATM   17  C2  UNL     1      31.564   6.988  49.296  1.00  0.00     0.302 C 
HETATM   18  N1  UNL     1      31.812   6.626  47.913  1.00  0.00     0.087 N 
HETATM   19  C1  UNL     1      33.009   5.846  47.806  1.00  0.00     0.310 C 
HETATM   20  C21 UNL     1      31.916   7.779  47.065  1.00  0.00     0.302 C 
HETATM   21  C20 UNL     1      30.662   8.640  47.250  1.00  0.00     0.302 C 
ENDBRANCH  14  15
ENDBRANCH  13  14
ENDBRANCH  10  13
ENDBRANCH   1   9
BRANCH   6  22
HETATM   22  N4  UNL     1      23.502   6.795  51.022  1.00  0.00    -0.156 NA
HETATM   23  N5  UNL     1      24.272   7.627  51.572  1.00  0.00    -0.203 NA
HETATM   24  H16 UNL     1      25.227   7.282  51.828  1.00  0.00     0.212 HD
ENDBRANCH   6  22
BRANCH   8  25
HETATM   25  N7  UNL     1      23.217   1.972  50.716  1.00  0.00    -0.294 N 
HETATM   26  H18 UNL     1      22.507   1.596  50.045  1.00  0.00     0.187 HD
BRANCH  25  27
HETATM   27  C14 UNL     1      23.636   1.137  51.815  1.00  0.00     0.050 A 
HETATM   28  C15 UNL     1      24.942   1.004  52.227  1.00  0.00     0.031 A 
HETATM   29  C16 UNL     1      25.324   0.217  53.291  1.00  0.00     0.004 A 
HETATM   30  C17 UNL     1      24.320  -0.474  53.975  1.00  0.00     0.019 A 
HETATM   31  C18 UNL     1      23.003  -0.359  53.585  1.00  0.00     0.013 A 
HETATM   32 BR1  UNL     1      21.544  -1.259  54.455  1.00  0.00    -0.051 Br
HETATM   33  C19 UNL     1      22.647   0.435  52.517  1.00  0.00     0.050 A 
ENDBRANCH  25  27
ENDBRANCH   8  25
TORSDOF 7
ENDMDL
MODEL 5
REMARK VINA RESULT:      -7.9      3.932      9.003
REMARK  7 active torsions:
REMARK  status: ('A' for Active; 'I' for Inactive)
REMARK    1  A    between atoms: N2_5  and  C4_6 
REMARK    2  A    between atoms: C4_6  and  C5_7 
REMARK    3  A    between atoms: C5_7  and  C6_8 
REMARK       I    between atoms: C6_8  and  N3_10 
REMARK    4  A    between atoms: N3_10  and  C7_11 
REMARK    5  A    between atoms: C12_16  and  N4_17 
REMARK    6  A    between atoms: N6_20  and  N7_21 
REMARK    7  A    between atoms: N7_21  and  C14_22 
ROOT
HETATM    1  C7  UNL     1      24.789   6.344  49.403  1.00  0.00     0.046 A 
HETATM    2  C8  UNL     1      23.650   6.476  50.060  1.00  0.00     0.010 A 
HETATM    3  C9  UNL     1      23.513   5.308  50.936  1.00  0.00     0.089 A 
HETATM    4  C10 UNL     1      24.712   4.470  50.692  1.00  0.00     0.052 A 
HETATM    5  C11 UNL     1      25.477   5.108  49.769  1.00  0.00     0.047 A 
HETATM    6  C12 UNL     1      26.579   4.288  49.578  1.00  0.00     0.110 A 
HETATM    7  C13 UNL     1      26.440   3.190  50.386  1.00  0.00     0.150 A 
HETATM    8  N6  UNL     1      25.282   3.314  51.070  1.00  0.00    -0.268 N 
ENDROOT
BRANCH   1   9
HETATM    9  N3  UNL     1      25.402   7.205  48.420  1.00  0.00    -0.326 N 
HETATM   10  C6  UNL     1      26.353   8.099  48.963  1.00  0.00     0.223 C 
HETATM   11  O1  UNL     1      26.685   8.195  50.198  1.00  0.00    -0.273 OA
HETATM   12  H12 UNL     1      25.407   7.422  47.408  1.00  0.00     0.169 HD
BRANCH  10  13
HETATM   13  C5  UNL     1      27.275   9.161  48.550  1.00  0.00     0.133 C 
BRANCH  13  14
HETATM   14  C4  UNL     1      28.375   9.377  49.567  1.00  0.00     0.281 C 
BRANCH  14  15
HETATM   15  N2  UNL     1      29.511   9.927  48.831  1.00  0.00     0.092 N 
HETATM   16  C3  UNL     1      30.737   9.612  49.506  1.00  0.00     0.302 C 
HETATM   17  C2  UNL     1      31.133   8.181  49.256  1.00  0.00     0.302 C 
HETATM   18  N1  UNL     1      31.262   7.916  47.835  1.00  0.00     0.087 N 
HETATM   19  C1  UNL     1      32.602   7.520  47.519  1.00  0.00     0.310 C 
HETATM   20  C21 UNL     1      30.901   9.055  47.039  1.00  0.00     0.302 C 
HETATM   21  C20 UNL     1      29.495   9.512  47.446  1.00  0.00     0.302 C 
ENDBRANCH  14  15
ENDBRANCH  13  14
ENDBRANCH  10  13
ENDBRANCH   1   9
BRANCH   6  22
HETATM   22  N4  UNL     1      27.656   4.543  48.700  1.00  0.00    -0.156 NA
HETATM   23  N5  UNL     1      28.644   5.270  48.988  1.00  0.00    -0.203 NA
HETATM   24  H16 UNL     1      28.644   5.702  49.943  1.00  0.00     0.212 HD
ENDBRANCH   6  22
BRANCH   8  25
HETATM   25  N7  UNL     1      24.882   2.326  51.991  1.00  0.00    -0.294 N 
HETATM   26  H18 UNL     1      25.451   2.086  52.835  1.00  0.00     0.187 HD
BRANCH  25  27
HETATM   27  C14 UNL     1      23.647   1.615  51.767  1.00  0.00     0.050 A 
HETATM   28  C15 UNL     1      22.915   1.691  50.605  1.00  0.00     0.031 A 
HETATM   29  C16 UNL     1      21.747   0.990  50.398  1.00  0.00     0.004 A 
HETATM   30  C17 UNL     1      21.299   0.166  51.434  1.00  0.00     0.019 A 
HETATM   31  C18 UNL     1      22.013   0.069  52.609  1.00  0.00     0.013 A 
HETATM   32 BR1  UNL     1      21.492  -1.036  54.093  1.00  0.00    -0.051 Br
HETATM   33  C19 UNL     1      23.178   0.780  52.791  1.00  0.00     0.050 A 
ENDBRANCH  25  27
ENDBRANCH   8  25
TORSDOF 7
ENDMDL
MODEL 6
REMARK VINA RESULT:      -7.9      6.856     10.489
REMARK  7 active torsions:
REMARK  status: ('A' for Active; 'I' for Inactive)
REMARK    1  A    between atoms: N2_5  and  C4_6 
REMARK    2  A    between atoms: C4_6  and  C5_7 
REMARK    3  A    between atoms: C5_7  and  C6_8 
REMARK       I    between atoms: C6_8  and  N3_10 
REMARK    4  A    between atoms: N3_10  and  C7_11 
REMARK    5  A    between atoms: C12_16  and  N4_17 
REMARK    6  A    between atoms: N6_20  and  N7_21 
REMARK    7  A    between atoms: N7_21  and  C14_22 
ROOT
HETATM    1  C7  UNL     1      21.879   0.708  51.381  1.00  0.00     0.046 A 
HETATM    2  C8  UNL     1      21.506   1.101  50.176  1.00  0.00     0.010 A 
HETATM    3  C9  UNL     1      20.066   0.849  50.061  1.00  0.00     0.089 A 
HETATM    4  C10 UNL     1      19.651   0.244  51.349  1.00  0.00     0.052 A 
HETATM    5  C11 UNL     1      20.753   0.169  52.140  1.00  0.00     0.047 A 
HETATM    6  C12 UNL     1      20.313  -0.400  53.326  1.00  0.00     0.110 A 
HETATM    7  C13 UNL     1      18.971  -0.649  53.210  1.00  0.00     0.150 A 
HETATM    8  N6  UNL     1      18.573  -0.246  51.983  1.00  0.00    -0.268 N 
ENDROOT
BRANCH   1   9
HETATM    9  N3  UNL     1      23.180   0.731  52.007  1.00  0.00    -0.326 N 
HETATM   10  C6  UNL     1      23.533   1.994  52.533  1.00  0.00     0.223 C 
HETATM   11  O1  UNL     1      22.822   3.061  52.491  1.00  0.00    -0.273 OA
HETATM   12  H12 UNL     1      23.995   0.133  52.228  1.00  0.00     0.169 HD
BRANCH  10  13
HETATM   13  C5  UNL     1      24.629   2.658  53.247  1.00  0.00     0.133 C 
BRANCH  13  14
HETATM   14  C4  UNL     1      25.980   2.275  52.682  1.00  0.00     0.281 C 
BRANCH  14  15
HETATM   15  N2  UNL     1      26.826   1.949  53.828  1.00  0.00     0.092 N 
HETATM   16  C3  UNL     1      26.607   0.591  54.233  1.00  0.00     0.302 C 
HETATM   17  C2  UNL     1      27.312  -0.364  53.308  1.00  0.00     0.302 C 
HETATM   18  N1  UNL     1      28.734  -0.082  53.251  1.00  0.00     0.087 N 
HETATM   19  C1  UNL     1      29.488  -1.209  53.716  1.00  0.00     0.310 C 
HETATM   20  C21 UNL     1      29.085   1.077  54.022  1.00  0.00     0.302 C 
HETATM   21  C20 UNL     1      28.215   2.253  53.563  1.00  0.00     0.302 C 
ENDBRANCH  14  15
ENDBRANCH  13  14
ENDBRANCH  10  13
ENDBRANCH   1   9
BRANCH   6  22
HETATM   22  N4  UNL     1      21.115  -0.675  54.457  1.00  0.00    -0.156 NA
HETATM   23  N5  UNL     1      22.311  -1.064  54.397  1.00  0.00    -0.203 NA
HETATM   24  H16 UNL     1      22.716  -1.186  53.438  1.00  0.00     0.212 HD
ENDBRANCH   6  22
BRANCH   8  25
HETATM   25  N7  UNL     1      17.227  -0.373  51.586  1.00  0.00    -0.294 N 
HETATM   26  H18 UNL     1      16.890  -1.173  51.002  1.00  0.00     0.187 HD
BRANCH  25  27
HETATM   27  C14 UNL     1      16.277   0.633  51.992  1.00  0.00     0.050 A 
HETATM   28  C15 UNL     1      16.385   1.967  51.676  1.00  0.00     0.031 A 
HETATM   29  C16 UNL     1      15.458   2.913  52.054  1.00  0.00     0.004 A 
HETATM   30  C17 UNL     1      14.358   2.476  52.798  1.00  0.00     0.019 A 
HETATM   31  C18 UNL     1      14.223   1.145  53.128  1.00  0.00     0.013 A 
HETATM   32 BR1  UNL     1      12.751   0.435  54.140  1.00  0.00    -0.051 Br
HETATM   33  C19 UNL     1      15.164   0.218  52.737  1.00  0.00     0.050 A 
ENDBRANCH  25  27
ENDBRANCH   8  25
TORSDOF 7
ENDMDL
MODEL 7
REMARK VINA RESULT:      -7.8      3.301      9.127
REMARK  7 active torsions:
REMARK  status: ('A' for Active; 'I' for Inactive)
REMARK    1  A    between atoms: N2_5  and  C4_6 
REMARK    2  A    between atoms: C4_6  and  C5_7 
REMARK    3  A    between atoms: C5_7  and  C6_8 
REMARK       I    between atoms: C6_8  and  N3_10 
REMARK    4  A    between atoms: N3_10  and  C7_11 
REMARK    5  A    between atoms: C12_16  and  N4_17 
REMARK    6  A    between atoms: N6_20  and  N7_21 
REMARK    7  A    between atoms: N7_21  and  C14_22 
ROOT
HETATM    1  C7  UNL     1      26.359   5.465  49.582  1.00  0.00     0.046 A 
HETATM    2  C8  UNL     1      27.069   4.446  49.130  1.00  0.00     0.010 A 
HETATM    3  C9  UNL     1      26.301   3.226  49.398  1.00  0.00     0.089 A 
HETATM    4  C10 UNL     1      25.060   3.664  50.080  1.00  0.00     0.052 A 
HETATM    5  C11 UNL     1      25.104   5.018  50.180  1.00  0.00     0.047 A 
HETATM    6  C12 UNL     1      23.927   5.375  50.822  1.00  0.00     0.110 A 
HETATM    7  C13 UNL     1      23.219   4.232  51.086  1.00  0.00     0.150 A 
HETATM    8  N6  UNL     1      23.930   3.181  50.622  1.00  0.00    -0.268 N 
ENDROOT
BRANCH   1   9
HETATM    9  N3  UNL     1      26.649   6.879  49.572  1.00  0.00    -0.326 N 
HETATM   10  C6  UNL     1      26.055   7.572  48.493  1.00  0.00     0.223 C 
HETATM   11  O1  UNL     1      25.322   7.061  47.573  1.00  0.00    -0.273 OA
HETATM   12  H12 UNL     1      27.157   7.617  50.091  1.00  0.00     0.169 HD
BRANCH  10  13
HETATM   13  C5  UNL     1      25.951   8.923  47.934  1.00  0.00     0.133 C 
BRANCH  13  14
HETATM   14  C4  UNL     1      27.133   9.258  47.049  1.00  0.00     0.281 C 
BRANCH  14  15
HETATM   15  N2  UNL     1      27.371  10.690  47.206  1.00  0.00     0.092 N 
HETATM   16  C3  UNL     1      27.638  10.998  48.582  1.00  0.00     0.302 C 
HETATM   17  C2  UNL     1      29.046  10.617  48.953  1.00  0.00     0.302 C 
HETATM   18  N1  UNL     1      30.010  11.280  48.096  1.00  0.00     0.087 N 
HETATM   19  C1  UNL     1      30.871  12.124  48.870  1.00  0.00     0.310 C 
HETATM   20  C21 UNL     1      29.374  12.059  47.071  1.00  0.00     0.302 C 
HETATM   21  C20 UNL     1      28.400  11.158  46.304  1.00  0.00     0.302 C 
ENDBRANCH  14  15
ENDBRANCH  13  14
ENDBRANCH  10  13
ENDBRANCH   1   9
BRANCH   6  22
HETATM   22  N4  UNL     1      23.529   6.692  51.145  1.00  0.00    -0.156 NA
HETATM   23  N5  UNL     1      24.296   7.559  51.642  1.00  0.00    -0.203 NA
HETATM   24  H16 UNL     1      25.285   7.263  51.818  1.00  0.00     0.212 HD
ENDBRANCH   6  22
BRANCH   8  25
HETATM   25  N7  UNL     1      23.436   1.867  50.750  1.00  0.00    -0.294 N 
HETATM   26  H18 UNL     1      22.790   1.442  50.046  1.00  0.00     0.187 HD
BRANCH  25  27
HETATM   27  C14 UNL     1      23.829   1.077  51.891  1.00  0.00     0.050 A 
HETATM   28  C15 UNL     1      22.943   0.508  52.776  1.00  0.00     0.031 A 
HETATM   29  C16 UNL     1      23.333  -0.261  53.850  1.00  0.00     0.004 A 
HETATM   30  C17 UNL     1      24.704  -0.461  54.035  1.00  0.00     0.019 A 
HETATM   31  C18 UNL     1      25.615   0.096  53.164  1.00  0.00     0.013 A 
HETATM   32 BR1  UNL     1      27.519  -0.119  53.321  1.00  0.00    -0.051 Br
HETATM   33  C19 UNL     1      25.199   0.861  52.097  1.00  0.00     0.050 A 
ENDBRANCH  25  27
ENDBRANCH   8  25
TORSDOF 7
ENDMDL
MODEL 8
REMARK VINA RESULT:      -7.7      7.833     10.982
REMARK  7 active torsions:
REMARK  status: ('A' for Active; 'I' for Inactive)
REMARK    1  A    between atoms: N2_5  and  C4_6 
REMARK    2  A    between atoms: C4_6  and  C5_7 
REMARK    3  A    between atoms: C5_7  and  C6_8 
REMARK       I    between atoms: C6_8  and  N3_10 
REMARK    4  A    between atoms: N3_10  and  C7_11 
REMARK    5  A    between atoms: C12_16  and  N4_17 
REMARK    6  A    between atoms: N6_20  and  N7_21 
REMARK    7  A    between atoms: N7_21  and  C14_22 
ROOT
HETATM    1  C7  UNL     1      19.377   0.983  50.569  1.00  0.00     0.046 A 
HETATM    2  C8  UNL     1      20.371   1.276  49.749  1.00  0.00     0.010 A 
HETATM    3  C9  UNL     1      21.606   0.780  50.365  1.00  0.00     0.089 A 
HETATM    4  C10 UNL     1      21.205   0.174  51.657  1.00  0.00     0.052 A 
HETATM    5  C11 UNL     1      19.857   0.297  51.767  1.00  0.00     0.047 A 
HETATM    6  C12 UNL     1      19.535  -0.281  52.986  1.00  0.00     0.110 A 
HETATM    7  C13 UNL     1      20.693  -0.730  53.566  1.00  0.00     0.150 A 
HETATM    8  N6  UNL     1      21.718  -0.443  52.735  1.00  0.00    -0.268 N 
ENDROOT
BRANCH   1   9
HETATM    9  N3  UNL     1      17.963   1.245  50.449  1.00  0.00    -0.326 N 
HETATM   10  C6  UNL     1      17.537   2.392  51.155  1.00  0.00     0.223 C 
HETATM   11  O1  UNL     1      18.276   3.169  51.859  1.00  0.00    -0.273 OA
HETATM   12  H12 UNL     1      17.096   0.886  50.011  1.00  0.00     0.169 HD
BRANCH  10  13
HETATM   13  C5  UNL     1      16.323   3.168  51.430  1.00  0.00     0.133 C 
BRANCH  13  14
HETATM   14  C4  UNL     1      15.083   2.300  51.397  1.00  0.00     0.281 C 
BRANCH  14  15
HETATM   15  N2  UNL     1      14.678   2.111  52.788  1.00  0.00     0.092 N 
HETATM   16  C3  UNL     1      13.651   3.050  53.136  1.00  0.00     0.302 C 
HETATM   17  C2  UNL     1      12.320   2.619  52.579  1.00  0.00     0.302 C 
HETATM   18  N1  UNL     1      11.964   1.292  53.047  1.00  0.00     0.087 N 
HETATM   19  C1  UNL     1      10.748   1.337  53.804  1.00  0.00     0.310 C 
HETATM   20  C21 UNL     1      13.002   0.705  53.847  1.00  0.00     0.302 C 
HETATM   21  C20 UNL     1      14.311   0.736  53.050  1.00  0.00     0.302 C 
ENDBRANCH  14  15
ENDBRANCH  13  14
ENDBRANCH  10  13
ENDBRANCH   1   9
BRANCH   6  22
HETATM   22  N4  UNL     1      18.236  -0.388  53.532  1.00  0.00    -0.156 NA
HETATM   23  N5  UNL     1      17.745  -1.458  53.981  1.00  0.00    -0.203 NA
HETATM   24  H16 UNL     1      18.356  -2.308  53.937  1.00  0.00     0.212 HD
ENDBRANCH   6  22
BRANCH   8  25
HETATM   25  N7  UNL     1      23.039  -0.800  53.073  1.00  0.00    -0.294 N 
HETATM   26  H18 UNL     1      23.337  -1.796  53.185  1.00  0.00     0.187 HD
BRANCH  25  27
HETATM   27  C14 UNL     1      24.017   0.240  53.277  1.00  0.00     0.050 A 
HETATM   28  C15 UNL     1      23.775   1.578  53.071  1.00  0.00     0.031 A 
HETATM   29  C16 UNL     1      24.714   2.561  53.289  1.00  0.00     0.004 A 
HETATM   30  C17 UNL     1      25.973   2.160  53.743  1.00  0.00     0.019 A 
HETATM   31  C18 UNL     1      26.245   0.826  53.960  1.00  0.00     0.013 A 
HETATM   32 BR1  UNL     1      27.937   0.164  54.587  1.00  0.00    -0.051 Br
HETATM   33  C19 UNL     1      25.288  -0.138  53.734  1.00  0.00     0.050 A 
ENDBRANCH  25  27
ENDBRANCH   8  25
TORSDOF 7
ENDMDL
MODEL 9
REMARK VINA RESULT:      -7.6      4.527      8.697
REMARK  7 active torsions:
REMARK  status: ('A' for Active; 'I' for Inactive)
REMARK    1  A    between atoms: N2_5  and  C4_6 
REMARK    2  A    between atoms: C4_6  and  C5_7 
REMARK    3  A    between atoms: C5_7  and  C6_8 
REMARK       I    between atoms: C6_8  and  N3_10 
REMARK    4  A    between atoms: N3_10  and  C7_11 
REMARK    5  A    between atoms: C12_16  and  N4_17 
REMARK    6  A    between atoms: N6_20  and  N7_21 
REMARK    7  A    between atoms: N7_21  and  C14_22 
ROOT
HETATM    1  C7  UNL     1      26.597   7.628  47.715  1.00  0.00     0.046 A 
HETATM    2  C8  UNL     1      25.475   8.325  47.722  1.00  0.00     0.010 A 
HETATM    3  C9  UNL     1      24.485   7.551  48.479  1.00  0.00     0.089 A 
HETATM    4  C10 UNL     1      25.171   6.305  48.897  1.00  0.00     0.052 A 
HETATM    5  C11 UNL     1      26.447   6.365  48.435  1.00  0.00     0.047 A 
HETATM    6  C12 UNL     1      27.042   5.183  48.850  1.00  0.00     0.110 A 
HETATM    7  C13 UNL     1      26.110   4.455  49.543  1.00  0.00     0.150 A 
HETATM    8  N6  UNL     1      24.958   5.159  49.565  1.00  0.00    -0.268 N 
ENDROOT
BRANCH   1   9
HETATM    9  N3  UNL     1      27.876   7.928  47.115  1.00  0.00    -0.326 N 
HETATM   10  C6  UNL     1      28.744   8.650  47.964  1.00  0.00     0.223 C 
HETATM   11  O1  UNL     1      28.489   9.039  49.159  1.00  0.00    -0.273 OA
HETATM   12  H12 UNL     1      28.425   7.801  46.247  1.00  0.00     0.169 HD
BRANCH  10  13
HETATM   13  C5  UNL     1      30.091   9.229  47.979  1.00  0.00     0.133 C 
BRANCH  13  14
HETATM   14  C4  UNL     1      31.123   8.264  47.436  1.00  0.00     0.281 C 
BRANCH  14  15
HETATM   15  N2  UNL     1      32.354   8.518  48.180  1.00  0.00     0.092 N 
HETATM   16  C3  UNL     1      32.423   7.660  49.328  1.00  0.00     0.302 C 
HETATM   17  C2  UNL     1      32.826   6.265  48.931  1.00  0.00     0.302 C 
HETATM   18  N1  UNL     1      34.098   6.269  48.232  1.00  0.00     0.087 N 
HETATM   19  C1  UNL     1      35.068   5.499  48.954  1.00  0.00     0.310 C 
HETATM   20  C21 UNL     1      34.599   7.598  48.030  1.00  0.00     0.302 C 
HETATM   21  C20 UNL     1      33.518   8.427  47.326  1.00  0.00     0.302 C 
ENDBRANCH  14  15
ENDBRANCH  13  14
ENDBRANCH  10  13
ENDBRANCH   1   9
BRANCH   6  22
HETATM   22  N4  UNL     1      28.379   4.800  48.601  1.00  0.00    -0.156 NA
HETATM   23  N5  UNL     1      29.384   5.472  48.955  1.00  0.00    -0.203 NA
HETATM   24  H16 UNL     1      29.192   6.368  49.463  1.00  0.00     0.212 HD
ENDBRANCH   6  22
BRANCH   8  25
HETATM   25  N7  UNL     1      23.819   4.653  50.222  1.00  0.00    -0.294 N 
HETATM   26  H18 UNL     1      23.468   5.055  51.121  1.00  0.00     0.187 HD
BRANCH  25  27
HETATM   27  C14 UNL     1      23.110   3.539  49.642  1.00  0.00     0.050 A 
HETATM   28  C15 UNL     1      22.923   3.364  48.290  1.00  0.00     0.031 A 
HETATM   29  C16 UNL     1      22.261   2.284  47.750  1.00  0.00     0.004 A 
HETATM   30  C17 UNL     1      21.758   1.327  48.637  1.00  0.00     0.019 A 
HETATM   31  C18 UNL     1      21.931   1.476  49.996  1.00  0.00     0.013 A 
HETATM   32 BR1  UNL     1      21.288   0.221  51.303  1.00  0.00    -0.051 Br
HETATM   33  C19 UNL     1      22.598   2.565  50.511  1.00  0.00     0.050 A 
ENDBRANCH  25  27
ENDBRANCH   8  25
TORSDOF 7
ENDMDL
