MODEL 1
REMARK VINA RESULT:      -8.9      0.000      0.000
REMARK  3 active torsions:
REMARK  status: ('A' for Active; 'I' for Inactive)
REMARK    1  A    between atoms: C2_2  and  C3_3 
REMARK    2  A    between atoms: C10_13  and  C11_14 
REMARK    3  A    between atoms: C11_14  and  C12_15 
ROOT
HETATM    1  C3  UNL     1      29.156  -0.227  53.546  1.00  0.00    -0.004 A 
HETATM    2  C4  UNL     1      27.939  -0.298  53.868  1.00  0.00    -0.005 A 
HETATM    3  C5  UNL     1      28.698   1.013  54.657  1.00  0.00     0.036 A 
HETATM    4  C6  UNL     1      28.754   1.212  53.225  1.00  0.00     0.049 A 
HETATM    5  C7  UNL     1      27.265   1.276  52.893  1.00  0.00     0.028 C 
HETATM    6  N1  UNL     1      26.364   1.683  52.076  1.00  0.00    -0.250 NA
HETATM    7  C8  UNL     1      26.646   2.409  50.905  1.00  0.00     0.228 C 
HETATM    8  N2  UNL     1      26.470   3.595  50.487  1.00  0.00    -0.263 NA
HETATM    9  C9  UNL     1      26.901   4.032  49.167  1.00  0.00     0.272 C 
HETATM   10  N3  UNL     1      26.512   5.379  48.876  1.00  0.00    -0.372 N 
HETATM   11  C10 UNL     1      25.394   6.249  48.606  1.00  0.00     0.028 C 
HETATM   12  C13 UNL     1      24.090   6.081  48.688  1.00  0.00     0.028 C 
HETATM   13  C14 UNL     1      23.509   4.797  49.114  1.00  0.00     0.197 C 
HETATM   14  O1  UNL     1      22.740   4.818  50.242  1.00  0.00    -0.387 OA
HETATM   15  C15 UNL     1      22.196   3.584  50.611  1.00  0.00     0.171 C 
HETATM   16  C16 UNL     1      23.247   2.568  50.861  1.00  0.00     0.056 C 
HETATM   17  C17 UNL     1      22.725   1.253  51.233  1.00  0.00     0.013 C 
HETATM   18  C18 UNL     1      22.960   0.501  52.296  1.00  0.00     0.094 C 
HETATM   19  F1  UNL     1      22.403  -0.728  52.526  1.00  0.00    -0.211 F 
HETATM   20  C19 UNL     1      23.818   0.799  53.508  1.00  0.00     0.102 C 
HETATM   21  P1  UNL     1      25.187  -0.439  53.640  1.00  0.00    -0.112 P 
HETATM   22  C20 UNL     1      26.722   0.422  54.191  1.00  0.00     0.070 C 
HETATM   23  H10 UNL     1      27.408   5.965  48.872  1.00  0.00     0.161 HD
HETATM   24  H23 UNL     1      25.377  -1.202  52.425  1.00  0.00     0.058 HD
ENDROOT
BRANCH  11  25
HETATM   25  C11 UNL     1      25.795   7.514  47.950  1.00  0.00     0.041 C 
BRANCH  25  26
HETATM   26  C12 UNL     1      26.277   8.445  47.207  1.00  0.00     0.086 C 
HETATM   27 CL1  UNL     1      27.227   9.827  46.735  1.00  0.00    -0.097 Cl
ENDBRANCH  25  26
ENDBRANCH  11  25
BRANCH   1  28
HETATM   28  C2  UNL     1      29.797  -1.495  53.757  1.00  0.00    -0.026 C 
HETATM   29  C1  UNL     1      28.999  -2.334  53.129  1.00  0.00     0.008 C 
ENDBRANCH   1  28
TORSDOF 3
ENDMDL
MODEL 2
REMARK VINA RESULT:      -8.9      5.169      7.544
REMARK  3 active torsions:
REMARK  status: ('A' for Active; 'I' for Inactive)
REMARK    1  A    between atoms: C2_2  and  C3_3 
REMARK    2  A    between atoms: C10_13  and  C11_14 
REMARK    3  A    between atoms: C11_14  and  C12_15 
ROOT
HETATM    1  C3  UNL     1      27.747  -0.492  53.872  1.00  0.00    -0.004 A 
HETATM    2  C4  UNL     1      27.446   0.346  52.978  1.00  0.00    -0.005 A 
HETATM    3  C5  UNL     1      27.447  -1.241  52.345  1.00  0.00     0.036 A 
HETATM    4  C6  UNL     1      26.449  -1.136  53.387  1.00  0.00     0.049 A 
HETATM    5  C7  UNL     1      25.530  -0.073  52.789  1.00  0.00     0.028 C 
HETATM    6  N1  UNL     1      24.354   0.438  52.764  1.00  0.00    -0.250 NA
HETATM    7  C8  UNL     1      23.285  -0.028  53.550  1.00  0.00     0.228 C 
HETATM    8  N2  UNL     1      22.189  -0.638  53.353  1.00  0.00    -0.263 NA
HETATM    9  C9  UNL     1      21.278  -0.980  54.435  1.00  0.00     0.272 C 
HETATM   10  N3  UNL     1      20.063  -1.576  53.968  1.00  0.00    -0.372 N 
HETATM   11  C10 UNL     1      18.837  -1.339  53.247  1.00  0.00     0.028 C 
HETATM   12  C13 UNL     1      18.408  -0.327  52.521  1.00  0.00     0.028 C 
HETATM   13  C14 UNL     1      19.233   0.878  52.326  1.00  0.00     0.197 C 
HETATM   14  O1  UNL     1      19.579   1.180  51.040  1.00  0.00    -0.387 OA
HETATM   15  C15 UNL     1      20.351   2.336  50.891  1.00  0.00     0.171 C 
HETATM   16  C16 UNL     1      21.627   2.250  51.641  1.00  0.00     0.056 C 
HETATM   17  C17 UNL     1      22.463   3.446  51.531  1.00  0.00     0.013 C 
HETATM   18  C18 UNL     1      23.714   3.589  51.122  1.00  0.00     0.094 C 
HETATM   19  F1  UNL     1      24.389   4.778  51.069  1.00  0.00    -0.211 F 
HETATM   20  C19 UNL     1      24.669   2.547  50.579  1.00  0.00     0.102 C 
HETATM   21  P1  UNL     1      26.156   2.413  51.673  1.00  0.00    -0.112 P 
HETATM   22  C20 UNL     1      26.643   0.639  51.807  1.00  0.00     0.070 C 
HETATM   23  H10 UNL     1      20.091  -2.605  54.263  1.00  0.00     0.161 HD
HETATM   24  H23 UNL     1      25.966   3.042  52.962  1.00  0.00     0.058 HD
ENDROOT
BRANCH  11  25
HETATM   25  C11 UNL     1      17.801  -2.360  53.523  1.00  0.00     0.041 C 
BRANCH  25  26
HETATM   26  C12 UNL     1      17.095  -3.423  53.679  1.00  0.00     0.086 C 
HETATM   27 CL1  UNL     1      16.675  -5.113  53.693  1.00  0.00    -0.097 Cl
ENDBRANCH  25  26
ENDBRANCH  11  25
BRANCH   1  28
HETATM   28  C2  UNL     1      28.975  -0.111  54.512  1.00  0.00    -0.026 C 
HETATM   29  C1  UNL     1      28.909   1.205  54.512  1.00  0.00     0.008 C 
ENDBRANCH   1  28
TORSDOF 3
ENDMDL
MODEL 3
REMARK VINA RESULT:      -7.7      1.978      2.745
REMARK  3 active torsions:
REMARK  status: ('A' for Active; 'I' for Inactive)
REMARK    1  A    between atoms: C2_2  and  C3_3 
REMARK    2  A    between atoms: C10_13  and  C11_14 
REMARK    3  A    between atoms: C11_14  and  C12_15 
ROOT
HETATM    1  C3  UNL     1      26.742  -0.418  52.509  1.00  0.00    -0.004 A 
HETATM    2  C4  UNL     1      25.578   0.062  52.589  1.00  0.00    -0.005 A 
HETATM    3  C5  UNL     1      26.617   0.792  53.733  1.00  0.00     0.036 A 
HETATM    4  C6  UNL     1      27.102   1.062  52.397  1.00  0.00     0.049 A 
HETATM    5  C7  UNL     1      25.923   1.845  51.824  1.00  0.00     0.028 C 
HETATM    6  N1  UNL     1      25.521   2.694  50.950  1.00  0.00    -0.250 NA
HETATM    7  C8  UNL     1      26.369   3.300  50.005  1.00  0.00     0.228 C 
HETATM    8  N2  UNL     1      26.838   4.460  49.793  1.00  0.00    -0.263 NA
HETATM    9  C9  UNL     1      27.725   4.755  48.677  1.00  0.00     0.272 C 
HETATM   10  N3  UNL     1      28.048   6.146  48.579  1.00  0.00    -0.372 N 
HETATM   11  C10 UNL     1      27.528   7.458  48.284  1.00  0.00     0.028 C 
HETATM   12  C13 UNL     1      26.307   7.914  48.099  1.00  0.00     0.028 C 
HETATM   13  C14 UNL     1      25.137   7.021  48.167  1.00  0.00     0.197 C 
HETATM   14  O1  UNL     1      24.205   7.305  49.124  1.00  0.00    -0.387 OA
HETATM   15  C15 UNL     1      23.104   6.443  49.151  1.00  0.00     0.171 C 
HETATM   16  C16 UNL     1      23.508   5.036  49.388  1.00  0.00     0.056 C 
HETATM   17  C17 UNL     1      22.390   4.093  49.408  1.00  0.00     0.013 C 
HETATM   18  C18 UNL     1      22.005   3.232  50.336  1.00  0.00     0.094 C 
HETATM   19  F1  UNL     1      20.929   2.393  50.228  1.00  0.00    -0.211 F 
HETATM   20  C19 UNL     1      22.580   2.989  51.715  1.00  0.00     0.102 C 
HETATM   21  P1  UNL     1      23.192   1.247  51.853  1.00  0.00    -0.112 P 
HETATM   22  C20 UNL     1      24.762   1.238  52.820  1.00  0.00     0.070 C 
HETATM   23  H10 UNL     1      29.081   6.241  48.846  1.00  0.00     0.161 HD
HETATM   24  H23 UNL     1      23.319   0.590  50.570  1.00  0.00     0.058 HD
ENDROOT
BRANCH  11  25
HETATM   25  C11 UNL     1      28.589   8.437  47.959  1.00  0.00     0.041 C 
BRANCH  25  26
HETATM   26  C12 UNL     1      29.460   9.383  47.929  1.00  0.00     0.086 C 
HETATM   27 CL1  UNL     1      30.975  10.195  47.653  1.00  0.00    -0.097 Cl
ENDBRANCH  25  26
ENDBRANCH  11  25
BRANCH   1  28
HETATM   28  C2  UNL     1      26.690  -1.851  52.588  1.00  0.00    -0.026 C 
HETATM   29  C1  UNL     1      27.948  -2.180  52.798  1.00  0.00     0.008 C 
ENDBRANCH   1  28
TORSDOF 3
ENDMDL
MODEL 4
REMARK VINA RESULT:      -7.4      3.970      8.135
REMARK  3 active torsions:
REMARK  status: ('A' for Active; 'I' for Inactive)
REMARK    1  A    between atoms: C2_2  and  C3_3 
REMARK    2  A    between atoms: C10_13  and  C11_14 
REMARK    3  A    between atoms: C11_14  and  C12_15 
ROOT
HETATM    1  C3  UNL     1      22.738   6.807  48.216  1.00  0.00    -0.004 A 
HETATM    2  C4  UNL     1      21.711   6.114  48.455  1.00  0.00    -0.005 A 
HETATM    3  C5  UNL     1      22.618   5.435  47.176  1.00  0.00     0.036 A 
HETATM    4  C6  UNL     1      23.417   5.449  48.381  1.00  0.00     0.049 A 
HETATM    5  C7  UNL     1      22.576   4.551  49.286  1.00  0.00     0.028 C 
HETATM    6  N1  UNL     1      22.555   3.773  50.306  1.00  0.00    -0.250 NA
HETATM    7  C8  UNL     1      23.689   3.473  51.081  1.00  0.00     0.228 C 
HETATM    8  N2  UNL     1      24.427   2.461  51.288  1.00  0.00    -0.263 NA
HETATM    9  C9  UNL     1      25.569   2.495  52.190  1.00  0.00     0.272 C 
HETATM   10  N3  UNL     1      26.192   1.215  52.341  1.00  0.00    -0.372 N 
HETATM   11  C10 UNL     1      26.035  -0.116  52.874  1.00  0.00     0.028 C 
HETATM   12  C13 UNL     1      25.003  -0.759  53.381  1.00  0.00     0.028 C 
HETATM   13  C14 UNL     1      23.684  -0.115  53.502  1.00  0.00     0.197 C 
HETATM   14  O1  UNL     1      22.654  -0.698  52.820  1.00  0.00    -0.387 OA
HETATM   15  C15 UNL     1      21.415  -0.067  52.968  1.00  0.00     0.171 C 
HETATM   16  C16 UNL     1      21.454   1.343  52.510  1.00  0.00     0.056 C 
HETATM   17  C17 UNL     1      20.182   2.051  52.661  1.00  0.00     0.013 C 
HETATM   18  C18 UNL     1      19.439   2.688  51.770  1.00  0.00     0.094 C 
HETATM   19  F1  UNL     1      18.257   3.320  52.046  1.00  0.00    -0.211 F 
HETATM   20  C19 UNL     1      19.649   2.837  50.279  1.00  0.00     0.102 C 
HETATM   21  P1  UNL     1      19.836   4.624  49.836  1.00  0.00    -0.112 P 
HETATM   22  C20 UNL     1      21.132   4.787  48.534  1.00  0.00     0.070 C 
HETATM   23  H10 UNL     1      27.143   1.275  51.852  1.00  0.00     0.161 HD
HETATM   24  H23 UNL     1      20.087   5.467  50.985  1.00  0.00     0.058 HD
ENDROOT
BRANCH  11  25
HETATM   25  C11 UNL     1      27.323  -0.827  53.035  1.00  0.00     0.041 C 
BRANCH  25  26
HETATM   26  C12 UNL     1      28.522  -1.210  53.293  1.00  0.00     0.086 C 
HETATM   27 CL1  UNL     1      30.202  -1.117  53.745  1.00  0.00    -0.097 Cl
ENDBRANCH  25  26
ENDBRANCH  11  25
BRANCH   1  28
HETATM   28  C2  UNL     1      22.368   8.181  48.014  1.00  0.00    -0.026 C 
HETATM   29  C1  UNL     1      22.831   8.771  49.097  1.00  0.00     0.008 C 
ENDBRANCH   1  28
TORSDOF 3
ENDMDL
MODEL 5
REMARK VINA RESULT:      -7.4      3.606      7.108
REMARK  3 active torsions:
REMARK  status: ('A' for Active; 'I' for Inactive)
REMARK    1  A    between atoms: C2_2  and  C3_3 
REMARK    2  A    between atoms: C10_13  and  C11_14 
REMARK    3  A    between atoms: C11_14  and  C12_15 
ROOT
HETATM    1  C3  UNL     1      17.392   2.385  51.038  1.00  0.00    -0.004 A 
HETATM    2  C4  UNL     1      17.914   1.363  51.561  1.00  0.00    -0.005 A 
HETATM    3  C5  UNL     1      17.920   1.243  49.857  1.00  0.00     0.036 A 
HETATM    4  C6  UNL     1      18.709   2.384  50.264  1.00  0.00     0.049 A 
HETATM    5  C7  UNL     1      19.797   1.694  51.085  1.00  0.00     0.028 C 
HETATM    6  N1  UNL     1      20.990   1.755  51.552  1.00  0.00    -0.250 NA
HETATM    7  C8  UNL     1      21.857   2.841  51.337  1.00  0.00     0.228 C 
HETATM    8  N2  UNL     1      22.924   3.058  50.684  1.00  0.00    -0.263 NA
HETATM    9  C9  UNL     1      23.590   4.353  50.679  1.00  0.00     0.272 C 
HETATM   10  N3  UNL     1      24.825   4.337  49.956  1.00  0.00    -0.372 N 
HETATM   11  C10 UNL     1      26.178   3.839  49.950  1.00  0.00     0.028 C 
HETATM   12  C13 UNL     1      26.806   2.946  50.687  1.00  0.00     0.028 C 
HETATM   13  C14 UNL     1      26.121   2.242  51.784  1.00  0.00     0.197 C 
HETATM   14  O1  UNL     1      26.044   0.882  51.684  1.00  0.00    -0.387 OA
HETATM   15  C15 UNL     1      25.397   0.245  52.748  1.00  0.00     0.171 C 
HETATM   16  C16 UNL     1      24.000   0.716  52.907  1.00  0.00     0.056 C 
HETATM   17  C17 UNL     1      23.286   0.090  54.021  1.00  0.00     0.013 C 
HETATM   18  C18 UNL     1      22.148  -0.584  54.045  1.00  0.00     0.094 C 
HETATM   19  F1  UNL     1      21.580  -1.122  55.169  1.00  0.00    -0.211 F 
HETATM   20  C19 UNL     1      21.241  -0.974  52.897  1.00  0.00     0.102 C 
HETATM   21  P1  UNL     1      19.569  -0.211  53.118  1.00  0.00    -0.112 P 
HETATM   22  C20 UNL     1      18.942   0.344  51.475  1.00  0.00     0.070 C 
HETATM   23  H10 UNL     1      24.670   4.912  49.066  1.00  0.00     0.161 HD
HETATM   24  H23 UNL     1      19.557   0.844  54.109  1.00  0.00     0.058 HD
ENDROOT
BRANCH  11  25
HETATM   25  C11 UNL     1      27.070   4.607  49.051  1.00  0.00     0.041 C 
BRANCH  25  26
HETATM   26  C12 UNL     1      28.044   5.157  48.418  1.00  0.00     0.086 C 
HETATM   27 CL1  UNL     1      29.663   5.693  48.066  1.00  0.00    -0.097 Cl
ENDBRANCH  25  26
ENDBRANCH  11  25
BRANCH   1  28
HETATM   28  C2  UNL     1      16.096   2.624  51.609  1.00  0.00    -0.026 C 
HETATM   29  C1  UNL     1      16.154   3.895  51.947  1.00  0.00     0.008 C 
ENDBRANCH   1  28
TORSDOF 3
ENDMDL
MODEL 6
REMARK VINA RESULT:      -7.4      3.122      3.709
REMARK  3 active torsions:
REMARK  status: ('A' for Active; 'I' for Inactive)
REMARK    1  A    between atoms: C2_2  and  C3_3 
REMARK    2  A    between atoms: C10_13  and  C11_14 
REMARK    3  A    between atoms: C11_14  and  C12_15 
ROOT
HETATM    1  C3  UNL     1      26.711  -0.194  52.585  1.00  0.00    -0.004 A 
HETATM    2  C4  UNL     1      25.669  -0.345  53.279  1.00  0.00    -0.005 A 
HETATM    3  C5  UNL     1      26.426   1.143  53.639  1.00  0.00     0.036 A 
HETATM    4  C6  UNL     1      26.024   1.128  52.250  1.00  0.00     0.049 A 
HETATM    5  C7  UNL     1      24.511   0.983  52.397  1.00  0.00     0.028 C 
HETATM    6  N1  UNL     1      23.358   1.164  51.865  1.00  0.00    -0.250 NA
HETATM    7  C8  UNL     1      23.168   1.730  50.592  1.00  0.00     0.228 C 
HETATM    8  N2  UNL     1      22.703   2.814  50.121  1.00  0.00    -0.263 NA
HETATM    9  C9  UNL     1      22.653   3.090  48.693  1.00  0.00     0.272 C 
HETATM   10  N3  UNL     1      22.000   4.329  48.392  1.00  0.00    -0.372 N 
HETATM   11  C10 UNL     1      20.738   5.024  48.392  1.00  0.00     0.028 C 
HETATM   12  C13 UNL     1      19.556   4.733  48.898  1.00  0.00     0.028 C 
HETATM   13  C14 UNL     1      19.325   3.473  49.625  1.00  0.00     0.197 C 
HETATM   14  O1  UNL     1      18.931   3.583  50.928  1.00  0.00    -0.387 OA
HETATM   15  C15 UNL     1      18.710   2.368  51.583  1.00  0.00     0.171 C 
HETATM   16  C16 UNL     1      19.925   1.519  51.601  1.00  0.00     0.056 C 
HETATM   17  C17 UNL     1      19.738   0.227  52.262  1.00  0.00     0.013 C 
HETATM   18  C18 UNL     1      20.387  -0.327  53.274  1.00  0.00     0.094 C 
HETATM   19  F1  UNL     1      20.111  -1.559  53.801  1.00  0.00    -0.211 F 
HETATM   20  C19 UNL     1      21.512   0.240  54.114  1.00  0.00     0.102 C 
HETATM   21  P1  UNL     1      23.026  -0.811  53.945  1.00  0.00    -0.112 P 
HETATM   22  C20 UNL     1      24.511   0.282  53.886  1.00  0.00     0.070 C 
HETATM   23  H10 UNL     1      22.759   4.999  48.042  1.00  0.00     0.161 HD
HETATM   24  H23 UNL     1      22.957  -1.724  52.824  1.00  0.00     0.058 HD
ENDROOT
BRANCH  11  25
HETATM   25  C11 UNL     1      20.734   6.211  47.507  1.00  0.00     0.041 C 
BRANCH  25  26
HETATM   26  C12 UNL     1      20.814   7.374  46.965  1.00  0.00     0.086 C 
HETATM   27 CL1  UNL     1      21.195   9.063  46.779  1.00  0.00    -0.097 Cl
ENDBRANCH  25  26
ENDBRANCH  11  25
BRANCH   1  28
HETATM   28  C2  UNL     1      27.565  -1.340  52.723  1.00  0.00    -0.026 C 
HETATM   29  C1  UNL     1      26.791  -2.332  52.333  1.00  0.00     0.008 C 
ENDBRANCH   1  28
TORSDOF 3
ENDMDL
MODEL 7
REMARK VINA RESULT:      -7.4      1.663      1.873
REMARK  3 active torsions:
REMARK  status: ('A' for Active; 'I' for Inactive)
REMARK    1  A    between atoms: C2_2  and  C3_3 
REMARK    2  A    between atoms: C10_13  and  C11_14 
REMARK    3  A    between atoms: C11_14  and  C12_15 
ROOT
HETATM    1  C3  UNL     1      27.337  -0.367  52.935  1.00  0.00    -0.004 A 
HETATM    2  C4  UNL     1      26.123  -0.401  53.278  1.00  0.00    -0.005 A 
HETATM    3  C5  UNL     1      27.001   0.688  54.259  1.00  0.00     0.036 A 
HETATM    4  C6  UNL     1      27.046   1.132  52.884  1.00  0.00     0.049 A 
HETATM    5  C7  UNL     1      25.561   1.367  52.617  1.00  0.00     0.028 C 
HETATM    6  N1  UNL     1      24.680   1.980  51.913  1.00  0.00    -0.250 NA
HETATM    7  C8  UNL     1      24.997   2.878  50.879  1.00  0.00     0.228 C 
HETATM    8  N2  UNL     1      24.910   4.129  50.681  1.00  0.00    -0.263 NA
HETATM    9  C9  UNL     1      25.349   4.759  49.444  1.00  0.00     0.272 C 
HETATM   10  N3  UNL     1      25.065   6.161  49.406  1.00  0.00    -0.372 N 
HETATM   11  C10 UNL     1      24.016   7.148  49.330  1.00  0.00     0.028 C 
HETATM   12  C13 UNL     1      22.705   7.068  49.424  1.00  0.00     0.028 C 
HETATM   13  C14 UNL     1      22.030   5.776  49.638  1.00  0.00     0.197 C 
HETATM   14  O1  UNL     1      21.287   5.656  50.777  1.00  0.00    -0.387 OA
HETATM   15  C15 UNL     1      20.652   4.421  50.942  1.00  0.00     0.171 C 
HETATM   16  C16 UNL     1      21.622   3.300  50.975  1.00  0.00     0.056 C 
HETATM   17  C17 UNL     1      21.003   1.983  51.128  1.00  0.00     0.013 C 
HETATM   18  C18 UNL     1      21.197   1.040  52.035  1.00  0.00     0.094 C 
HETATM   19  F1  UNL     1      20.547  -0.164  52.064  1.00  0.00    -0.211 F 
HETATM   20  C19 UNL     1      22.098   1.052  53.252  1.00  0.00     0.102 C 
HETATM   21  P1  UNL     1      23.366  -0.290  53.120  1.00  0.00    -0.112 P 
HETATM   22  C20 UNL     1      24.975   0.340  53.762  1.00  0.00     0.070 C 
HETATM   23  H10 UNL     1      26.005   6.669  49.476  1.00  0.00     0.161 HD
HETATM   24  H23 UNL     1      23.470  -0.838  51.785  1.00  0.00     0.058 HD
ENDROOT
BRANCH  11  25
HETATM   25  C11 UNL     1      24.506   8.475  48.892  1.00  0.00     0.041 C 
BRANCH  25  26
HETATM   26  C12 UNL     1      25.166   9.492  48.467  1.00  0.00     0.086 C 
HETATM   27 CL1  UNL     1      25.928  11.059  48.471  1.00  0.00    -0.097 Cl
ENDBRANCH  25  26
ENDBRANCH  11  25
BRANCH   1  28
HETATM   28  C2  UNL     1      27.877  -1.697  52.899  1.00  0.00    -0.026 C 
HETATM   29  C1  UNL     1      26.943  -2.376  52.264  1.00  0.00     0.008 C 
ENDBRANCH   1  28
TORSDOF 3
ENDMDL
MODEL 8
REMARK VINA RESULT:      -7.2      4.491      6.182
REMARK  3 active torsions:
REMARK  status: ('A' for Active; 'I' for Inactive)
REMARK    1  A    between atoms: C2_2  and  C3_3 
REMARK    2  A    between atoms: C10_13  and  C11_14 
REMARK    3  A    between atoms: C11_14  and  C12_15 
ROOT
HETATM    1  C3  UNL     1      22.848   1.654  51.221  1.00  0.00    -0.004 A 
HETATM    2  C4  UNL     1      22.354   2.808  51.346  1.00  0.00    -0.005 A 
HETATM    3  C5  UNL     1      23.402   2.452  52.647  1.00  0.00     0.036 A 
HETATM    4  C6  UNL     1      24.147   2.436  51.408  1.00  0.00     0.049 A 
HETATM    5  C7  UNL     1      23.959   3.880  50.949  1.00  0.00     0.028 C 
HETATM    6  N1  UNL     1      24.410   4.848  50.238  1.00  0.00    -0.250 NA
HETATM    7  C8  UNL     1      25.578   4.765  49.460  1.00  0.00     0.228 C 
HETATM    8  N2  UNL     1      26.748   5.257  49.491  1.00  0.00    -0.263 NA
HETATM    9  C9  UNL     1      27.755   4.948  48.487  1.00  0.00     0.272 C 
HETATM   10  N3  UNL     1      28.964   5.692  48.669  1.00  0.00    -0.372 N 
HETATM   11  C10 UNL     1      29.560   7.004  48.609  1.00  0.00     0.028 C 
HETATM   12  C13 UNL     1      29.052   8.211  48.468  1.00  0.00     0.028 C 
HETATM   13  C14 UNL     1      27.601   8.418  48.318  1.00  0.00     0.197 C 
HETATM   14  O1  UNL     1      26.990   9.177  49.275  1.00  0.00    -0.387 OA
HETATM   15  C15 UNL     1      25.616   9.361  49.095  1.00  0.00     0.171 C 
HETATM   16  C16 UNL     1      24.882   8.073  49.075  1.00  0.00     0.056 C 
HETATM   17  C17 UNL     1      23.440   8.214  48.871  1.00  0.00     0.013 C 
HETATM   18  C18 UNL     1      22.420   7.792  49.602  1.00  0.00     0.094 C 
HETATM   19  F1  UNL     1      21.101   7.989  49.294  1.00  0.00    -0.211 F 
HETATM   20  C19 UNL     1      22.430   7.066  50.930  1.00  0.00     0.102 C 
HETATM   21  P1  UNL     1      21.626   5.409  50.758  1.00  0.00    -0.112 P 
HETATM   22  C20 UNL     1      22.562   4.180  51.765  1.00  0.00     0.070 C 
HETATM   23  H10 UNL     1      29.711   4.994  48.989  1.00  0.00     0.161 HD
HETATM   24  H23 UNL     1      21.467   5.000  49.379  1.00  0.00     0.058 HD
ENDROOT
BRANCH  11  25
HETATM   25  C11 UNL     1      31.037   6.962  48.518  1.00  0.00     0.041 C 
BRANCH  25  26
HETATM   26  C12 UNL     1      32.304   7.178  48.544  1.00  0.00     0.086 C 
HETATM   27 CL1  UNL     1      33.807   8.038  48.731  1.00  0.00    -0.097 Cl
ENDBRANCH  25  26
ENDBRANCH  11  25
BRANCH   1  28
HETATM   28  C2  UNL     1      21.802   0.689  51.023  1.00  0.00    -0.026 C 
HETATM   29  C1  UNL     1      21.436   0.905  49.777  1.00  0.00     0.008 C 
ENDBRANCH   1  28
TORSDOF 3
ENDMDL
MODEL 9
REMARK VINA RESULT:      -7.1      5.910      8.375
REMARK  3 active torsions:
REMARK  status: ('A' for Active; 'I' for Inactive)
REMARK    1  A    between atoms: C2_2  and  C3_3 
REMARK    2  A    between atoms: C10_13  and  C11_14 
REMARK    3  A    between atoms: C11_14  and  C12_15 
ROOT
HETATM    1  C3  UNL     1      33.351   4.110  47.408  1.00  0.00    -0.004 A 
HETATM    2  C4  UNL     1      33.173   5.350  47.254  1.00  0.00    -0.005 A 
HETATM    3  C5  UNL     1      32.650   4.485  45.876  1.00  0.00     0.036 A 
HETATM    4  C6  UNL     1      31.872   4.080  47.026  1.00  0.00     0.049 A 
HETATM    5  C7  UNL     1      31.209   5.404  47.397  1.00  0.00     0.028 C 
HETATM    6  N1  UNL     1      30.227   5.986  47.983  1.00  0.00    -0.250 NA
HETATM    7  C8  UNL     1      29.189   5.296  48.634  1.00  0.00     0.228 C 
HETATM    8  N2  UNL     1      27.951   5.090  48.441  1.00  0.00    -0.263 NA
HETATM    9  C9  UNL     1      27.138   4.296  49.350  1.00  0.00     0.272 C 
HETATM   10  N3  UNL     1      25.754   4.281  48.985  1.00  0.00    -0.372 N 
HETATM   11  C10 UNL     1      24.554   5.074  48.885  1.00  0.00     0.028 C 
HETATM   12  C13 UNL     1      24.325   6.367  48.993  1.00  0.00     0.028 C 
HETATM   13  C14 UNL     1      25.415   7.315  49.283  1.00  0.00     0.197 C 
HETATM   14  O1  UNL     1      25.652   8.280  48.346  1.00  0.00    -0.387 OA
HETATM   15  C15 UNL     1      26.685   9.168  48.659  1.00  0.00     0.171 C 
HETATM   16  C16 UNL     1      27.978   8.469  48.852  1.00  0.00     0.056 C 
HETATM   17  C17 UNL     1      29.087   9.357  49.199  1.00  0.00     0.013 C 
HETATM   18  C18 UNL     1      30.260   9.540  48.615  1.00  0.00     0.094 C 
HETATM   19  F1  UNL     1      31.224  10.410  49.049  1.00  0.00    -0.211 F 
HETATM   20  C19 UNL     1      30.808   8.915  47.350  1.00  0.00     0.102 C 
HETATM   21  P1  UNL     1      32.336   7.941  47.727  1.00  0.00    -0.112 P 
HETATM   22  C20 UNL     1      32.329   6.399  46.716  1.00  0.00     0.070 C 
HETATM   23  H10 UNL     1      25.537   3.291  48.638  1.00  0.00     0.161 HD
HETATM   24  H23 UNL     1      32.505   7.684  49.142  1.00  0.00     0.058 HD
ENDROOT
BRANCH  11  25
HETATM   25  C11 UNL     1      23.324   4.252  48.819  1.00  0.00     0.041 C 
BRANCH  25  26
HETATM   26  C12 UNL     1      22.409   3.377  48.598  1.00  0.00     0.086 C 
HETATM   27 CL1  UNL     1      21.671   1.824  48.322  1.00  0.00    -0.097 Cl
ENDBRANCH  25  26
ENDBRANCH  11  25
BRANCH   1  28
HETATM   28  C2  UNL     1      34.712   3.851  47.787  1.00  0.00    -0.026 C 
HETATM   29  C1  UNL     1      34.996   4.869  48.573  1.00  0.00     0.008 C 
ENDBRANCH   1  28
TORSDOF 3
ENDMDL
