MODEL 1
REMARK VINA RESULT:      -8.4      0.000      0.000
REMARK  6 active torsions:
REMARK  status: ('A' for Active; 'I' for Inactive)
REMARK    1  A    between atoms: C2_2  and  N1_3 
REMARK    2  A    between atoms: C2_2  and  O1_24 
REMARK    3  A    between atoms: N1_3  and  C3_4 
REMARK    4  A    between atoms: C10_13  and  N4_14 
REMARK    5  A    between atoms: N4_14  and  C11_15 
REMARK    6  A    between atoms: O1_24  and  C19_25 
ROOT
HETATM    1  C3  UNL     1      26.265   0.214  54.521  1.00  0.00     0.035 A 
HETATM    2  C4  UNL     1      25.433  -0.623  55.214  1.00  0.00     0.030 A 
HETATM    3  C5  UNL     1      24.148  -0.777  54.746  1.00  0.00     0.016 A 
HETATM    4  C6  UNL     1      23.729  -0.106  53.618  1.00  0.00     0.000 A 
HETATM    5  C7  UNL     1      22.426  -0.337  53.244  1.00  0.00     0.073 A 
HETATM    6  C8  UNL     1      21.539  -1.198  53.940  1.00  0.00     0.102 C 
HETATM    7  N2  UNL     1      20.814  -1.896  54.524  1.00  0.00    -0.191 NA
HETATM    8  C9  UNL     1      21.956   0.306  52.126  1.00  0.00     0.142 A 
HETATM    9  N3  UNL     1      22.784   1.119  51.465  1.00  0.00    -0.241 NA
HETATM   10  C10 UNL     1      24.055   1.384  51.776  1.00  0.00     0.139 A 
HETATM   11  C17 UNL     1      24.534   0.743  52.893  1.00  0.00     0.024 A 
HETATM   12  C18 UNL     1      25.808   0.865  53.400  1.00  0.00     0.045 A 
ENDROOT
BRANCH  10  13
HETATM   13  N4  UNL     1      24.923   2.246  51.067  1.00  0.00    -0.340 N 
HETATM   14  H7  UNL     1      25.761   1.900  50.584  1.00  0.00     0.167 HD
BRANCH  13  15
HETATM   15  C11 UNL     1      24.839   3.649  50.885  1.00  0.00     0.035 A 
HETATM   16  C12 UNL     1      23.966   4.492  51.560  1.00  0.00     0.029 A 
HETATM   17  C13 UNL     1      23.907   5.849  51.362  1.00  0.00     0.004 A 
HETATM   18  C14 UNL     1      24.732   6.462  50.461  1.00  0.00     0.019 A 
HETATM   19  C15 UNL     1      25.620   5.673  49.762  1.00  0.00     0.013 A 
HETATM   20 BR1  UNL     1      26.751   6.570  48.517  1.00  0.00    -0.051 Br
HETATM   21  C16 UNL     1      25.639   4.316  49.998  1.00  0.00     0.048 A 
ENDBRANCH  13  15
ENDBRANCH  10  13
BRANCH   1  22
HETATM   22  N1  UNL     1      27.587   0.395  54.974  1.00  0.00    -0.338 N 
HETATM   23  H3  UNL     1      27.759   0.881  55.900  1.00  0.00     0.168 HD
BRANCH  22  24
HETATM   24  C2  UNL     1      28.708  -0.055  54.227  1.00  0.00     0.132 C 
HETATM   25  C1  UNL     1      29.700   0.550  53.580  1.00  0.00     0.071 C 
BRANCH  24  26
HETATM   26  O1  UNL     1      28.772  -1.431  54.164  1.00  0.00    -0.337 OA
BRANCH  26  27
HETATM   27  C19 UNL     1      28.788  -2.213  53.009  1.00  0.00     0.173 C 
HETATM   28  C20 UNL     1      27.352  -2.398  52.517  1.00  0.00     0.034 C 
ENDBRANCH  26  27
ENDBRANCH  24  26
ENDBRANCH  22  24
ENDBRANCH   1  22
TORSDOF 6
ENDMDL
MODEL 2
REMARK VINA RESULT:      -8.4      1.680      2.436
REMARK  6 active torsions:
REMARK  status: ('A' for Active; 'I' for Inactive)
REMARK    1  A    between atoms: C2_2  and  N1_3 
REMARK    2  A    between atoms: C2_2  and  O1_24 
REMARK    3  A    between atoms: N1_3  and  C3_4 
REMARK    4  A    between atoms: C10_13  and  N4_14 
REMARK    5  A    between atoms: N4_14  and  C11_15 
REMARK    6  A    between atoms: O1_24  and  C19_25 
ROOT
HETATM    1  C3  UNL     1      26.490  -0.593  52.898  1.00  0.00     0.035 A 
HETATM    2  C4  UNL     1      25.462  -1.044  53.680  1.00  0.00     0.030 A 
HETATM    3  C5  UNL     1      24.259  -0.380  53.599  1.00  0.00     0.016 A 
HETATM    4  C6  UNL     1      24.112   0.699  52.755  1.00  0.00     0.000 A 
HETATM    5  C7  UNL     1      22.866   1.283  52.755  1.00  0.00     0.073 A 
HETATM    6  C8  UNL     1      21.780   0.840  53.554  1.00  0.00     0.102 C 
HETATM    7  N2  UNL     1      20.898   0.477  54.221  1.00  0.00    -0.191 NA
HETATM    8  C9  UNL     1      22.663   2.362  51.932  1.00  0.00     0.142 A 
HETATM    9  N3  UNL     1      23.680   2.787  51.178  1.00  0.00    -0.241 NA
HETATM   10  C10 UNL     1      24.908   2.265  51.132  1.00  0.00     0.139 A 
HETATM   11  C17 UNL     1      25.120   1.183  51.952  1.00  0.00     0.024 A 
HETATM   12  C18 UNL     1      26.301   0.487  52.069  1.00  0.00     0.045 A 
ENDROOT
BRANCH  10  13
HETATM   13  N4  UNL     1      25.977   2.722  50.328  1.00  0.00    -0.340 N 
HETATM   14  H7  UNL     1      26.727   2.097  50.010  1.00  0.00     0.167 HD
BRANCH  13  15
HETATM   15  C11 UNL     1      26.229   4.025  49.830  1.00  0.00     0.035 A 
HETATM   16  C12 UNL     1      27.266   4.367  48.972  1.00  0.00     0.029 A 
HETATM   17  C13 UNL     1      27.485   5.640  48.507  1.00  0.00     0.004 A 
HETATM   18  C14 UNL     1      26.668   6.671  48.877  1.00  0.00     0.019 A 
HETATM   19  C15 UNL     1      25.622   6.389  49.728  1.00  0.00     0.013 A 
HETATM   20 BR1  UNL     1      24.508   7.857  50.216  1.00  0.00    -0.051 Br
HETATM   21  C16 UNL     1      25.445   5.095  50.166  1.00  0.00     0.048 A 
ENDBRANCH  13  15
ENDBRANCH  10  13
BRANCH   1  22
HETATM   22  N1  UNL     1      27.735  -1.250  52.959  1.00  0.00    -0.338 N 
HETATM   23  H3  UNL     1      27.860  -2.177  52.463  1.00  0.00     0.168 HD
BRANCH  22  24
HETATM   24  C2  UNL     1      28.840  -0.707  53.669  1.00  0.00     0.132 C 
HETATM   25  C1  UNL     1      30.138  -0.991  53.732  1.00  0.00     0.071 C 
BRANCH  24  26
HETATM   26  O1  UNL     1      28.473   0.352  54.470  1.00  0.00    -0.337 OA
BRANCH  26  27
HETATM   27  C19 UNL     1      29.148   1.564  54.613  1.00  0.00     0.173 C 
HETATM   28  C20 UNL     1      28.631   2.545  53.560  1.00  0.00     0.034 C 
ENDBRANCH  26  27
ENDBRANCH  24  26
ENDBRANCH  22  24
ENDBRANCH   1  22
TORSDOF 6
ENDMDL
MODEL 3
REMARK VINA RESULT:      -8.3      1.710      2.591
REMARK  6 active torsions:
REMARK  status: ('A' for Active; 'I' for Inactive)
REMARK    1  A    between atoms: C2_2  and  N1_3 
REMARK    2  A    between atoms: C2_2  and  O1_24 
REMARK    3  A    between atoms: N1_3  and  C3_4 
REMARK    4  A    between atoms: C10_13  and  N4_14 
REMARK    5  A    between atoms: N4_14  and  C11_15 
REMARK    6  A    between atoms: O1_24  and  C19_25 
ROOT
HETATM    1  C3  UNL     1      24.068  -0.056  53.531  1.00  0.00     0.035 A 
HETATM    2  C4  UNL     1      22.996  -0.904  53.482  1.00  0.00     0.030 A 
HETATM    3  C5  UNL     1      21.843  -0.443  52.890  1.00  0.00     0.016 A 
HETATM    4  C6  UNL     1      21.786   0.831  52.368  1.00  0.00     0.000 A 
HETATM    5  C7  UNL     1      20.583   1.183  51.800  1.00  0.00     0.073 A 
HETATM    6  C8  UNL     1      19.454   0.327  51.734  1.00  0.00     0.102 C 
HETATM    7  N2  UNL     1      18.528  -0.377  51.695  1.00  0.00    -0.191 NA
HETATM    8  C9  UNL     1      20.471   2.442  51.265  1.00  0.00     0.142 A 
HETATM    9  N3  UNL     1      21.529   3.254  51.323  1.00  0.00    -0.241 NA
HETATM   10  C10 UNL     1      22.719   2.973  51.858  1.00  0.00     0.139 A 
HETATM   11  C17 UNL     1      22.841   1.714  52.396  1.00  0.00     0.024 A 
HETATM   12  C18 UNL     1      23.970   1.207  52.999  1.00  0.00     0.045 A 
ENDROOT
BRANCH  10  13
HETATM   13  N4  UNL     1      23.834   3.841  51.913  1.00  0.00    -0.340 N 
HETATM   14  H7  UNL     1      24.042   4.411  52.742  1.00  0.00     0.167 HD
BRANCH  13  15
HETATM   15  C11 UNL     1      24.819   4.096  50.926  1.00  0.00     0.035 A 
HETATM   16  C12 UNL     1      25.807   3.203  50.533  1.00  0.00     0.029 A 
HETATM   17  C13 UNL     1      26.749   3.480  49.574  1.00  0.00     0.004 A 
HETATM   18  C14 UNL     1      26.764   4.687  48.934  1.00  0.00     0.019 A 
HETATM   19  C15 UNL     1      25.805   5.612  49.285  1.00  0.00     0.013 A 
HETATM   20 BR1  UNL     1      25.863   7.282  48.366  1.00  0.00    -0.051 Br
HETATM   21  C16 UNL     1      24.882   5.285  50.254  1.00  0.00     0.048 A 
ENDBRANCH  13  15
ENDBRANCH  10  13
BRANCH   1  22
HETATM   22  N1  UNL     1      25.264  -0.497  54.132  1.00  0.00    -0.338 N 
HETATM   23  H3  UNL     1      25.281  -0.697  55.172  1.00  0.00     0.168 HD
BRANCH  22  24
HETATM   24  C2  UNL     1      26.458  -0.685  53.386  1.00  0.00     0.132 C 
HETATM   25  C1  UNL     1      26.756  -0.685  52.089  1.00  0.00     0.071 C 
BRANCH  24  26
HETATM   26  O1  UNL     1      27.547  -0.919  54.198  1.00  0.00    -0.337 OA
BRANCH  26  27
HETATM   27  C19 UNL     1      28.686  -0.124  54.315  1.00  0.00     0.173 C 
HETATM   28  C20 UNL     1      29.891  -0.907  53.793  1.00  0.00     0.034 C 
ENDBRANCH  26  27
ENDBRANCH  24  26
ENDBRANCH  22  24
ENDBRANCH   1  22
TORSDOF 6
ENDMDL
MODEL 4
REMARK VINA RESULT:      -8.1      1.766      2.696
REMARK  6 active torsions:
REMARK  status: ('A' for Active; 'I' for Inactive)
REMARK    1  A    between atoms: C2_2  and  N1_3 
REMARK    2  A    between atoms: C2_2  and  O1_24 
REMARK    3  A    between atoms: N1_3  and  C3_4 
REMARK    4  A    between atoms: C10_13  and  N4_14 
REMARK    5  A    between atoms: N4_14  and  C11_15 
REMARK    6  A    between atoms: O1_24  and  C19_25 
ROOT
HETATM    1  C3  UNL     1      23.515  -0.622  54.093  1.00  0.00     0.035 A 
HETATM    2  C4  UNL     1      22.426  -1.185  54.699  1.00  0.00     0.030 A 
HETATM    3  C5  UNL     1      21.197  -0.991  54.112  1.00  0.00     0.016 A 
HETATM    4  C6  UNL     1      21.083  -0.253  52.954  1.00  0.00     0.000 A 
HETATM    5  C7  UNL     1      19.807  -0.127  52.457  1.00  0.00     0.073 A 
HETATM    6  C8  UNL     1      18.658  -0.698  53.062  1.00  0.00     0.102 C 
HETATM    7  N2  UNL     1      17.718  -1.160  53.571  1.00  0.00    -0.191 NA
HETATM    8  C9  UNL     1      19.636   0.598  51.304  1.00  0.00     0.142 A 
HETATM    9  N3  UNL     1      20.713   1.140  50.728  1.00  0.00    -0.241 NA
HETATM   10  C10 UNL     1      21.973   1.053  51.159  1.00  0.00     0.139 A 
HETATM   11  C17 UNL     1      22.153   0.329  52.313  1.00  0.00     0.024 A 
HETATM   12  C18 UNL     1      23.359   0.107  52.938  1.00  0.00     0.045 A 
ENDROOT
BRANCH  10  13
HETATM   13  N4  UNL     1      23.106   1.630  50.540  1.00  0.00    -0.340 N 
HETATM   14  H7  UNL     1      23.739   1.085  49.943  1.00  0.00     0.167 HD
BRANCH  13  15
HETATM   15  C11 UNL     1      23.577   2.966  50.604  1.00  0.00     0.035 A 
HETATM   16  C12 UNL     1      22.999   3.984  51.351  1.00  0.00     0.029 A 
HETATM   17  C13 UNL     1      23.478   5.269  51.391  1.00  0.00     0.004 A 
HETATM   18  C14 UNL     1      24.587   5.627  50.676  1.00  0.00     0.019 A 
HETATM   19  C15 UNL     1      25.201   4.655  49.916  1.00  0.00     0.013 A 
HETATM   20 BR1  UNL     1      26.743   5.199  48.935  1.00  0.00    -0.051 Br
HETATM   21  C16 UNL     1      24.680   3.380  49.909  1.00  0.00     0.048 A 
ENDBRANCH  13  15
ENDBRANCH  10  13
BRANCH   1  22
HETATM   22  N1  UNL     1      24.789  -0.800  54.670  1.00  0.00    -0.338 N 
HETATM   23  H3  UNL     1      24.865  -1.169  55.660  1.00  0.00     0.168 HD
BRANCH  22  24
HETATM   24  C2  UNL     1      25.984  -0.500  53.964  1.00  0.00     0.132 C 
HETATM   25  C1  UNL     1      26.685  -1.114  53.015  1.00  0.00     0.071 C 
BRANCH  24  26
HETATM   26  O1  UNL     1      26.534   0.700  54.360  1.00  0.00    -0.337 OA
BRANCH  26  27
HETATM   27  C19 UNL     1      26.613   1.871  53.606  1.00  0.00     0.173 C 
HETATM   28  C20 UNL     1      28.081   2.279  53.479  1.00  0.00     0.034 C 
ENDBRANCH  26  27
ENDBRANCH  24  26
ENDBRANCH  22  24
ENDBRANCH   1  22
TORSDOF 6
ENDMDL
MODEL 5
REMARK VINA RESULT:      -8.0      2.982      5.479
REMARK  6 active torsions:
REMARK  status: ('A' for Active; 'I' for Inactive)
REMARK    1  A    between atoms: C2_2  and  N1_3 
REMARK    2  A    between atoms: C2_2  and  O1_24 
REMARK    3  A    between atoms: N1_3  and  C3_4 
REMARK    4  A    between atoms: C10_13  and  N4_14 
REMARK    5  A    between atoms: N4_14  and  C11_15 
REMARK    6  A    between atoms: O1_24  and  C19_25 
ROOT
HETATM    1  C3  UNL     1      22.392   0.529  53.428  1.00  0.00     0.035 A 
HETATM    2  C4  UNL     1      22.984  -0.681  53.670  1.00  0.00     0.030 A 
HETATM    3  C5  UNL     1      24.324  -0.804  53.383  1.00  0.00     0.016 A 
HETATM    4  C6  UNL     1      25.031   0.262  52.870  1.00  0.00     0.000 A 
HETATM    5  C7  UNL     1      26.363   0.023  52.623  1.00  0.00     0.073 A 
HETATM    6  C8  UNL     1      27.006  -1.218  52.862  1.00  0.00     0.102 C 
HETATM    7  N2  UNL     1      27.524  -2.244  53.051  1.00  0.00    -0.191 NA
HETATM    8  C9  UNL     1      27.115   1.051  52.111  1.00  0.00     0.142 A 
HETATM    9  N3  UNL     1      26.517   2.223  51.882  1.00  0.00    -0.241 NA
HETATM   10  C10 UNL     1      25.233   2.517  52.100  1.00  0.00     0.139 A 
HETATM   11  C17 UNL     1      24.473   1.494  52.613  1.00  0.00     0.024 A 
HETATM   12  C18 UNL     1      23.132   1.567  52.916  1.00  0.00     0.045 A 
ENDROOT
BRANCH  10  13
HETATM   13  N4  UNL     1      24.611   3.763  51.855  1.00  0.00    -0.340 N 
HETATM   14  H7  UNL     1      24.369   4.412  52.613  1.00  0.00     0.167 HD
BRANCH  13  15
HETATM   15  C11 UNL     1      24.216   4.338  50.620  1.00  0.00     0.035 A 
HETATM   16  C12 UNL     1      24.553   5.614  50.188  1.00  0.00     0.029 A 
HETATM   17  C13 UNL     1      24.154   6.144  48.987  1.00  0.00     0.004 A 
HETATM   18  C14 UNL     1      23.379   5.420  48.124  1.00  0.00     0.019 A 
HETATM   19  C15 UNL     1      23.014   4.146  48.502  1.00  0.00     0.013 A 
HETATM   20 BR1  UNL     1      21.934   3.174  47.269  1.00  0.00    -0.051 Br
HETATM   21  C16 UNL     1      23.441   3.661  49.719  1.00  0.00     0.048 A 
ENDBRANCH  13  15
ENDBRANCH  10  13
BRANCH   1  22
HETATM   22  N1  UNL     1      21.020   0.688  53.710  1.00  0.00    -0.338 N 
HETATM   23  H3  UNL     1      20.724   1.241  54.563  1.00  0.00     0.168 HD
BRANCH  22  24
HETATM   24  C2  UNL     1      20.011   0.127  52.882  1.00  0.00     0.132 C 
HETATM   25  C1  UNL     1      19.640   0.303  51.617  1.00  0.00     0.071 C 
BRANCH  24  26
HETATM   26  O1  UNL     1      19.250  -0.807  53.551  1.00  0.00    -0.337 OA
BRANCH  26  27
HETATM   27  C19 UNL     1      17.970  -1.241  53.207  1.00  0.00     0.173 C 
HETATM   28  C20 UNL     1      17.803  -2.693  53.657  1.00  0.00     0.034 C 
ENDBRANCH  26  27
ENDBRANCH  24  26
ENDBRANCH  22  24
ENDBRANCH   1  22
TORSDOF 6
ENDMDL
MODEL 6
REMARK VINA RESULT:      -7.9      2.777      5.452
REMARK  6 active torsions:
REMARK  status: ('A' for Active; 'I' for Inactive)
REMARK    1  A    between atoms: C2_2  and  N1_3 
REMARK    2  A    between atoms: C2_2  and  O1_24 
REMARK    3  A    between atoms: N1_3  and  C3_4 
REMARK    4  A    between atoms: C10_13  and  N4_14 
REMARK    5  A    between atoms: N4_14  and  C11_15 
REMARK    6  A    between atoms: O1_24  and  C19_25 
ROOT
HETATM    1  C3  UNL     1      22.744   0.833  51.871  1.00  0.00     0.035 A 
HETATM    2  C4  UNL     1      23.113   0.122  52.980  1.00  0.00     0.030 A 
HETATM    3  C5  UNL     1      24.419   0.226  53.400  1.00  0.00     0.016 A 
HETATM    4  C6  UNL     1      25.312   1.022  52.718  1.00  0.00     0.000 A 
HETATM    5  C7  UNL     1      26.589   1.050  53.228  1.00  0.00     0.073 A 
HETATM    6  C8  UNL     1      27.003   0.324  54.375  1.00  0.00     0.102 C 
HETATM    7  N2  UNL     1      27.337  -0.284  55.310  1.00  0.00    -0.191 NA
HETATM    8  C9  UNL     1      27.520   1.828  52.587  1.00  0.00     0.142 A 
HETATM    9  N3  UNL     1      27.140   2.514  51.506  1.00  0.00    -0.241 NA
HETATM   10  C10 UNL     1      25.920   2.529  50.963  1.00  0.00     0.139 A 
HETATM   11  C17 UNL     1      24.982   1.753  51.599  1.00  0.00     0.024 A 
HETATM   12  C18 UNL     1      23.666   1.616  51.219  1.00  0.00     0.045 A 
ENDROOT
BRANCH  10  13
HETATM   13  N4  UNL     1      25.528   3.260  49.818  1.00  0.00    -0.340 N 
HETATM   14  H7  UNL     1      24.766   2.947  49.205  1.00  0.00     0.167 HD
BRANCH  13  15
HETATM   15  C11 UNL     1      26.053   4.475  49.309  1.00  0.00     0.035 A 
HETATM   16  C12 UNL     1      25.332   5.651  49.145  1.00  0.00     0.029 A 
HETATM   17  C13 UNL     1      25.868   6.812  48.648  1.00  0.00     0.004 A 
HETATM   18  C14 UNL     1      27.182   6.875  48.277  1.00  0.00     0.019 A 
HETATM   19  C15 UNL     1      27.945   5.737  48.419  1.00  0.00     0.013 A 
HETATM   20 BR1  UNL     1      29.772   5.871  47.890  1.00  0.00    -0.051 Br
HETATM   21  C16 UNL     1      27.359   4.596  48.922  1.00  0.00     0.048 A 
ENDBRANCH  13  15
ENDBRANCH  10  13
BRANCH   1  22
HETATM   22  N1  UNL     1      21.414   0.747  51.414  1.00  0.00    -0.338 N 
HETATM   23  H3  UNL     1      21.198   0.190  50.540  1.00  0.00     0.168 HD
BRANCH  22  24
HETATM   24  C2  UNL     1      20.342   1.388  52.091  1.00  0.00     0.132 C 
HETATM   25  C1  UNL     1      20.124   2.625  52.529  1.00  0.00     0.071 C 
BRANCH  24  26
HETATM   26  O1  UNL     1      19.299   0.525  52.347  1.00  0.00    -0.337 OA
BRANCH  26  27
HETATM   27  C19 UNL     1      19.350  -0.643  53.107  1.00  0.00     0.173 C 
HETATM   28  C20 UNL     1      17.943  -1.237  53.196  1.00  0.00     0.034 C 
ENDBRANCH  26  27
ENDBRANCH  24  26
ENDBRANCH  22  24
ENDBRANCH   1  22
TORSDOF 6
ENDMDL
MODEL 7
REMARK VINA RESULT:      -7.9      2.845      5.270
REMARK  6 active torsions:
REMARK  status: ('A' for Active; 'I' for Inactive)
REMARK    1  A    between atoms: C2_2  and  N1_3 
REMARK    2  A    between atoms: C2_2  and  O1_24 
REMARK    3  A    between atoms: N1_3  and  C3_4 
REMARK    4  A    between atoms: C10_13  and  N4_14 
REMARK    5  A    between atoms: N4_14  and  C11_15 
REMARK    6  A    between atoms: O1_24  and  C19_25 
ROOT
HETATM    1  C3  UNL     1      22.349   0.539  53.469  1.00  0.00     0.035 A 
HETATM    2  C4  UNL     1      22.917  -0.684  53.698  1.00  0.00     0.030 A 
HETATM    3  C5  UNL     1      24.256  -0.830  53.416  1.00  0.00     0.016 A 
HETATM    4  C6  UNL     1      24.985   0.229  52.920  1.00  0.00     0.000 A 
HETATM    5  C7  UNL     1      26.313  -0.033  52.676  1.00  0.00     0.073 A 
HETATM    6  C8  UNL     1      26.932  -1.289  52.903  1.00  0.00     0.102 C 
HETATM    7  N2  UNL     1      27.428  -2.327  53.081  1.00  0.00    -0.191 NA
HETATM    8  C9  UNL     1      27.087   0.987  52.181  1.00  0.00     0.142 A 
HETATM    9  N3  UNL     1      26.514   2.173  51.964  1.00  0.00    -0.241 NA
HETATM   10  C10 UNL     1      25.235   2.489  52.180  1.00  0.00     0.139 A 
HETATM   11  C17 UNL     1      24.452   1.474  52.676  1.00  0.00     0.024 A 
HETATM   12  C18 UNL     1      23.112   1.570  52.973  1.00  0.00     0.045 A 
ENDROOT
BRANCH  10  13
HETATM   13  N4  UNL     1      24.638   3.749  51.947  1.00  0.00    -0.340 N 
HETATM   14  H7  UNL     1      24.330   4.358  52.715  1.00  0.00     0.167 HD
BRANCH  13  15
HETATM   15  C11 UNL     1      24.355   4.392  50.715  1.00  0.00     0.035 A 
HETATM   16  C12 UNL     1      24.912   5.591  50.292  1.00  0.00     0.029 A 
HETATM   17  C13 UNL     1      24.618   6.189  49.092  1.00  0.00     0.004 A 
HETATM   18  C14 UNL     1      23.731   5.618  48.223  1.00  0.00     0.019 A 
HETATM   19  C15 UNL     1      23.147   4.426  48.592  1.00  0.00     0.013 A 
HETATM   20 BR1  UNL     1      21.918   3.665  47.349  1.00  0.00    -0.051 Br
HETATM   21  C16 UNL     1      23.477   3.866  49.807  1.00  0.00     0.048 A 
ENDBRANCH  13  15
ENDBRANCH  10  13
BRANCH   1  22
HETATM   22  N1  UNL     1      20.979   0.722  53.746  1.00  0.00    -0.338 N 
HETATM   23  H3  UNL     1      20.684   1.095  54.692  1.00  0.00     0.168 HD
BRANCH  22  24
HETATM   24  C2  UNL     1      19.971   0.419  52.793  1.00  0.00     0.132 C 
HETATM   25  C1  UNL     1      19.032  -0.519  52.695  1.00  0.00     0.071 C 
BRANCH  24  26
HETATM   26  O1  UNL     1      19.974   1.302  51.734  1.00  0.00    -0.337 OA
BRANCH  26  27
HETATM   27  C19 UNL     1      19.894   0.980  50.380  1.00  0.00     0.173 C 
HETATM   28  C20 UNL     1      21.309   0.792  49.832  1.00  0.00     0.034 C 
ENDBRANCH  26  27
ENDBRANCH  24  26
ENDBRANCH  22  24
ENDBRANCH   1  22
TORSDOF 6
ENDMDL
MODEL 8
REMARK VINA RESULT:      -7.9      1.952      2.797
REMARK  6 active torsions:
REMARK  status: ('A' for Active; 'I' for Inactive)
REMARK    1  A    between atoms: C2_2  and  N1_3 
REMARK    2  A    between atoms: C2_2  and  O1_24 
REMARK    3  A    between atoms: N1_3  and  C3_4 
REMARK    4  A    between atoms: C10_13  and  N4_14 
REMARK    5  A    between atoms: N4_14  and  C11_15 
REMARK    6  A    between atoms: O1_24  and  C19_25 
ROOT
HETATM    1  C3  UNL     1      25.163   1.717  53.412  1.00  0.00     0.035 A 
HETATM    2  C4  UNL     1      24.231   0.716  53.445  1.00  0.00     0.030 A 
HETATM    3  C5  UNL     1      23.099   0.870  52.677  1.00  0.00     0.016 A 
HETATM    4  C6  UNL     1      22.926   1.999  51.907  1.00  0.00     0.000 A 
HETATM    5  C7  UNL     1      21.758   2.045  51.181  1.00  0.00     0.073 A 
HETATM    6  C8  UNL     1      20.773   1.024  51.194  1.00  0.00     0.102 C 
HETATM    7  N2  UNL     1      19.964   0.188  51.220  1.00  0.00    -0.191 NA
HETATM    8  C9  UNL     1      21.534   3.148  50.395  1.00  0.00     0.142 A 
HETATM    9  N3  UNL     1      22.456   4.114  50.377  1.00  0.00    -0.241 NA
HETATM   10  C10 UNL     1      23.605   4.129  51.057  1.00  0.00     0.139 A 
HETATM   11  C17 UNL     1      23.838   3.028  51.845  1.00  0.00     0.024 A 
HETATM   12  C18 UNL     1      24.951   2.827  52.630  1.00  0.00     0.045 A 
ENDROOT
BRANCH  10  13
HETATM   13  N4  UNL     1      24.575   5.157  51.029  1.00  0.00    -0.340 N 
HETATM   14  H7  UNL     1      24.603   5.900  51.737  1.00  0.00     0.167 HD
BRANCH  13  15
HETATM   15  C11 UNL     1      25.626   5.372  50.101  1.00  0.00     0.035 A 
HETATM   16  C12 UNL     1      26.478   4.389  49.617  1.00  0.00     0.029 A 
HETATM   17  C13 UNL     1      27.488   4.628  48.719  1.00  0.00     0.004 A 
HETATM   18  C14 UNL     1      27.715   5.887  48.238  1.00  0.00     0.019 A 
HETATM   19  C15 UNL     1      26.897   6.902  48.685  1.00  0.00     0.013 A 
HETATM   20 BR1  UNL     1      27.250   8.642  47.987  1.00  0.00    -0.051 Br
HETATM   21  C16 UNL     1      25.898   6.610  49.587  1.00  0.00     0.048 A 
ENDBRANCH  13  15
ENDBRANCH  10  13
BRANCH   1  22
HETATM   22  N1  UNL     1      26.332   1.590  54.188  1.00  0.00    -0.338 N 
HETATM   23  H3  UNL     1      26.252   1.491  55.239  1.00  0.00     0.168 HD
BRANCH  22  24
HETATM   24  C2  UNL     1      27.627   1.590  53.604  1.00  0.00     0.132 C 
HETATM   25  C1  UNL     1      28.671   2.413  53.653  1.00  0.00     0.071 C 
BRANCH  24  26
HETATM   26  O1  UNL     1      27.839   0.485  52.809  1.00  0.00    -0.337 OA
BRANCH  26  27
HETATM   27  C19 UNL     1      28.014  -0.831  53.239  1.00  0.00     0.173 C 
HETATM   28  C20 UNL     1      26.903  -1.697  52.643  1.00  0.00     0.034 C 
ENDBRANCH  26  27
ENDBRANCH  24  26
ENDBRANCH  22  24
ENDBRANCH   1  22
TORSDOF 6
ENDMDL
MODEL 9
REMARK VINA RESULT:      -7.9      2.537      5.396
REMARK  6 active torsions:
REMARK  status: ('A' for Active; 'I' for Inactive)
REMARK    1  A    between atoms: C2_2  and  N1_3 
REMARK    2  A    between atoms: C2_2  and  O1_24 
REMARK    3  A    between atoms: N1_3  and  C3_4 
REMARK    4  A    between atoms: C10_13  and  N4_14 
REMARK    5  A    between atoms: N4_14  and  C11_15 
REMARK    6  A    between atoms: O1_24  and  C19_25 
ROOT
HETATM    1  C3  UNL     1      23.062   0.380  52.236  1.00  0.00     0.035 A 
HETATM    2  C4  UNL     1      23.600  -0.335  53.271  1.00  0.00     0.030 A 
HETATM    3  C5  UNL     1      24.913  -0.091  53.600  1.00  0.00     0.016 A 
HETATM    4  C6  UNL     1      25.648   0.842  52.902  1.00  0.00     0.000 A 
HETATM    5  C7  UNL     1      26.949   1.001  53.320  1.00  0.00     0.073 A 
HETATM    6  C8  UNL     1      27.536   0.276  54.389  1.00  0.00     0.102 C 
HETATM    7  N2  UNL     1      28.013  -0.331  55.259  1.00  0.00    -0.191 NA
HETATM    8  C9  UNL     1      27.727   1.919  52.659  1.00  0.00     0.142 A 
HETATM    9  N3  UNL     1      27.183   2.605  51.651  1.00  0.00    -0.241 NA
HETATM   10  C10 UNL     1      25.931   2.497  51.200  1.00  0.00     0.139 A 
HETATM   11  C17 UNL     1      25.145   1.581  51.856  1.00  0.00     0.024 A 
HETATM   12  C18 UNL     1      23.829   1.302  51.565  1.00  0.00     0.045 A 
ENDROOT
BRANCH  10  13
HETATM   13  N4  UNL     1      25.365   3.230  50.131  1.00  0.00    -0.340 N 
HETATM   14  H7  UNL     1      24.480   2.955  49.688  1.00  0.00     0.167 HD
BRANCH  13  15
HETATM   15  C11 UNL     1      25.850   4.399  49.492  1.00  0.00     0.035 A 
HETATM   16  C12 UNL     1      27.138   4.567  49.002  1.00  0.00     0.029 A 
HETATM   17  C13 UNL     1      27.579   5.712  48.388  1.00  0.00     0.004 A 
HETATM   18  C14 UNL     1      26.746   6.783  48.220  1.00  0.00     0.019 A 
HETATM   19  C15 UNL     1      25.454   6.671  48.687  1.00  0.00     0.013 A 
HETATM   20 BR1  UNL     1      24.328   8.188  48.431  1.00  0.00    -0.051 Br
HETATM   21  C16 UNL     1      25.062   5.500  49.297  1.00  0.00     0.048 A 
ENDBRANCH  13  15
ENDBRANCH  10  13
BRANCH   1  22
HETATM   22  N1  UNL     1      21.719   0.154  51.872  1.00  0.00    -0.338 N 
HETATM   23  H3  UNL     1      21.498  -0.249  50.918  1.00  0.00     0.168 HD
BRANCH  22  24
HETATM   24  C2  UNL     1      20.641   0.449  52.749  1.00  0.00     0.132 C 
HETATM   25  C1  UNL     1      19.711  -0.279  53.361  1.00  0.00     0.071 C 
BRANCH  24  26
HETATM   26  O1  UNL     1      20.547   1.797  53.021  1.00  0.00    -0.337 OA
BRANCH  26  27
HETATM   27  C19 UNL     1      20.065   2.788  52.166  1.00  0.00     0.173 C 
HETATM   28  C20 UNL     1      21.099   3.911  52.078  1.00  0.00     0.034 C 
ENDBRANCH  26  27
ENDBRANCH  24  26
ENDBRANCH  22  24
ENDBRANCH   1  22
TORSDOF 6
ENDMDL
