MODEL 1
REMARK VINA RESULT:      -8.6      0.000      0.000
REMARK  5 active torsions:
REMARK  status: ('A' for Active; 'I' for Inactive)
REMARK    1  A    between atoms: C7_7  and  N1_8 
REMARK    2  A    between atoms: N1_8  and  C8_9 
REMARK    3  A    between atoms: C11_14  and  C12_15 
REMARK    4  A    between atoms: C12_15  and  O1_16 
REMARK    5  A    between atoms: O1_16  and  C13_17 
ROOT
HETATM    1  C1  UNL     1      29.031  -2.787  53.198  1.00  0.00     0.018 C 
HETATM    2  C2  UNL     1      28.726  -1.623  53.187  1.00  0.00    -0.078 C 
HETATM    3  C3  UNL     1      28.346  -0.226  53.154  1.00  0.00     0.019 A 
HETATM    4  C4  UNL     1      29.088   0.594  53.967  1.00  0.00     0.021 A 
HETATM    5  C5  UNL     1      28.839   1.942  54.035  1.00  0.00     0.004 A 
HETATM    6  C6  UNL     1      27.826   2.404  53.259  1.00  0.00     0.029 A 
HETATM    7  C7  UNL     1      27.023   1.655  52.406  1.00  0.00     0.035 A 
HETATM    8  C23 UNL     1      27.318   0.284  52.374  1.00  0.00     0.050 A 
ENDROOT
BRANCH   7   9
HETATM    9  N1  UNL     1      25.942   2.033  51.570  1.00  0.00    -0.340 N 
HETATM   10  H5  UNL     1      26.582   2.457  50.877  1.00  0.00     0.167 HD
BRANCH   9  11
HETATM   11  C8  UNL     1      24.621   1.744  51.983  1.00  0.00     0.144 A 
HETATM   12  N2  UNL     1      24.533   0.715  52.838  1.00  0.00    -0.223 NA
HETATM   13  C9  UNL     1      23.367   0.321  53.370  1.00  0.00     0.236 A 
HETATM   14  N3  UNL     1      22.294   1.032  52.985  1.00  0.00    -0.241 NA
HETATM   15  C10 UNL     1      22.317   2.063  52.137  1.00  0.00     0.073 A 
HETATM   16  C11 UNL     1      21.103   2.602  51.919  1.00  0.00     0.032 C 
HETATM   17  C18 UNL     1      23.518   2.459  51.594  1.00  0.00     0.070 A 
HETATM   18  C19 UNL     1      23.560   3.408  50.703  1.00  0.00     0.086 C 
HETATM   19  C20 UNL     1      24.532   4.077  49.826  1.00  0.00     0.233 C 
HETATM   20  O4  UNL     1      22.411   4.094  50.379  1.00  0.00    -0.350 OA
HETATM   21  O3  UNL     1      24.921   5.241  50.486  1.00  0.00    -0.383 OA
HETATM   22  C21 UNL     1      23.820   6.083  50.657  1.00  0.00     0.194 C 
HETATM   23  C22 UNL     1      22.524   5.509  50.191  1.00  0.00     0.201 C 
BRANCH  16  24
HETATM   24  C12 UNL     1      19.979   1.964  52.647  1.00  0.00     0.198 C 
BRANCH  24  25
HETATM   25  O1  UNL     1      19.007   1.544  51.802  1.00  0.00    -0.382 OA
BRANCH  25  26
HETATM   26  C13 UNL     1      18.888   0.204  51.611  1.00  0.00     0.125 C 
HETATM   27  C14 UNL     1      17.625  -0.221  50.906  1.00  0.00     0.058 C 
HETATM   28  C15 UNL     1      16.406   0.143  51.749  1.00  0.00     0.170 C 
HETATM   29  O2  UNL     1      16.598  -0.277  53.041  1.00  0.00    -0.391 OA
HETATM   30  C16 UNL     1      17.625  -1.177  53.207  1.00  0.00     0.170 C 
HETATM   31  C17 UNL     1      18.990  -0.615  52.865  1.00  0.00     0.058 C 
ENDBRANCH  25  26
ENDBRANCH  24  25
ENDBRANCH  16  24
ENDBRANCH   9  11
ENDBRANCH   7   9
TORSDOF 5
ENDMDL
MODEL 2
REMARK VINA RESULT:      -8.4      1.570      1.940
REMARK  5 active torsions:
REMARK  status: ('A' for Active; 'I' for Inactive)
REMARK    1  A    between atoms: C7_7  and  N1_8 
REMARK    2  A    between atoms: N1_8  and  C8_9 
REMARK    3  A    between atoms: C11_14  and  C12_15 
REMARK    4  A    between atoms: C12_15  and  O1_16 
REMARK    5  A    between atoms: O1_16  and  C13_17 
ROOT
HETATM    1  C1  UNL     1      27.828  -2.716  52.706  1.00  0.00     0.018 C 
HETATM    2  C2  UNL     1      27.864  -1.534  52.925  1.00  0.00    -0.078 C 
HETATM    3  C3  UNL     1      27.889  -0.108  53.175  1.00  0.00     0.019 A 
HETATM    4  C4  UNL     1      29.050   0.361  53.736  1.00  0.00     0.021 A 
HETATM    5  C5  UNL     1      29.213   1.693  54.027  1.00  0.00     0.004 A 
HETATM    6  C6  UNL     1      28.166   2.503  53.728  1.00  0.00     0.029 A 
HETATM    7  C7  UNL     1      26.954   2.123  53.161  1.00  0.00     0.035 A 
HETATM    8  C23 UNL     1      26.839   0.752  52.884  1.00  0.00     0.050 A 
ENDROOT
BRANCH   7   9
HETATM    9  N1  UNL     1      25.804   2.878  52.824  1.00  0.00    -0.340 N 
HETATM   10  H5  UNL     1      26.241   3.757  53.151  1.00  0.00     0.167 HD
BRANCH   9  11
HETATM   11  C8  UNL     1      24.679   2.213  52.285  1.00  0.00     0.144 A 
HETATM   12  N2  UNL     1      24.167   1.272  53.091  1.00  0.00    -0.223 NA
HETATM   13  C9  UNL     1      23.075   0.565  52.768  1.00  0.00     0.236 A 
HETATM   14  N3  UNL     1      22.529   0.868  51.578  1.00  0.00    -0.241 NA
HETATM   15  C10 UNL     1      22.992   1.790  50.731  1.00  0.00     0.073 A 
HETATM   16  C11 UNL     1      22.260   1.898  49.607  1.00  0.00     0.032 C 
HETATM   17  C18 UNL     1      24.115   2.510  51.070  1.00  0.00     0.070 A 
HETATM   18  C19 UNL     1      24.636   3.358  50.231  1.00  0.00     0.086 C 
HETATM   19  C20 UNL     1      25.807   4.239  50.111  1.00  0.00     0.233 C 
HETATM   20  O4  UNL     1      24.000   3.618  49.037  1.00  0.00    -0.350 OA
HETATM   21  O3  UNL     1      25.384   5.510  50.497  1.00  0.00    -0.383 OA
HETATM   22  C21 UNL     1      24.391   5.966  49.628  1.00  0.00     0.194 C 
HETATM   23  C22 UNL     1      23.974   4.978  48.591  1.00  0.00     0.201 C 
BRANCH  16  24
HETATM   24  C12 UNL     1      21.093   0.988  49.512  1.00  0.00     0.198 C 
BRANCH  24  25
HETATM   25  O1  UNL     1      19.951   1.661  49.233  1.00  0.00    -0.382 OA
BRANCH  25  26
HETATM   26  C13 UNL     1      18.853   1.351  49.971  1.00  0.00     0.125 C 
HETATM   27  C14 UNL     1      18.094   2.541  50.500  1.00  0.00     0.058 C 
HETATM   28  C15 UNL     1      18.973   3.338  51.460  1.00  0.00     0.170 C 
HETATM   29  O2  UNL     1      19.554   2.487  52.366  1.00  0.00    -0.391 OA
HETATM   30  C16 UNL     1      18.990   1.234  52.424  1.00  0.00     0.170 C 
HETATM   31  C17 UNL     1      19.122   0.445  51.137  1.00  0.00     0.058 C 
ENDBRANCH  25  26
ENDBRANCH  24  25
ENDBRANCH  16  24
ENDBRANCH   9  11
ENDBRANCH   7   9
TORSDOF 5
ENDMDL
MODEL 3
REMARK VINA RESULT:      -8.3      9.808     13.946
REMARK  5 active torsions:
REMARK  status: ('A' for Active; 'I' for Inactive)
REMARK    1  A    between atoms: C7_7  and  N1_8 
REMARK    2  A    between atoms: N1_8  and  C8_9 
REMARK    3  A    between atoms: C11_14  and  C12_15 
REMARK    4  A    between atoms: C12_15  and  O1_16 
REMARK    5  A    between atoms: O1_16  and  C13_17 
ROOT
HETATM    1  C1  UNL     1      26.800   4.015  49.243  1.00  0.00     0.018 C 
HETATM    2  C2  UNL     1      27.290   5.016  48.790  1.00  0.00    -0.078 C 
HETATM    3  C3  UNL     1      27.901   6.213  48.251  1.00  0.00     0.019 A 
HETATM    4  C4  UNL     1      27.023   7.220  47.939  1.00  0.00     0.021 A 
HETATM    5  C5  UNL     1      27.462   8.413  47.421  1.00  0.00     0.004 A 
HETATM    6  C6  UNL     1      28.802   8.530  47.240  1.00  0.00     0.029 A 
HETATM    7  C7  UNL     1      29.767   7.570  47.525  1.00  0.00     0.035 A 
HETATM    8  C23 UNL     1      29.265   6.370  48.052  1.00  0.00     0.050 A 
ENDROOT
BRANCH   7   9
HETATM    9  N1  UNL     1      31.175   7.586  47.364  1.00  0.00    -0.340 N 
HETATM   10  H5  UNL     1      31.317   7.940  48.326  1.00  0.00     0.167 HD
BRANCH   9  11
HETATM   11  C8  UNL     1      31.729   7.195  46.123  1.00  0.00     0.144 A 
HETATM   12  N2  UNL     1      31.335   7.955  45.091  1.00  0.00    -0.223 NA
HETATM   13  C9  UNL     1      31.787   7.762  43.844  1.00  0.00     0.236 A 
HETATM   14  N3  UNL     1      32.664   6.755  43.703  1.00  0.00    -0.241 NA
HETATM   15  C10 UNL     1      33.093   5.963  44.689  1.00  0.00     0.073 A 
HETATM   16  C11 UNL     1      33.972   5.030  44.280  1.00  0.00     0.032 C 
HETATM   17  C18 UNL     1      32.622   6.166  45.966  1.00  0.00     0.070 A 
HETATM   18  C19 UNL     1      32.959   5.361  46.932  1.00  0.00     0.086 C 
HETATM   19  C20 UNL     1      32.661   5.131  48.353  1.00  0.00     0.233 C 
HETATM   20  O4  UNL     1      33.878   4.362  46.700  1.00  0.00    -0.350 OA
HETATM   21  O3  UNL     1      33.676   5.758  49.074  1.00  0.00    -0.383 OA
HETATM   22  C21 UNL     1      34.907   5.171  48.774  1.00  0.00     0.194 C 
HETATM   23  C22 UNL     1      34.849   4.114  47.723  1.00  0.00     0.201 C 
BRANCH  16  24
HETATM   24  C12 UNL     1      34.300   5.048  42.834  1.00  0.00     0.198 C 
BRANCH  24  25
HETATM   25  O1  UNL     1      33.857   3.933  42.204  1.00  0.00    -0.382 OA
BRANCH  25  26
HETATM   26  C13 UNL     1      33.117   4.110  41.078  1.00  0.00     0.125 C 
HETATM   27  C14 UNL     1      32.867   2.852  40.286  1.00  0.00     0.058 C 
HETATM   28  C15 UNL     1      34.187   2.283  39.775  1.00  0.00     0.170 C 
HETATM   29  O2  UNL     1      34.923   3.281  39.189  1.00  0.00    -0.391 OA
HETATM   30  C16 UNL     1      34.215   4.425  38.900  1.00  0.00     0.170 C 
HETATM   31  C17 UNL     1      33.668   5.130  40.125  1.00  0.00     0.058 C 
ENDBRANCH  25  26
ENDBRANCH  24  25
ENDBRANCH  16  24
ENDBRANCH   9  11
ENDBRANCH   7   9
TORSDOF 5
ENDMDL
MODEL 4
REMARK VINA RESULT:      -8.3      3.197      8.071
REMARK  5 active torsions:
REMARK  status: ('A' for Active; 'I' for Inactive)
REMARK    1  A    between atoms: C7_7  and  N1_8 
REMARK    2  A    between atoms: N1_8  and  C8_9 
REMARK    3  A    between atoms: C11_14  and  C12_15 
REMARK    4  A    between atoms: C12_15  and  O1_16 
REMARK    5  A    between atoms: O1_16  and  C13_17 
ROOT
HETATM    1  C1  UNL     1      20.536   6.552  46.569  1.00  0.00     0.018 C 
HETATM    2  C2  UNL     1      20.892   5.532  47.095  1.00  0.00    -0.078 C 
HETATM    3  C3  UNL     1      21.320   4.313  47.751  1.00  0.00     0.019 A 
HETATM    4  C4  UNL     1      21.791   3.338  46.909  1.00  0.00     0.021 A 
HETATM    5  C5  UNL     1      22.232   2.131  47.393  1.00  0.00     0.004 A 
HETATM    6  C6  UNL     1      22.172   1.968  48.738  1.00  0.00     0.029 A 
HETATM    7  C7  UNL     1      21.714   2.894  49.669  1.00  0.00     0.035 A 
HETATM    8  C23 UNL     1      21.275   4.109  49.123  1.00  0.00     0.050 A 
ENDROOT
BRANCH   7   9
HETATM    9  N1  UNL     1      21.599   2.820  51.080  1.00  0.00    -0.340 N 
HETATM   10  H5  UNL     1      20.578   2.980  51.040  1.00  0.00     0.167 HD
BRANCH   9  11
HETATM   11  C8  UNL     1      22.764   2.618  51.855  1.00  0.00     0.144 A 
HETATM   12  N2  UNL     1      23.571   3.687  51.911  1.00  0.00    -0.223 NA
HETATM   13  C9  UNL     1      24.701   3.697  52.631  1.00  0.00     0.236 A 
HETATM   14  N3  UNL     1      24.968   2.560  53.293  1.00  0.00    -0.241 NA
HETATM   15  C10 UNL     1      24.207   1.462  53.276  1.00  0.00     0.073 A 
HETATM   16  C11 UNL     1      24.700   0.459  54.026  1.00  0.00     0.032 C 
HETATM   17  C18 UNL     1      23.049   1.459  52.532  1.00  0.00     0.070 A 
HETATM   18  C19 UNL     1      22.330   0.379  52.431  1.00  0.00     0.086 C 
HETATM   19  C20 UNL     1      21.136  -0.110  51.725  1.00  0.00     0.233 C 
HETATM   20  O4  UNL     1      22.670  -0.740  53.158  1.00  0.00    -0.350 OA
HETATM   21  O3  UNL     1      20.072   0.022  52.615  1.00  0.00    -0.383 OA
HETATM   22  C21 UNL     1      20.287  -0.780  53.737  1.00  0.00     0.194 C 
HETATM   23  C22 UNL     1      21.602  -1.486  53.751  1.00  0.00     0.201 C 
BRANCH  16  24
HETATM   24  C12 UNL     1      25.976   0.748  54.724  1.00  0.00     0.198 C 
BRANCH  24  25
HETATM   25  O1  UNL     1      26.854  -0.277  54.611  1.00  0.00    -0.382 OA
BRANCH  25  26
HETATM   26  C13 UNL     1      27.776  -0.196  53.617  1.00  0.00     0.125 C 
HETATM   27  C14 UNL     1      27.356  -0.833  52.316  1.00  0.00     0.058 C 
HETATM   28  C15 UNL     1      27.150  -2.332  52.509  1.00  0.00     0.170 C 
HETATM   29  O2  UNL     1      28.227  -2.864  53.171  1.00  0.00    -0.391 OA
HETATM   30  C16 UNL     1      29.337  -2.052  53.209  1.00  0.00     0.170 C 
HETATM   31  C17 UNL     1      29.123  -0.759  53.968  1.00  0.00     0.058 C 
ENDBRANCH  25  26
ENDBRANCH  24  25
ENDBRANCH  16  24
ENDBRANCH   9  11
ENDBRANCH   7   9
TORSDOF 5
ENDMDL
MODEL 5
REMARK VINA RESULT:      -8.1      2.843      5.349
REMARK  5 active torsions:
REMARK  status: ('A' for Active; 'I' for Inactive)
REMARK    1  A    between atoms: C7_7  and  N1_8 
REMARK    2  A    between atoms: N1_8  and  C8_9 
REMARK    3  A    between atoms: C11_14  and  C12_15 
REMARK    4  A    between atoms: C12_15  and  O1_16 
REMARK    5  A    between atoms: O1_16  and  C13_17 
ROOT
HETATM    1  C1  UNL     1      27.581   9.980  48.982  1.00  0.00     0.018 C 
HETATM    2  C2  UNL     1      27.113   8.890  49.176  1.00  0.00    -0.078 C 
HETATM    3  C3  UNL     1      26.540   7.584  49.430  1.00  0.00     0.019 A 
HETATM    4  C4  UNL     1      26.973   6.590  48.589  1.00  0.00     0.021 A 
HETATM    5  C5  UNL     1      26.514   5.301  48.714  1.00  0.00     0.004 A 
HETATM    6  C6  UNL     1      25.619   5.079  49.710  1.00  0.00     0.029 A 
HETATM    7  C7  UNL     1      25.124   6.018  50.609  1.00  0.00     0.035 A 
HETATM    8  C23 UNL     1      25.623   7.317  50.437  1.00  0.00     0.050 A 
ENDROOT
BRANCH   7   9
HETATM    9  N1  UNL     1      24.187   5.894  51.665  1.00  0.00    -0.340 N 
HETATM   10  H5  UNL     1      24.869   6.248  52.358  1.00  0.00     0.167 HD
BRANCH   9  11
HETATM   11  C8  UNL     1      22.899   5.383  51.385  1.00  0.00     0.144 A 
HETATM   12  N2  UNL     1      22.112   6.233  50.711  1.00  0.00    -0.223 NA
HETATM   13  C9  UNL     1      20.872   5.909  50.321  1.00  0.00     0.236 A 
HETATM   14  N3  UNL     1      20.474   4.670  50.652  1.00  0.00    -0.241 NA
HETATM   15  C10 UNL     1      21.208   3.779  51.322  1.00  0.00     0.073 A 
HETATM   16  C11 UNL     1      20.574   2.609  51.525  1.00  0.00     0.032 C 
HETATM   17  C18 UNL     1      22.480   4.121  51.721  1.00  0.00     0.070 A 
HETATM   18  C19 UNL     1      23.189   3.303  52.446  1.00  0.00     0.086 C 
HETATM   19  C20 UNL     1      24.481   3.260  53.145  1.00  0.00     0.233 C 
HETATM   20  O4  UNL     1      22.707   2.044  52.726  1.00  0.00    -0.350 OA
HETATM   21  O3  UNL     1      25.372   2.619  52.285  1.00  0.00    -0.383 OA
HETATM   22  C21 UNL     1      24.948   1.310  52.050  1.00  0.00     0.194 C 
HETATM   23  C22 UNL     1      23.641   0.960  52.679  1.00  0.00     0.201 C 
BRANCH  16  24
HETATM   24  C12 UNL     1      19.198   2.523  50.977  1.00  0.00     0.198 C 
BRANCH  24  25
HETATM   25  O1  UNL     1      18.415   1.699  51.714  1.00  0.00    -0.382 OA
BRANCH  25  26
HETATM   26  C13 UNL     1      18.565   0.362  51.518  1.00  0.00     0.125 C 
HETATM   27  C14 UNL     1      17.363  -0.324  50.920  1.00  0.00     0.058 C 
HETATM   28  C15 UNL     1      16.174  -0.220  51.870  1.00  0.00     0.170 C 
HETATM   29  O2  UNL     1      16.562  -0.582  53.135  1.00  0.00    -0.391 OA
HETATM   30  C16 UNL     1      17.766  -1.243  53.201  1.00  0.00     0.170 C 
HETATM   31  C17 UNL     1      18.947  -0.409  52.747  1.00  0.00     0.058 C 
ENDBRANCH  25  26
ENDBRANCH  24  25
ENDBRANCH  16  24
ENDBRANCH   9  11
ENDBRANCH   7   9
TORSDOF 5
ENDMDL
MODEL 6
REMARK VINA RESULT:      -8.0      6.682      9.263
REMARK  5 active torsions:
REMARK  status: ('A' for Active; 'I' for Inactive)
REMARK    1  A    between atoms: C7_7  and  N1_8 
REMARK    2  A    between atoms: N1_8  and  C8_9 
REMARK    3  A    between atoms: C11_14  and  C12_15 
REMARK    4  A    between atoms: C12_15  and  O1_16 
REMARK    5  A    between atoms: O1_16  and  C13_17 
ROOT
HETATM    1  C1  UNL     1      33.426   4.945  42.988  1.00  0.00     0.018 C 
HETATM    2  C2  UNL     1      33.223   4.791  44.162  1.00  0.00    -0.078 C 
HETATM    3  C3  UNL     1      32.972   4.628  45.580  1.00  0.00     0.019 A 
HETATM    4  C4  UNL     1      33.493   3.485  46.131  1.00  0.00     0.021 A 
HETATM    5  C5  UNL     1      33.332   3.201  47.465  1.00  0.00     0.004 A 
HETATM    6  C6  UNL     1      32.635   4.111  48.191  1.00  0.00     0.029 A 
HETATM    7  C7  UNL     1      32.072   5.293  47.723  1.00  0.00     0.035 A 
HETATM    8  C23 UNL     1      32.264   5.536  46.355  1.00  0.00     0.050 A 
ENDROOT
BRANCH   7   9
HETATM    9  N1  UNL     1      31.322   6.296  48.387  1.00  0.00    -0.340 N 
HETATM   10  H5  UNL     1      32.172   6.693  48.823  1.00  0.00     0.167 HD
BRANCH   9  11
HETATM   11  C8  UNL     1      29.917   6.321  48.228  1.00  0.00     0.144 A 
HETATM   12  N2  UNL     1      29.311   5.177  48.575  1.00  0.00    -0.223 NA
HETATM   13  C9  UNL     1      27.980   5.026  48.531  1.00  0.00     0.236 A 
HETATM   14  N3  UNL     1      27.296   6.105  48.116  1.00  0.00    -0.241 NA
HETATM   15  C10 UNL     1      27.840   7.271  47.757  1.00  0.00     0.073 A 
HETATM   16  C11 UNL     1      26.933   8.191  47.381  1.00  0.00     0.032 C 
HETATM   17  C18 UNL     1      29.208   7.416  47.802  1.00  0.00     0.070 A 
HETATM   18  C19 UNL     1      29.772   8.511  47.381  1.00  0.00     0.086 C 
HETATM   19  C20 UNL     1      31.116   9.065  47.162  1.00  0.00     0.233 C 
HETATM   20  O4  UNL     1      28.992   9.575  46.987  1.00  0.00    -0.350 OA
HETATM   21  O3  UNL     1      31.414   9.831  48.288  1.00  0.00    -0.383 OA
HETATM   22  C21 UNL     1      30.508  10.888  48.399  1.00  0.00     0.194 C 
HETATM   23  C22 UNL     1      29.423  10.884  47.374  1.00  0.00     0.201 C 
BRANCH  16  24
HETATM   24  C12 UNL     1      25.517   7.752  47.433  1.00  0.00     0.198 C 
BRANCH  24  25
HETATM   25  O1  UNL     1      24.844   8.344  48.449  1.00  0.00    -0.382 OA
BRANCH  25  26
HETATM   26  C13 UNL     1      23.693   7.749  48.859  1.00  0.00     0.125 C 
HETATM   27  C14 UNL     1      23.497   7.721  50.354  1.00  0.00     0.058 C 
HETATM   28  C15 UNL     1      24.596   6.891  51.010  1.00  0.00     0.170 C 
HETATM   29  O2  UNL     1      24.726   5.694  50.352  1.00  0.00    -0.391 OA
HETATM   30  C16 UNL     1      23.678   5.380  49.518  1.00  0.00     0.170 C 
HETATM   31  C17 UNL     1      23.506   6.345  48.363  1.00  0.00     0.058 C 
ENDBRANCH  25  26
ENDBRANCH  24  25
ENDBRANCH  16  24
ENDBRANCH   9  11
ENDBRANCH   7   9
TORSDOF 5
ENDMDL
MODEL 7
REMARK VINA RESULT:      -8.0      4.527      9.741
REMARK  5 active torsions:
REMARK  status: ('A' for Active; 'I' for Inactive)
REMARK    1  A    between atoms: C7_7  and  N1_8 
REMARK    2  A    between atoms: N1_8  and  C8_9 
REMARK    3  A    between atoms: C11_14  and  C12_15 
REMARK    4  A    between atoms: C12_15  and  O1_16 
REMARK    5  A    between atoms: O1_16  and  C13_17 
ROOT
HETATM    1  C1  UNL     1      20.682   0.108  51.822  1.00  0.00     0.018 C 
HETATM    2  C2  UNL     1      21.386   0.812  51.149  1.00  0.00    -0.078 C 
HETATM    3  C3  UNL     1      22.243   1.671  50.357  1.00  0.00     0.019 A 
HETATM    4  C4  UNL     1      21.933   1.724  49.021  1.00  0.00     0.021 A 
HETATM    5  C5  UNL     1      22.660   2.498  48.152  1.00  0.00     0.004 A 
HETATM    6  C6  UNL     1      23.691   3.197  48.691  1.00  0.00     0.029 A 
HETATM    7  C7  UNL     1      24.080   3.208  50.026  1.00  0.00     0.035 A 
HETATM    8  C23 UNL     1      23.305   2.400  50.872  1.00  0.00     0.050 A 
ENDROOT
BRANCH   7   9
HETATM    9  N1  UNL     1      25.138   3.885  50.684  1.00  0.00    -0.340 N 
HETATM   10  H5  UNL     1      24.850   3.512  51.605  1.00  0.00     0.167 HD
BRANCH   9  11
HETATM   11  C8  UNL     1      26.009   4.699  49.925  1.00  0.00     0.144 A 
HETATM   12  N2  UNL     1      27.047   4.037  49.394  1.00  0.00    -0.223 NA
HETATM   13  C9  UNL     1      27.956   4.633  48.610  1.00  0.00     0.236 A 
HETATM   14  N3  UNL     1      27.751   5.943  48.392  1.00  0.00    -0.241 NA
HETATM   15  C10 UNL     1      26.741   6.658  48.892  1.00  0.00     0.073 A 
HETATM   16  C11 UNL     1      26.766   7.951  48.521  1.00  0.00     0.032 C 
HETATM   17  C18 UNL     1      25.813   6.038  49.699  1.00  0.00     0.070 A 
HETATM   18  C19 UNL     1      24.864   6.725  50.266  1.00  0.00     0.086 C 
HETATM   19  C20 UNL     1      23.762   6.537  51.220  1.00  0.00     0.233 C 
HETATM   20  O4  UNL     1      24.719   8.063  49.974  1.00  0.00    -0.350 OA
HETATM   21  O3  UNL     1      22.610   6.349  50.458  1.00  0.00    -0.383 OA
HETATM   22  C21 UNL     1      22.351   7.491  49.697  1.00  0.00     0.194 C 
HETATM   23  C22 UNL     1      23.387   8.559  49.811  1.00  0.00     0.201 C 
BRANCH  16  24
HETATM   24  C12 UNL     1      27.893   8.342  47.639  1.00  0.00     0.198 C 
BRANCH  24  25
HETATM   25  O1  UNL     1      28.547   9.430  48.111  1.00  0.00    -0.382 OA
BRANCH  25  26
HETATM   26  C13 UNL     1      29.544   9.213  49.008  1.00  0.00     0.125 C 
HETATM   27  C14 UNL     1      30.407  10.416  49.293  1.00  0.00     0.058 C 
HETATM   28  C15 UNL     1      31.137  10.850  48.026  1.00  0.00     0.170 C 
HETATM   29  O2  UNL     1      31.724   9.759  47.436  1.00  0.00    -0.391 OA
HETATM   30  C16 UNL     1      31.811   8.647  48.241  1.00  0.00     0.170 C 
HETATM   31  C17 UNL     1      30.466   8.083  48.652  1.00  0.00     0.058 C 
ENDBRANCH  25  26
ENDBRANCH  24  25
ENDBRANCH  16  24
ENDBRANCH   9  11
ENDBRANCH   7   9
TORSDOF 5
ENDMDL
MODEL 8
REMARK VINA RESULT:      -7.9      3.968      9.064
REMARK  5 active torsions:
REMARK  status: ('A' for Active; 'I' for Inactive)
REMARK    1  A    between atoms: C7_7  and  N1_8 
REMARK    2  A    between atoms: N1_8  and  C8_9 
REMARK    3  A    between atoms: C11_14  and  C12_15 
REMARK    4  A    between atoms: C12_15  and  O1_16 
REMARK    5  A    between atoms: O1_16  and  C13_17 
ROOT
HETATM    1  C1  UNL     1      21.446  -1.217  54.098  1.00  0.00     0.018 C 
HETATM    2  C2  UNL     1      21.627  -0.445  53.194  1.00  0.00    -0.078 C 
HETATM    3  C3  UNL     1      21.851   0.502  52.122  1.00  0.00     0.019 A 
HETATM    4  C4  UNL     1      21.305   0.148  50.914  1.00  0.00     0.021 A 
HETATM    5  C5  UNL     1      21.439   0.952  49.809  1.00  0.00     0.004 A 
HETATM    6  C6  UNL     1      22.136   2.102  49.986  1.00  0.00     0.029 A 
HETATM    7  C7  UNL     1      22.724   2.545  51.166  1.00  0.00     0.035 A 
HETATM    8  C23 UNL     1      22.558   1.688  52.264  1.00  0.00     0.050 A 
ENDROOT
BRANCH   7   9
HETATM    9  N1  UNL     1      23.476   3.712  51.453  1.00  0.00    -0.340 N 
HETATM   10  H5  UNL     1      22.764   4.050  52.122  1.00  0.00     0.167 HD
BRANCH   9  11
HETATM   11  C8  UNL     1      24.703   3.920  50.781  1.00  0.00     0.144 A 
HETATM   12  N2  UNL     1      25.509   2.849  50.780  1.00  0.00    -0.223 NA
HETATM   13  C9  UNL     1      26.696   2.845  50.156  1.00  0.00     0.236 A 
HETATM   14  N3  UNL     1      27.018   3.989  49.532  1.00  0.00    -0.241 NA
HETATM   15  C10 UNL     1      26.261   5.088  49.498  1.00  0.00     0.073 A 
HETATM   16  C11 UNL     1      26.815   6.098  48.803  1.00  0.00     0.032 C 
HETATM   17  C18 UNL     1      25.045   5.085  50.143  1.00  0.00     0.070 A 
HETATM   18  C19 UNL     1      24.321   6.166  50.197  1.00  0.00     0.086 C 
HETATM   19  C20 UNL     1      23.074   6.650  50.806  1.00  0.00     0.233 C 
HETATM   20  O4  UNL     1      24.722   7.293  49.513  1.00  0.00    -0.350 OA
HETATM   21  O3  UNL     1      22.087   6.530  49.829  1.00  0.00    -0.383 OA
HETATM   22  C21 UNL     1      22.396   7.345  48.738  1.00  0.00     0.194 C 
HETATM   23  C22 UNL     1      23.708   8.047  48.842  1.00  0.00     0.201 C 
BRANCH  16  24
HETATM   24  C12 UNL     1      28.145   5.814  48.211  1.00  0.00     0.198 C 
BRANCH  24  25
HETATM   25  O1  UNL     1      29.057   6.758  48.546  1.00  0.00    -0.382 OA
BRANCH  25  26
HETATM   26  C13 UNL     1      29.300   7.735  47.634  1.00  0.00     0.125 C 
HETATM   27  C14 UNL     1      30.717   7.775  47.118  1.00  0.00     0.058 C 
HETATM   28  C15 UNL     1      31.682   8.084  48.259  1.00  0.00     0.170 C 
HETATM   29  O2  UNL     1      31.222   9.163  48.971  1.00  0.00    -0.391 OA
HETATM   30  C16 UNL     1      30.243   9.894  48.340  1.00  0.00     0.170 C 
HETATM   31  C17 UNL     1      28.962   9.121  48.101  1.00  0.00     0.058 C 
ENDBRANCH  25  26
ENDBRANCH  24  25
ENDBRANCH  16  24
ENDBRANCH   9  11
ENDBRANCH   7   9
TORSDOF 5
ENDMDL
MODEL 9
REMARK VINA RESULT:      -7.9     11.128     14.345
REMARK  5 active torsions:
REMARK  status: ('A' for Active; 'I' for Inactive)
REMARK    1  A    between atoms: C7_7  and  N1_8 
REMARK    2  A    between atoms: N1_8  and  C8_9 
REMARK    3  A    between atoms: C11_14  and  C12_15 
REMARK    4  A    between atoms: C12_15  and  O1_16 
REMARK    5  A    between atoms: O1_16  and  C13_17 
ROOT
HETATM    1  C1  UNL     1      30.281  12.802  49.228  1.00  0.00     0.018 C 
HETATM    2  C2  UNL     1      30.355  11.628  48.982  1.00  0.00    -0.078 C 
HETATM    3  C3  UNL     1      30.465  10.217  48.673  1.00  0.00     0.019 A 
HETATM    4  C4  UNL     1      29.332   9.482  48.916  1.00  0.00     0.021 A 
HETATM    5  C5  UNL     1      29.293   8.132  48.669  1.00  0.00     0.004 A 
HETATM    6  C6  UNL     1      30.430   7.580  48.177  1.00  0.00     0.029 A 
HETATM    7  C7  UNL     1      31.623   8.239  47.899  1.00  0.00     0.035 A 
HETATM    8  C23 UNL     1      31.610   9.616  48.170  1.00  0.00     0.050 A 
ENDROOT
BRANCH   7   9
HETATM    9  N1  UNL     1      32.860   7.760  47.401  1.00  0.00    -0.340 N 
HETATM   10  H5  UNL     1      33.314   7.870  48.324  1.00  0.00     0.167 HD
BRANCH   9  11
HETATM   11  C8  UNL     1      32.960   7.407  46.035  1.00  0.00     0.144 A 
HETATM   12  N2  UNL     1      32.932   8.456  45.200  1.00  0.00    -0.223 NA
HETATM   13  C9  UNL     1      33.056   8.321  43.873  1.00  0.00     0.236 A 
HETATM   14  N3  UNL     1      33.212   7.059  43.438  1.00  0.00    -0.241 NA
HETATM   15  C10 UNL     1      33.246   5.975  44.217  1.00  0.00     0.073 A 
HETATM   16  C11 UNL     1      33.414   4.830  43.531  1.00  0.00     0.032 C 
HETATM   17  C18 UNL     1      33.116   6.123  45.580  1.00  0.00     0.070 A 
HETATM   18  C19 UNL     1      33.064   5.079  46.357  1.00  0.00     0.086 C 
HETATM   19  C20 UNL     1      32.856   4.748  47.774  1.00  0.00     0.233 C 
HETATM   20  O4  UNL     1      33.249   3.822  45.827  1.00  0.00    -0.350 OA
HETATM   21  O3  UNL     1      34.123   4.590  48.331  1.00  0.00    -0.383 OA
HETATM   22  C21 UNL     1      34.785   3.525  47.716  1.00  0.00     0.194 C 
HETATM   23  C22 UNL     1      34.035   2.899  46.588  1.00  0.00     0.201 C 
BRANCH  16  24
HETATM   24  C12 UNL     1      33.527   4.975  42.060  1.00  0.00     0.198 C 
BRANCH  24  25
HETATM   25  O1  UNL     1      32.812   4.030  41.405  1.00  0.00    -0.382 OA
BRANCH  25  26
HETATM   26  C13 UNL     1      33.231   3.690  40.157  1.00  0.00     0.125 C 
HETATM   27  C14 UNL     1      32.122   3.369  39.187  1.00  0.00     0.058 C 
HETATM   28  C15 UNL     1      31.346   2.144  39.665  1.00  0.00     0.170 C 
HETATM   29  O2  UNL     1      32.224   1.144  39.997  1.00  0.00    -0.391 OA
HETATM   30  C16 UNL     1      33.507   1.326  39.535  1.00  0.00     0.170 C 
HETATM   31  C17 UNL     1      34.198   2.543  40.116  1.00  0.00     0.058 C 
ENDBRANCH  25  26
ENDBRANCH  24  25
ENDBRANCH  16  24
ENDBRANCH   9  11
ENDBRANCH   7   9
TORSDOF 5
ENDMDL
