MODEL 1
REMARK VINA RESULT:      -9.5      0.000      0.000
REMARK  4 active torsions:
REMARK  status: ('A' for Active; 'I' for Inactive)
REMARK    1  A    between atoms: C5_7  and  O1_8 
REMARK    2  A    between atoms: C7_10  and  O2_11 
REMARK    3  A    between atoms: C17_22  and  C18_23 
REMARK       I    between atoms: C18_23  and  N4_25 
REMARK    4  A    between atoms: N4_25  and  C19_26 
ROOT
HETATM    1  C1  UNL     1      21.919   5.605  51.981  1.00  0.00     0.066 C 
HETATM    2  C2  UNL     1      21.419   4.337  51.389  1.00  0.00     0.027 C 
HETATM    3  N1  UNL     1      20.179   4.048  51.046  1.00  0.00    -0.227 NA
HETATM    4  C3  UNL     1      19.547   2.896  51.642  1.00  0.00     0.202 C 
HETATM    5  N2  UNL     1      20.446   2.402  52.436  1.00  0.00    -0.247 NA
HETATM    6  C4  UNL     1      21.721   1.947  51.852  1.00  0.00     0.186 C 
HETATM    7  C5  UNL     1      22.572   1.479  52.940  1.00  0.00     0.071 C 
HETATM    8  C6  UNL     1      21.987   0.479  53.627  1.00  0.00     0.066 C 
HETATM    9  C7  UNL     1      21.083  -0.571  54.151  1.00  0.00     0.050 C 
HETATM   10  C8  UNL     1      19.918  -0.675  53.458  1.00  0.00     0.054 C 
HETATM   11  C9  UNL     1      18.568  -1.192  53.093  1.00  0.00    -0.007 C 
HETATM   12  C10 UNL     1      18.394  -0.357  52.030  1.00  0.00     0.058 C 
HETATM   13  C11 UNL     1      17.390  -0.047  50.981  1.00  0.00    -0.031 A 
HETATM   14  C12 UNL     1      16.475  -0.709  50.173  1.00  0.00     0.009 A 
HETATM   15  C13 UNL     1      15.635  -0.111  49.277  1.00  0.00     0.001 A 
HETATM   16  C14 UNL     1      15.667   1.235  49.137  1.00  0.00     0.002 A 
HETATM   17  C15 UNL     1      16.560   1.933  49.916  1.00  0.00     0.024 A 
HETATM   18  C16 UNL     1      17.447   1.363  50.853  1.00  0.00     0.022 A 
HETATM   19  N3  UNL     1      18.293   2.269  51.543  1.00  0.00    -0.227 NA
HETATM   20  C17 UNL     1      22.194   3.085  51.029  1.00  0.00     0.157 C 
HETATM   21  H15 UNL     1      18.867   1.890  50.717  1.00  0.00     0.137 HD
ENDROOT
BRANCH  20  22
HETATM   22  C18 UNL     1      23.636   3.317  50.946  1.00  0.00     0.234 C 
HETATM   23  O3  UNL     1      24.890   3.331  51.226  1.00  0.00    -0.272 OA
HETATM   24  N4  UNL     1      23.880   4.020  49.689  1.00  0.00    -0.326 N 
HETATM   25  H17 UNL     1      23.311   4.393  48.851  1.00  0.00     0.169 HD
BRANCH  24  26
HETATM   26  C19 UNL     1      25.229   4.392  49.324  1.00  0.00     0.034 A 
HETATM   27  C20 UNL     1      26.310   3.504  49.330  1.00  0.00     0.030 A 
HETATM   28  C21 UNL     1      27.516   4.024  48.958  1.00  0.00     0.009 A 
HETATM   29  C22 UNL     1      27.710   5.333  48.589  1.00  0.00    -0.062 A 
HETATM   30  C23 UNL     1      29.028   5.875  48.187  1.00  0.00     0.048 C 
HETATM   31  C24 UNL     1      26.639   6.217  48.583  1.00  0.00     0.009 A 
HETATM   32  C25 UNL     1      25.407   5.707  48.959  1.00  0.00     0.030 A 
ENDBRANCH  24  26
ENDBRANCH  20  22
BRANCH   7  33
HETATM   33  O1  UNL     1      23.783   2.105  53.087  1.00  0.00    -0.363 OA
HETATM   34  H5  UNL     1      23.943   2.857  53.754  1.00  0.00     0.217 HD
ENDBRANCH   7  33
BRANCH   9  35
HETATM   35  O2  UNL     1      21.656  -1.236  55.278  1.00  0.00    -0.364 OA
HETATM   36  H7  UNL     1      21.890  -0.646  56.082  1.00  0.00     0.217 HD
ENDBRANCH   9  35
TORSDOF 4
ENDMDL
MODEL 2
REMARK VINA RESULT:      -9.5      3.092      4.443
REMARK  4 active torsions:
REMARK  status: ('A' for Active; 'I' for Inactive)
REMARK    1  A    between atoms: C5_7  and  O1_8 
REMARK    2  A    between atoms: C7_10  and  O2_11 
REMARK    3  A    between atoms: C17_22  and  C18_23 
REMARK       I    between atoms: C18_23  and  N4_25 
REMARK    4  A    between atoms: N4_25  and  C19_26 
ROOT
HETATM    1  C1  UNL     1      24.292   5.535  51.073  1.00  0.00     0.066 C 
HETATM    2  C2  UNL     1      24.065   4.068  51.148  1.00  0.00     0.027 C 
HETATM    3  N1  UNL     1      23.032   3.444  51.677  1.00  0.00    -0.227 NA
HETATM    4  C3  UNL     1      23.266   2.490  52.734  1.00  0.00     0.202 C 
HETATM    5  N2  UNL     1      24.551   2.500  52.907  1.00  0.00    -0.247 NA
HETATM    6  C4  UNL     1      25.412   2.115  51.773  1.00  0.00     0.186 C 
HETATM    7  C5  UNL     1      26.801   2.247  52.199  1.00  0.00     0.071 C 
HETATM    8  C6  UNL     1      27.062   1.474  53.270  1.00  0.00     0.066 C 
HETATM    9  C7  UNL     1      27.011   0.535  54.416  1.00  0.00     0.050 C 
HETATM   10  C8  UNL     1      25.788  -0.034  54.592  1.00  0.00     0.054 C 
HETATM   11  C9  UNL     1      24.741  -0.894  55.213  1.00  0.00    -0.007 C 
HETATM   12  C10 UNL     1      23.758  -0.553  54.333  1.00  0.00     0.058 C 
HETATM   13  C11 UNL     1      22.327  -0.843  54.059  1.00  0.00    -0.031 A 
HETATM   14  C12 UNL     1      21.445  -1.915  54.101  1.00  0.00     0.009 A 
HETATM   15  C13 UNL     1      20.116  -1.855  53.794  1.00  0.00     0.001 A 
HETATM   16  C14 UNL     1      19.576  -0.674  53.416  1.00  0.00     0.002 A 
HETATM   17  C15 UNL     1      20.413   0.416  53.357  1.00  0.00     0.024 A 
HETATM   18  C16 UNL     1      21.790   0.407  53.663  1.00  0.00     0.022 A 
HETATM   19  N3  UNL     1      22.469   1.645  53.524  1.00  0.00    -0.227 NA
HETATM   20  C17 UNL     1      24.943   2.943  50.637  1.00  0.00     0.157 C 
HETATM   21  H15 UNL     1      22.633   1.108  52.608  1.00  0.00     0.137 HD
ENDROOT
BRANCH  20  22
HETATM   22  C18 UNL     1      25.938   3.398  49.666  1.00  0.00     0.234 C 
HETATM   23  O3  UNL     1      26.830   3.404  48.740  1.00  0.00    -0.272 OA
HETATM   24  N4  UNL     1      26.015   4.852  49.789  1.00  0.00    -0.326 N 
HETATM   25  H17 UNL     1      25.558   5.636  50.373  1.00  0.00     0.169 HD
BRANCH  24  26
HETATM   26  C19 UNL     1      26.925   5.596  48.947  1.00  0.00     0.034 A 
HETATM   27  C20 UNL     1      28.265   5.244  48.745  1.00  0.00     0.030 A 
HETATM   28  C21 UNL     1      28.981   6.061  47.919  1.00  0.00     0.009 A 
HETATM   29  C22 UNL     1      28.467   7.173  47.297  1.00  0.00    -0.062 A 
HETATM   30  C23 UNL     1      29.263   8.043  46.403  1.00  0.00     0.048 C 
HETATM   31  C24 UNL     1      27.138   7.525  47.496  1.00  0.00     0.009 A 
HETATM   32  C25 UNL     1      26.395   6.708  48.333  1.00  0.00     0.030 A 
ENDBRANCH  24  26
ENDBRANCH  20  22
BRANCH   7  33
HETATM   33  O1  UNL     1      27.589   3.101  51.472  1.00  0.00    -0.363 OA
HETATM   34  H5  UNL     1      28.230   3.766  51.899  1.00  0.00     0.217 HD
ENDBRANCH   7  33
BRANCH   9  35
HETATM   35  O2  UNL     1      28.276   0.448  55.074  1.00  0.00    -0.364 OA
HETATM   36  H7  UNL     1      28.852   1.295  55.060  1.00  0.00     0.217 HD
ENDBRANCH   9  35
TORSDOF 4
ENDMDL
MODEL 3
REMARK VINA RESULT:      -9.3      1.681      2.505
REMARK  4 active torsions:
REMARK  status: ('A' for Active; 'I' for Inactive)
REMARK    1  A    between atoms: C5_7  and  O1_8 
REMARK    2  A    between atoms: C7_10  and  O2_11 
REMARK    3  A    between atoms: C17_22  and  C18_23 
REMARK       I    between atoms: C18_23  and  N4_25 
REMARK    4  A    between atoms: N4_25  and  C19_26 
ROOT
HETATM    1  C1  UNL     1      24.254   6.035  52.011  1.00  0.00     0.066 C 
HETATM    2  C2  UNL     1      23.621   4.784  51.517  1.00  0.00     0.027 C 
HETATM    3  N1  UNL     1      22.341   4.469  51.545  1.00  0.00    -0.227 NA
HETATM    4  C3  UNL     1      21.940   3.263  52.228  1.00  0.00     0.202 C 
HETATM    5  N2  UNL     1      23.045   2.759  52.682  1.00  0.00    -0.247 NA
HETATM    6  C4  UNL     1      24.092   2.384  51.713  1.00  0.00     0.186 C 
HETATM    7  C5  UNL     1      25.241   1.888  52.463  1.00  0.00     0.071 C 
HETATM    8  C6  UNL     1      24.909   0.830  53.228  1.00  0.00     0.066 C 
HETATM    9  C7  UNL     1      24.225  -0.280  53.931  1.00  0.00     0.050 C 
HETATM   10  C8  UNL     1      22.906  -0.388  53.614  1.00  0.00     0.054 C 
HETATM   11  C9  UNL     1      21.519  -0.933  53.640  1.00  0.00    -0.007 C 
HETATM   12  C10 UNL     1      21.017  -0.046  52.735  1.00  0.00     0.058 C 
HETATM   13  C11 UNL     1      19.737   0.285  52.058  1.00  0.00    -0.031 A 
HETATM   14  C12 UNL     1      18.633  -0.364  51.522  1.00  0.00     0.009 A 
HETATM   15  C13 UNL     1      17.551   0.252  50.960  1.00  0.00     0.001 A 
HETATM   16  C14 UNL     1      17.514   1.603  50.904  1.00  0.00     0.002 A 
HETATM   17  C15 UNL     1      18.588   2.289  51.421  1.00  0.00     0.024 A 
HETATM   18  C16 UNL     1      19.727   1.701  52.010  1.00  0.00     0.022 A 
HETATM   19  N3  UNL     1      20.726   2.598  52.470  1.00  0.00    -0.227 NA
HETATM   20  C17 UNL     1      24.273   3.583  50.861  1.00  0.00     0.157 C 
HETATM   21  H15 UNL     1      21.030   2.287  51.487  1.00  0.00     0.137 HD
ENDROOT
BRANCH  20  22
HETATM   22  C18 UNL     1      25.618   3.872  50.363  1.00  0.00     0.234 C 
HETATM   23  O3  UNL     1      26.886   3.811  50.159  1.00  0.00    -0.272 OA
HETATM   24  N4  UNL     1      25.502   5.027  49.476  1.00  0.00    -0.326 N 
HETATM   25  H17 UNL     1      24.731   5.686  49.108  1.00  0.00     0.169 HD
BRANCH  24  26
HETATM   26  C19 UNL     1      26.681   5.553  48.825  1.00  0.00     0.034 A 
HETATM   27  C20 UNL     1      27.865   4.828  48.651  1.00  0.00     0.030 A 
HETATM   28  C21 UNL     1      28.881   5.481  48.015  1.00  0.00     0.009 A 
HETATM   29  C22 UNL     1      28.798   6.772  47.553  1.00  0.00    -0.062 A 
HETATM   30  C23 UNL     1      29.913   7.460  46.864  1.00  0.00     0.048 C 
HETATM   31  C24 UNL     1      27.624   7.495  47.724  1.00  0.00     0.009 A 
HETATM   32  C25 UNL     1      26.582   6.848  48.369  1.00  0.00     0.030 A 
ENDBRANCH  24  26
ENDBRANCH  20  22
BRANCH   7  33
HETATM   33  O1  UNL     1      26.428   2.549  52.279  1.00  0.00    -0.363 OA
HETATM   34  H5  UNL     1      26.693   2.980  51.396  1.00  0.00     0.217 HD
ENDBRANCH   7  33
BRANCH   9  35
HETATM   35  O2  UNL     1      25.124  -0.986  54.788  1.00  0.00    -0.364 OA
HETATM   36  H7  UNL     1      26.095  -1.054  54.467  1.00  0.00     0.217 HD
ENDBRANCH   9  35
TORSDOF 4
ENDMDL
MODEL 4
REMARK VINA RESULT:      -9.2      3.596      4.653
REMARK  4 active torsions:
REMARK  status: ('A' for Active; 'I' for Inactive)
REMARK    1  A    between atoms: C5_7  and  O1_8 
REMARK    2  A    between atoms: C7_10  and  O2_11 
REMARK    3  A    between atoms: C17_22  and  C18_23 
REMARK       I    between atoms: C18_23  and  N4_25 
REMARK    4  A    between atoms: N4_25  and  C19_26 
ROOT
HETATM    1  C1  UNL     1      23.776   4.369  53.486  1.00  0.00     0.066 C 
HETATM    2  C2  UNL     1      23.277   3.737  52.237  1.00  0.00     0.027 C 
HETATM    3  N1  UNL     1      22.695   4.332  51.214  1.00  0.00    -0.227 NA
HETATM    4  C3  UNL     1      21.377   3.899  50.820  1.00  0.00     0.202 C 
HETATM    5  N2  UNL     1      21.079   2.951  51.653  1.00  0.00    -0.247 NA
HETATM    6  C4  UNL     1      21.940   1.755  51.688  1.00  0.00     0.186 C 
HETATM    7  C5  UNL     1      21.430   0.864  52.724  1.00  0.00     0.071 C 
HETATM    8  C6  UNL     1      20.150   0.515  52.487  1.00  0.00     0.066 C 
HETATM    9  C7  UNL     1      18.784   0.337  51.942  1.00  0.00     0.050 C 
HETATM   10  C8  UNL     1      18.573   1.015  50.783  1.00  0.00     0.054 C 
HETATM   11  C9  UNL     1      17.833   1.512  49.588  1.00  0.00    -0.007 C 
HETATM   12  C10 UNL     1      18.874   2.231  49.083  1.00  0.00     0.058 C 
HETATM   13  C11 UNL     1      19.197   3.105  47.927  1.00  0.00    -0.031 A 
HETATM   14  C12 UNL     1      18.922   3.197  46.569  1.00  0.00     0.009 A 
HETATM   15  C13 UNL     1      19.373   4.182  45.737  1.00  0.00     0.001 A 
HETATM   16  C14 UNL     1      20.152   5.167  46.239  1.00  0.00     0.002 A 
HETATM   17  C15 UNL     1      20.454   5.116  47.579  1.00  0.00     0.024 A 
HETATM   18  C16 UNL     1      20.015   4.122  48.479  1.00  0.00     0.022 A 
HETATM   19  N3  UNL     1      20.455   4.256  49.822  1.00  0.00    -0.227 NA
HETATM   20  C17 UNL     1      23.319   2.278  51.827  1.00  0.00     0.157 C 
HETATM   21  H15 UNL     1      21.138   3.575  49.348  1.00  0.00     0.137 HD
ENDROOT
BRANCH  20  22
HETATM   22  C18 UNL     1      24.271   1.496  52.617  1.00  0.00     0.234 C 
HETATM   23  O3  UNL     1      24.806   0.827  53.574  1.00  0.00    -0.272 OA
HETATM   24  N4  UNL     1      25.468   1.332  51.795  1.00  0.00    -0.326 N 
HETATM   25  H17 UNL     1      25.817   1.616  50.814  1.00  0.00     0.169 HD
BRANCH  24  26
HETATM   26  C19 UNL     1      26.598   0.594  52.313  1.00  0.00     0.034 A 
HETATM   27  C20 UNL     1      26.679  -0.803  52.324  1.00  0.00     0.030 A 
HETATM   28  C21 UNL     1      27.820  -1.335  52.852  1.00  0.00     0.009 A 
HETATM   29  C22 UNL     1      28.857  -0.588  53.355  1.00  0.00    -0.062 A 
HETATM   30  C23 UNL     1      30.087  -1.187  53.922  1.00  0.00     0.048 C 
HETATM   31  C24 UNL     1      28.781   0.799  53.346  1.00  0.00     0.009 A 
HETATM   32  C25 UNL     1      27.629   1.357  52.814  1.00  0.00     0.030 A 
ENDBRANCH  24  26
ENDBRANCH  20  22
BRANCH   7  33
HETATM   33  O1  UNL     1      22.296   0.536  53.735  1.00  0.00    -0.363 OA
HETATM   34  H5  UNL     1      22.304   1.009  54.636  1.00  0.00     0.217 HD
ENDBRANCH   7  33
BRANCH   9  35
HETATM   35  O2  UNL     1      17.999  -0.518  52.777  1.00  0.00    -0.364 OA
HETATM   36  H7  UNL     1      17.047  -0.716  52.454  1.00  0.00     0.217 HD
ENDBRANCH   9  35
TORSDOF 4
ENDMDL
MODEL 5
REMARK VINA RESULT:      -9.2      3.743      7.023
REMARK  4 active torsions:
REMARK  status: ('A' for Active; 'I' for Inactive)
REMARK    1  A    between atoms: C5_7  and  O1_8 
REMARK    2  A    between atoms: C7_10  and  O2_11 
REMARK    3  A    between atoms: C17_22  and  C18_23 
REMARK       I    between atoms: C18_23  and  N4_25 
REMARK    4  A    between atoms: N4_25  and  C19_26 
ROOT
HETATM    1  C1  UNL     1      22.803   2.991  48.723  1.00  0.00     0.066 C 
HETATM    2  C2  UNL     1      23.374   2.925  50.093  1.00  0.00     0.027 C 
HETATM    3  N1  UNL     1      24.560   2.469  50.445  1.00  0.00    -0.227 NA
HETATM    4  C3  UNL     1      24.632   1.392  51.402  1.00  0.00     0.202 C 
HETATM    5  N2  UNL     1      23.396   1.126  51.691  1.00  0.00    -0.247 NA
HETATM    6  C4  UNL     1      22.574   2.191  52.293  1.00  0.00     0.186 C 
HETATM    7  C5  UNL     1      21.226   1.666  52.482  1.00  0.00     0.071 C 
HETATM    8  C6  UNL     1      21.230   0.573  53.270  1.00  0.00     0.066 C 
HETATM    9  C7  UNL     1      21.581  -0.571  54.143  1.00  0.00     0.050 C 
HETATM   10  C8  UNL     1      22.913  -0.660  54.405  1.00  0.00     0.054 C 
HETATM   11  C9  UNL     1      24.174  -1.208  54.981  1.00  0.00    -0.007 C 
HETATM   12  C10 UNL     1      24.985  -0.257  54.438  1.00  0.00     0.058 C 
HETATM   13  C11 UNL     1      26.421   0.120  54.391  1.00  0.00    -0.031 A 
HETATM   14  C12 UNL     1      27.532   0.137  55.224  1.00  0.00     0.009 A 
HETATM   15  C13 UNL     1      28.785   0.541  54.861  1.00  0.00     0.001 A 
HETATM   16  C14 UNL     1      29.003   0.964  53.595  1.00  0.00     0.002 A 
HETATM   17  C15 UNL     1      27.931   0.968  52.733  1.00  0.00     0.024 A 
HETATM   18  C16 UNL     1      26.619   0.562  53.059  1.00  0.00     0.022 A 
HETATM   19  N3  UNL     1      25.659   0.658  52.019  1.00  0.00    -0.227 NA
HETATM   20  C17 UNL     1      22.753   3.363  51.405  1.00  0.00     0.157 C 
HETATM   21  H15 UNL     1      25.563   1.557  52.600  1.00  0.00     0.137 HD
ENDROOT
BRANCH  20  22
HETATM   22  C18 UNL     1      21.614   4.262  51.218  1.00  0.00     0.234 C 
HETATM   23  O3  UNL     1      20.441   4.783  51.298  1.00  0.00    -0.272 OA
HETATM   24  N4  UNL     1      22.059   5.332  50.329  1.00  0.00    -0.326 N 
HETATM   25  H17 UNL     1      22.956   5.621  49.803  1.00  0.00     0.169 HD
BRANCH  24  26
HETATM   26  C19 UNL     1      21.141   6.384  49.956  1.00  0.00     0.034 A 
HETATM   27  C20 UNL     1      20.102   6.221  49.032  1.00  0.00     0.030 A 
HETATM   28  C21 UNL     1      19.330   7.322  48.796  1.00  0.00     0.009 A 
HETATM   29  C22 UNL     1      19.518   8.539  49.404  1.00  0.00    -0.062 A 
HETATM   30  C23 UNL     1      18.665   9.720  49.134  1.00  0.00     0.048 C 
HETATM   31  C24 UNL     1      20.548   8.705  50.321  1.00  0.00     0.009 A 
HETATM   32  C25 UNL     1      21.343   7.598  50.572  1.00  0.00     0.030 A 
ENDBRANCH  24  26
ENDBRANCH  20  22
BRANCH   7  33
HETATM   33  O1  UNL     1      20.210   2.338  51.853  1.00  0.00    -0.363 OA
HETATM   34  H5  UNL     1      19.900   3.266  52.133  1.00  0.00     0.217 HD
ENDBRANCH   7  33
BRANCH   9  35
HETATM   35  O2  UNL     1      20.422  -1.320  54.510  1.00  0.00    -0.364 OA
HETATM   36  H7  UNL     1      20.429  -2.315  54.264  1.00  0.00     0.217 HD
ENDBRANCH   9  35
TORSDOF 4
ENDMDL
MODEL 6
REMARK VINA RESULT:      -9.1     10.002     13.927
REMARK  4 active torsions:
REMARK  status: ('A' for Active; 'I' for Inactive)
REMARK    1  A    between atoms: C5_7  and  O1_8 
REMARK    2  A    between atoms: C7_10  and  O2_11 
REMARK    3  A    between atoms: C17_22  and  C18_23 
REMARK       I    between atoms: C18_23  and  N4_25 
REMARK    4  A    between atoms: N4_25  and  C19_26 
ROOT
HETATM    1  C1  UNL     1      33.903   8.190  42.380  1.00  0.00     0.066 C 
HETATM    2  C2  UNL     1      32.904   7.387  43.131  1.00  0.00     0.027 C 
HETATM    3  N1  UNL     1      31.860   7.831  43.803  1.00  0.00    -0.227 NA
HETATM    4  C3  UNL     1      31.749   7.506  45.204  1.00  0.00     0.202 C 
HETATM    5  N2  UNL     1      32.805   6.799  45.463  1.00  0.00    -0.247 NA
HETATM    6  C4  UNL     1      32.993   5.531  44.734  1.00  0.00     0.186 C 
HETATM    7  C5  UNL     1      34.260   4.949  45.163  1.00  0.00     0.071 C 
HETATM    8  C6  UNL     1      34.277   4.734  46.492  1.00  0.00     0.066 C 
HETATM    9  C7  UNL     1      33.970   4.632  47.939  1.00  0.00     0.050 C 
HETATM   10  C8  UNL     1      32.726   5.078  48.259  1.00  0.00     0.054 C 
HETATM   11  C9  UNL     1      31.558   5.412  49.123  1.00  0.00    -0.007 C 
HETATM   12  C10 UNL     1      30.773   5.866  48.106  1.00  0.00     0.058 C 
HETATM   13  C11 UNL     1      29.418   6.431  47.881  1.00  0.00    -0.031 A 
HETATM   14  C12 UNL     1      28.122   6.277  48.355  1.00  0.00     0.009 A 
HETATM   15  C13 UNL     1      27.039   7.000  47.943  1.00  0.00     0.001 A 
HETATM   16  C14 UNL     1      27.202   7.954  46.997  1.00  0.00     0.002 A 
HETATM   17  C15 UNL     1      28.468   8.141  46.496  1.00  0.00     0.024 A 
HETATM   18  C16 UNL     1      29.617   7.422  46.887  1.00  0.00     0.022 A 
HETATM   19  N3  UNL     1      30.826   7.770  46.230  1.00  0.00    -0.227 NA
HETATM   20  C17 UNL     1      32.829   5.882  43.304  1.00  0.00     0.157 C 
HETATM   21  H15 UNL     1      30.431   6.920  45.703  1.00  0.00     0.137 HD
ENDROOT
BRANCH  20  22
HETATM   22  C18 UNL     1      33.641   5.160  42.324  1.00  0.00     0.234 C 
HETATM   23  O3  UNL     1      34.650   4.689  41.681  1.00  0.00    -0.272 OA
HETATM   24  N4  UNL     1      32.714   4.485  41.420  1.00  0.00    -0.326 N 
HETATM   25  H17 UNL     1      31.647   4.382  41.289  1.00  0.00     0.169 HD
BRANCH  24  26
HETATM   26  C19 UNL     1      33.227   3.683  40.332  1.00  0.00     0.034 A 
HETATM   27  C20 UNL     1      33.869   4.213  39.207  1.00  0.00     0.030 A 
HETATM   28  C21 UNL     1      34.291   3.309  38.275  1.00  0.00     0.009 A 
HETATM   29  C22 UNL     1      34.121   1.951  38.386  1.00  0.00    -0.062 A 
HETATM   30  C23 UNL     1      34.589   0.989  37.363  1.00  0.00     0.048 C 
HETATM   31  C24 UNL     1      33.484   1.421  39.501  1.00  0.00     0.009 A 
HETATM   32  C25 UNL     1      33.048   2.323  40.458  1.00  0.00     0.030 A 
ENDBRANCH  24  26
ENDBRANCH  20  22
BRANCH   7  33
HETATM   33  O1  UNL     1      35.195   4.724  44.187  1.00  0.00    -0.363 OA
HETATM   34  H5  UNL     1      35.489   5.437  43.523  1.00  0.00     0.217 HD
ENDBRANCH   7  33
BRANCH   9  35
HETATM   35  O2  UNL     1      35.070   4.080  48.665  1.00  0.00    -0.364 OA
HETATM   36  H7  UNL     1      35.964   4.035  48.168  1.00  0.00     0.217 HD
ENDBRANCH   9  35
TORSDOF 4
ENDMDL
MODEL 7
REMARK VINA RESULT:      -8.9      5.616      7.701
REMARK  4 active torsions:
REMARK  status: ('A' for Active; 'I' for Inactive)
REMARK    1  A    between atoms: C5_7  and  O1_8 
REMARK    2  A    between atoms: C7_10  and  O2_11 
REMARK    3  A    between atoms: C17_22  and  C18_23 
REMARK       I    between atoms: C18_23  and  N4_25 
REMARK    4  A    between atoms: N4_25  and  C19_26 
ROOT
HETATM    1  C1  UNL     1      26.904  10.455  46.494  1.00  0.00     0.066 C 
HETATM    2  C2  UNL     1      26.422   9.049  46.521  1.00  0.00     0.027 C 
HETATM    3  N1  UNL     1      25.348   8.560  45.934  1.00  0.00    -0.227 NA
HETATM    4  C3  UNL     1      24.354   7.902  46.747  1.00  0.00     0.202 C 
HETATM    5  N2  UNL     1      24.818   7.975  47.957  1.00  0.00    -0.247 NA
HETATM    6  C4  UNL     1      26.113   7.334  48.247  1.00  0.00     0.186 C 
HETATM    7  C5  UNL     1      26.437   7.588  49.647  1.00  0.00     0.071 C 
HETATM    8  C6  UNL     1      25.482   7.110  50.467  1.00  0.00     0.066 C 
HETATM    9  C7  UNL     1      24.280   6.484  51.067  1.00  0.00     0.050 C 
HETATM   10  C8  UNL     1      23.429   5.958  50.146  1.00  0.00     0.054 C 
HETATM   11  C9  UNL     1      22.220   5.262  49.621  1.00  0.00    -0.007 C 
HETATM   12  C10 UNL     1      22.577   5.359  48.309  1.00  0.00     0.058 C 
HETATM   13  C11 UNL     1      22.072   4.988  46.963  1.00  0.00    -0.031 A 
HETATM   14  C12 UNL     1      21.391   3.946  46.346  1.00  0.00     0.009 A 
HETATM   15  C13 UNL     1      21.035   3.907  45.028  1.00  0.00     0.001 A 
HETATM   16  C14 UNL     1      21.352   4.949  44.225  1.00  0.00     0.002 A 
HETATM   17  C15 UNL     1      22.029   6.003  44.792  1.00  0.00     0.024 A 
HETATM   18  C16 UNL     1      22.420   6.091  46.145  1.00  0.00     0.022 A 
HETATM   19  N3  UNL     1      23.122   7.267  46.517  1.00  0.00    -0.227 NA
HETATM   20  C17 UNL     1      27.037   7.846  47.208  1.00  0.00     0.157 C 
HETATM   21  H15 UNL     1      23.869   6.522  46.314  1.00  0.00     0.137 HD
ENDROOT
BRANCH  20  22
HETATM   22  C18 UNL     1      28.435   8.062  47.581  1.00  0.00     0.234 C 
HETATM   23  O3  UNL     1      29.525   8.622  47.969  1.00  0.00    -0.272 OA
HETATM   24  N4  UNL     1      29.120   6.781  47.416  1.00  0.00    -0.326 N 
HETATM   25  H17 UNL     1      28.882   5.774  47.110  1.00  0.00     0.169 HD
BRANCH  24  26
HETATM   26  C19 UNL     1      30.531   6.679  47.711  1.00  0.00     0.034 A 
HETATM   27  C20 UNL     1      31.042   6.344  48.970  1.00  0.00     0.030 A 
HETATM   28  C21 UNL     1      32.402   6.293  49.072  1.00  0.00     0.009 A 
HETATM   29  C22 UNL     1      33.264   6.546  48.032  1.00  0.00    -0.062 A 
HETATM   30  C23 UNL     1      34.737   6.483  48.166  1.00  0.00     0.048 C 
HETATM   31  C24 UNL     1      32.760   6.879  46.781  1.00  0.00     0.009 A 
HETATM   32  C25 UNL     1      31.381   6.936  46.659  1.00  0.00     0.030 A 
ENDBRANCH  24  26
ENDBRANCH  20  22
BRANCH   7  33
HETATM   33  O1  UNL     1      27.612   8.248  49.897  1.00  0.00    -0.363 OA
HETATM   34  H5  UNL     1      28.298   7.924  50.576  1.00  0.00     0.217 HD
ENDBRANCH   7  33
BRANCH   9  35
HETATM   35  O2  UNL     1      24.299   6.583  52.492  1.00  0.00    -0.364 OA
HETATM   36  H7  UNL     1      23.401   6.781  52.945  1.00  0.00     0.217 HD
ENDBRANCH   9  35
TORSDOF 4
ENDMDL
MODEL 8
REMARK VINA RESULT:      -8.9      3.878      6.105
REMARK  4 active torsions:
REMARK  status: ('A' for Active; 'I' for Inactive)
REMARK    1  A    between atoms: C5_7  and  O1_8 
REMARK    2  A    between atoms: C7_10  and  O2_11 
REMARK    3  A    between atoms: C17_22  and  C18_23 
REMARK       I    between atoms: C18_23  and  N4_25 
REMARK    4  A    between atoms: N4_25  and  C19_26 
ROOT
HETATM    1  C1  UNL     1      23.786   5.296  53.268  1.00  0.00     0.066 C 
HETATM    2  C2  UNL     1      23.811   4.934  51.827  1.00  0.00     0.027 C 
HETATM    3  N1  UNL     1      23.597   5.729  50.797  1.00  0.00    -0.227 NA
HETATM    4  C3  UNL     1      22.540   5.396  49.874  1.00  0.00     0.202 C 
HETATM    5  N2  UNL     1      22.026   4.302  50.343  1.00  0.00    -0.247 NA
HETATM    6  C4  UNL     1      22.894   3.116  50.459  1.00  0.00     0.186 C 
HETATM    7  C5  UNL     1      22.107   2.038  51.046  1.00  0.00     0.071 C 
HETATM    8  C6  UNL     1      21.024   1.755  50.297  1.00  0.00     0.066 C 
HETATM    9  C7  UNL     1      19.958   1.703  49.268  1.00  0.00     0.050 C 
HETATM   10  C8  UNL     1      20.133   2.603  48.265  1.00  0.00     0.054 C 
HETATM   11  C9  UNL     1      19.839   3.339  47.002  1.00  0.00    -0.007 C 
HETATM   12  C10 UNL     1      20.943   4.136  47.059  1.00  0.00     0.058 C 
HETATM   13  C11 UNL     1      21.600   5.224  46.291  1.00  0.00    -0.031 A 
HETATM   14  C12 UNL     1      21.825   5.591  44.971  1.00  0.00     0.009 A 
HETATM   15  C13 UNL     1      22.478   6.721  44.566  1.00  0.00     0.001 A 
HETATM   16  C14 UNL     1      22.959   7.577  45.497  1.00  0.00     0.002 A 
HETATM   17  C15 UNL     1      22.762   7.253  46.818  1.00  0.00     0.024 A 
HETATM   18  C16 UNL     1      22.096   6.101  47.288  1.00  0.00     0.022 A 
HETATM   19  N3  UNL     1      22.015   5.956  48.697  1.00  0.00    -0.227 NA
HETATM   20  C17 UNL     1      24.094   3.588  51.189  1.00  0.00     0.157 C 
HETATM   21  H15 UNL     1      22.867   5.380  48.383  1.00  0.00     0.137 HD
ENDROOT
BRANCH  20  22
HETATM   22  C18 UNL     1      24.749   2.655  52.106  1.00  0.00     0.234 C 
HETATM   23  O3  UNL     1      25.001   1.922  53.132  1.00  0.00    -0.272 OA
HETATM   24  N4  UNL     1      25.983   2.218  51.456  1.00  0.00    -0.326 N 
HETATM   25  H17 UNL     1      26.510   2.390  50.530  1.00  0.00     0.169 HD
BRANCH  24  26
HETATM   26  C19 UNL     1      26.855   1.281  52.128  1.00  0.00     0.034 A 
HETATM   27  C20 UNL     1      26.654  -0.103  52.135  1.00  0.00     0.030 A 
HETATM   28  C21 UNL     1      27.577  -0.840  52.821  1.00  0.00     0.009 A 
HETATM   29  C22 UNL     1      28.656  -0.304  53.480  1.00  0.00    -0.062 A 
HETATM   30  C23 UNL     1      29.646  -1.123  54.216  1.00  0.00     0.048 C 
HETATM   31  C24 UNL     1      28.858   1.070  53.474  1.00  0.00     0.009 A 
HETATM   32  C25 UNL     1      27.932   1.834  52.784  1.00  0.00     0.030 A 
ENDBRANCH  24  26
ENDBRANCH  20  22
BRANCH   7  33
HETATM   33  O1  UNL     1      22.572   1.504  52.220  1.00  0.00    -0.363 OA
HETATM   34  H5  UNL     1      23.474   1.749  52.624  1.00  0.00     0.217 HD
ENDBRANCH   7  33
BRANCH   9  35
HETATM   35  O2  UNL     1      18.985   0.704  49.579  1.00  0.00    -0.364 OA
HETATM   36  H7  UNL     1      19.349  -0.201  49.892  1.00  0.00     0.217 HD
ENDBRANCH   9  35
TORSDOF 4
ENDMDL
MODEL 9
REMARK VINA RESULT:      -8.8      4.110      6.743
REMARK  4 active torsions:
REMARK  status: ('A' for Active; 'I' for Inactive)
REMARK    1  A    between atoms: C5_7  and  O1_8 
REMARK    2  A    between atoms: C7_10  and  O2_11 
REMARK    3  A    between atoms: C17_22  and  C18_23 
REMARK       I    between atoms: C18_23  and  N4_25 
REMARK    4  A    between atoms: N4_25  and  C19_26 
ROOT
HETATM    1  C1  UNL     1      21.123   7.492  50.596  1.00  0.00     0.066 C 
HETATM    2  C2  UNL     1      21.520   6.072  50.404  1.00  0.00     0.027 C 
HETATM    3  N1  UNL     1      21.481   5.102  51.296  1.00  0.00    -0.227 NA
HETATM    4  C3  UNL     1      22.701   4.398  51.606  1.00  0.00     0.202 C 
HETATM    5  N2  UNL     1      23.603   4.957  50.860  1.00  0.00    -0.247 NA
HETATM    6  C4  UNL     1      23.428   4.906  49.396  1.00  0.00     0.186 C 
HETATM    7  C5  UNL     1      24.536   5.633  48.786  1.00  0.00     0.071 C 
HETATM    8  C6  UNL     1      25.724   5.105  49.136  1.00  0.00     0.066 C 
HETATM    9  C7  UNL     1      26.830   4.298  49.704  1.00  0.00     0.050 C 
HETATM   10  C8  UNL     1      26.403   3.279  50.496  1.00  0.00     0.054 C 
HETATM   11  C9  UNL     1      26.500   2.095  51.396  1.00  0.00    -0.007 C 
HETATM   12  C10 UNL     1      25.155   1.940  51.549  1.00  0.00     0.058 C 
HETATM   13  C11 UNL     1      24.184   1.060  52.248  1.00  0.00    -0.031 A 
HETATM   14  C12 UNL     1      24.030  -0.279  52.582  1.00  0.00     0.009 A 
HETATM   15  C13 UNL     1      22.982  -0.802  53.285  1.00  0.00     0.001 A 
HETATM   16  C14 UNL     1      21.994   0.020  53.709  1.00  0.00     0.002 A 
HETATM   17  C15 UNL     1      22.102   1.355  53.399  1.00  0.00     0.024 A 
HETATM   18  C16 UNL     1      23.161   1.943  52.676  1.00  0.00     0.022 A 
HETATM   19  N3  UNL     1      23.068   3.342  52.458  1.00  0.00    -0.227 NA
HETATM   20  C17 UNL     1      22.050   5.393  49.157  1.00  0.00     0.157 C 
HETATM   21  H15 UNL     1      22.679   2.872  51.573  1.00  0.00     0.137 HD
ENDROOT
BRANCH  20  22
HETATM   22  C18 UNL     1      21.800   6.169  47.942  1.00  0.00     0.234 C 
HETATM   23  O3  UNL     1      21.526   7.140  47.145  1.00  0.00    -0.272 OA
HETATM   24  N4  UNL     1      21.952   5.251  46.815  1.00  0.00    -0.326 N 
HETATM   25  H17 UNL     1      22.189   4.212  46.649  1.00  0.00     0.169 HD
BRANCH  24  26
HETATM   26  C19 UNL     1      21.763   5.734  45.465  1.00  0.00     0.034 A 
HETATM   27  C20 UNL     1      22.623   6.639  44.833  1.00  0.00     0.030 A 
HETATM   28  C21 UNL     1      22.292   6.989  43.556  1.00  0.00     0.009 A 
HETATM   29  C22 UNL     1      21.193   6.510  42.885  1.00  0.00    -0.062 A 
HETATM   30  C23 UNL     1      20.855   6.903  41.498  1.00  0.00     0.048 C 
HETATM   31  C24 UNL     1      20.337   5.612  43.510  1.00  0.00     0.009 A 
HETATM   32  C25 UNL     1      20.656   5.246  44.807  1.00  0.00     0.030 A 
ENDBRANCH  24  26
ENDBRANCH  20  22
BRANCH   7  33
HETATM   33  O1  UNL     1      24.207   6.697  47.986  1.00  0.00    -0.363 OA
HETATM   34  H5  UNL     1      23.307   6.784  47.519  1.00  0.00     0.217 HD
ENDBRANCH   7  33
BRANCH   9  35
HETATM   35  O2  UNL     1      28.102   4.789  49.278  1.00  0.00    -0.364 OA
HETATM   36  H7  UNL     1      28.720   5.144  50.014  1.00  0.00     0.217 HD
ENDBRANCH   9  35
TORSDOF 4
ENDMDL
