MODEL 1
REMARK VINA RESULT:      -8.6      0.000      0.000
REMARK  7 active torsions:
REMARK  status: ('A' for Active; 'I' for Inactive)
REMARK    1  A    between atoms: O1_2  and  C2_3 
REMARK    2  A    between atoms: C2_3  and  N4_21 
REMARK    3  A    between atoms: C3_4  and  C4_5 
REMARK    4  A    between atoms: C6_9  and  N3_10 
REMARK    5  A    between atoms: N3_10  and  C7_11 
REMARK    6  A    between atoms: C17_24  and  C18_25 
REMARK    7  A    between atoms: C18_25  and  C19_26 
ROOT
HETATM    1  C4  UNL     1      22.548   0.099  52.747  1.00  0.00     0.072 A 
HETATM    2  N1  UNL     1      22.245   0.708  51.563  1.00  0.00    -0.241 NA
HETATM    3  C5  UNL     1      20.978   0.770  51.122  1.00  0.00     0.235 A 
HETATM    4  N2  UNL     1      19.989   0.235  51.841  1.00  0.00    -0.224 NA
HETATM    5  C6  UNL     1      20.231  -0.371  53.005  1.00  0.00     0.137 A 
HETATM    6  C13 UNL     1      21.521  -0.452  53.484  1.00  0.00     0.013 A 
HETATM    7  C14 UNL     1      21.951  -1.109  54.741  1.00  0.00     0.055 C 
ENDROOT
BRANCH   1   8
HETATM    8  C3  UNL     1      23.952   0.128  53.068  1.00  0.00     0.088 C 
HETATM    9  C2  UNL     1      24.814   1.116  52.917  1.00  0.00     0.141 C 
BRANCH   9  10
HETATM   10  O1  UNL     1      24.975   2.425  52.482  1.00  0.00    -0.341 OA
HETATM   11  C1  UNL     1      24.041   3.411  52.823  1.00  0.00     0.211 C 
ENDBRANCH   9  10
BRANCH   9  12
HETATM   12  N4  UNL     1      26.190   1.027  53.274  1.00  0.00    -0.361 N 
HETATM   13  C15 UNL     1      27.023   2.148  53.740  1.00  0.00     0.125 C 
HETATM   14  C16 UNL     1      28.414   1.647  53.411  1.00  0.00     0.026 C 
HETATM   15  C17 UNL     1      28.281   0.212  53.941  1.00  0.00     0.011 C 
HETATM   16  C20 UNL     1      27.006  -0.199  53.240  1.00  0.00     0.130 C 
BRANCH  15  17
HETATM   17  C18 UNL     1      29.444  -0.649  53.597  1.00  0.00     0.075 C 
BRANCH  17  18
HETATM   18  C19 UNL     1      28.918  -2.013  53.234  1.00  0.00     0.231 C 
HETATM   19  O2  UNL     1      28.895  -3.192  53.553  1.00  0.00    -0.307 OA
ENDBRANCH  17  18
ENDBRANCH  15  17
ENDBRANCH   9  12
ENDBRANCH   1   8
BRANCH   5  20
HETATM   20  N3  UNL     1      19.212  -0.943  53.805  1.00  0.00    -0.340 N 
HETATM   21  H6  UNL     1      19.227  -0.789  54.849  1.00  0.00     0.167 HD
BRANCH  20  22
HETATM   22  C7  UNL     1      18.088  -1.735  53.465  1.00  0.00     0.035 A 
HETATM   23  C8  UNL     1      17.926  -3.058  53.777  1.00  0.00     0.032 A 
HETATM   24  C9  UNL     1      16.834  -3.816  53.445  1.00  0.00     0.046 A 
HETATM   25  C10 UNL     1      15.795  -3.250  52.742  1.00  0.00     0.138 A 
HETATM   26  F1  UNL     1      14.760  -4.072  52.458  1.00  0.00    -0.204 F 
HETATM   27  C11 UNL     1      15.910  -1.926  52.405  1.00  0.00     0.074 A 
HETATM   28 CL1  UNL     1      14.545  -1.267  51.509  1.00  0.00    -0.081 Cl
HETATM   29  C12 UNL     1      17.027  -1.197  52.759  1.00  0.00     0.056 A 
ENDBRANCH  20  22
ENDBRANCH   5  20
TORSDOF 7
ENDMDL
MODEL 2
REMARK VINA RESULT:      -8.0      4.843      9.336
REMARK  7 active torsions:
REMARK  status: ('A' for Active; 'I' for Inactive)
REMARK    1  A    between atoms: O1_2  and  C2_3 
REMARK    2  A    between atoms: C2_3  and  N4_21 
REMARK    3  A    between atoms: C3_4  and  C4_5 
REMARK    4  A    between atoms: C6_9  and  N3_10 
REMARK    5  A    between atoms: N3_10  and  C7_11 
REMARK    6  A    between atoms: C17_24  and  C18_25 
REMARK    7  A    between atoms: C18_25  and  C19_26 
ROOT
HETATM    1  C4  UNL     1      23.235   2.000  50.876  1.00  0.00     0.072 A 
HETATM    2  N1  UNL     1      23.563   2.700  49.750  1.00  0.00    -0.241 NA
HETATM    3  C5  UNL     1      24.747   3.325  49.644  1.00  0.00     0.235 A 
HETATM    4  N2  UNL     1      25.627   3.269  50.646  1.00  0.00    -0.224 NA
HETATM    5  C6  UNL     1      25.357   2.599  51.768  1.00  0.00     0.137 A 
HETATM    6  C13 UNL     1      24.150   1.949  51.906  1.00  0.00     0.013 A 
HETATM    7  C14 UNL     1      23.695   1.186  53.093  1.00  0.00     0.055 C 
ENDROOT
BRANCH   1   8
HETATM    8  C3  UNL     1      21.931   1.390  50.817  1.00  0.00     0.088 C 
HETATM    9  C2  UNL     1      20.756   1.925  51.094  1.00  0.00     0.141 C 
BRANCH   9  10
HETATM   10  O1  UNL     1      20.103   3.077  51.509  1.00  0.00    -0.341 OA
HETATM   11  C1  UNL     1      20.586   4.341  51.149  1.00  0.00     0.211 C 
ENDBRANCH   9  10
BRANCH   9  12
HETATM   12  N4  UNL     1      19.523   1.217  50.998  1.00  0.00    -0.361 N 
HETATM   13  C15 UNL     1      18.557   1.335  49.893  1.00  0.00     0.125 C 
HETATM   14  C16 UNL     1      17.280   0.869  50.559  1.00  0.00     0.026 C 
HETATM   15  C17 UNL     1      17.827  -0.371  51.281  1.00  0.00     0.011 C 
HETATM   16  C20 UNL     1      19.013   0.248  51.983  1.00  0.00     0.130 C 
BRANCH  15  17
HETATM   17  C18 UNL     1      16.845  -0.986  52.215  1.00  0.00     0.075 C 
BRANCH  17  18
HETATM   18  C19 UNL     1      17.616  -1.629  53.337  1.00  0.00     0.231 C 
HETATM   19  O2  UNL     1      18.099  -2.675  53.746  1.00  0.00    -0.307 OA
ENDBRANCH  17  18
ENDBRANCH  15  17
ENDBRANCH   9  12
ENDBRANCH   1   8
BRANCH   5  20
HETATM   20  N3  UNL     1      26.265   2.506  52.850  1.00  0.00    -0.340 N 
HETATM   21  H6  UNL     1      26.211   3.212  53.633  1.00  0.00     0.167 HD
BRANCH  20  22
HETATM   22  C7  UNL     1      27.307   1.585  53.121  1.00  0.00     0.035 A 
HETATM   23  C8  UNL     1      28.542   1.908  53.617  1.00  0.00     0.032 A 
HETATM   24  C9  UNL     1      29.543   1.010  53.877  1.00  0.00     0.046 A 
HETATM   25  C10 UNL     1      29.343  -0.329  53.637  1.00  0.00     0.138 A 
HETATM   26  F1  UNL     1      30.386  -1.141  53.922  1.00  0.00    -0.204 F 
HETATM   27  C11 UNL     1      28.121  -0.704  53.138  1.00  0.00     0.074 A 
HETATM   28 CL1  UNL     1      27.933  -2.431  52.856  1.00  0.00    -0.081 Cl
HETATM   29  C12 UNL     1      27.138   0.232  52.890  1.00  0.00     0.056 A 
ENDBRANCH  20  22
ENDBRANCH   5  20
TORSDOF 7
ENDMDL
MODEL 3
REMARK VINA RESULT:      -7.7      5.171      9.870
REMARK  7 active torsions:
REMARK  status: ('A' for Active; 'I' for Inactive)
REMARK    1  A    between atoms: O1_2  and  C2_3 
REMARK    2  A    between atoms: C2_3  and  N4_21 
REMARK    3  A    between atoms: C3_4  and  C4_5 
REMARK    4  A    between atoms: C6_9  and  N3_10 
REMARK    5  A    between atoms: N3_10  and  C7_11 
REMARK    6  A    between atoms: C17_24  and  C18_25 
REMARK    7  A    between atoms: C18_25  and  C19_26 
ROOT
HETATM    1  C4  UNL     1      21.954   0.700  51.611  1.00  0.00     0.072 A 
HETATM    2  N1  UNL     1      22.344   1.701  50.768  1.00  0.00    -0.241 NA
HETATM    3  C5  UNL     1      23.568   2.246  50.862  1.00  0.00     0.235 A 
HETATM    4  N2  UNL     1      24.425   1.815  51.789  1.00  0.00    -0.224 NA
HETATM    5  C6  UNL     1      24.094   0.840  52.637  1.00  0.00     0.137 A 
HETATM    6  C13 UNL     1      22.846   0.260  52.566  1.00  0.00     0.013 A 
HETATM    7  C14 UNL     1      22.324  -0.811  53.448  1.00  0.00     0.055 C 
ENDROOT
BRANCH   1   8
HETATM    8  C3  UNL     1      20.614   0.228  51.367  1.00  0.00     0.088 C 
HETATM    9  C2  UNL     1      19.468   0.845  51.589  1.00  0.00     0.141 C 
BRANCH   9  10
HETATM   10  O1  UNL     1      18.879   2.008  52.065  1.00  0.00    -0.341 OA
HETATM   11  C1  UNL     1      19.206   3.252  51.511  1.00  0.00     0.211 C 
ENDBRANCH   9  10
BRANCH   9  12
HETATM   12  N4  UNL     1      18.195   0.273  51.304  1.00  0.00    -0.361 N 
HETATM   13  C15 UNL     1      17.551   0.247  49.980  1.00  0.00     0.125 C 
HETATM   14  C16 UNL     1      16.094   0.085  50.357  1.00  0.00     0.026 C 
HETATM   15  C17 UNL     1      16.244  -1.016  51.418  1.00  0.00     0.011 C 
HETATM   16  C20 UNL     1      17.315  -0.390  52.282  1.00  0.00     0.130 C 
BRANCH  15  17
HETATM   17  C18 UNL     1      14.982  -1.295  52.156  1.00  0.00     0.075 C 
BRANCH  17  18
HETATM   18  C19 UNL     1      14.484   0.006  52.727  1.00  0.00     0.231 C 
HETATM   19  O2  UNL     1      14.243   0.618  53.757  1.00  0.00    -0.307 OA
ENDBRANCH  17  18
ENDBRANCH  15  17
ENDBRANCH   9  12
ENDBRANCH   1   8
BRANCH   5  20
HETATM   20  N3  UNL     1      24.977   0.344  53.628  1.00  0.00    -0.340 N 
HETATM   21  H6  UNL     1      24.590   0.053  54.566  1.00  0.00     0.167 HD
BRANCH  20  22
HETATM   22  C7  UNL     1      26.378   0.138  53.615  1.00  0.00     0.035 A 
HETATM   23  C8  UNL     1      27.010  -0.989  53.163  1.00  0.00     0.032 A 
HETATM   24  C9  UNL     1      28.367  -1.179  53.153  1.00  0.00     0.046 A 
HETATM   25  C10 UNL     1      29.200  -0.191  53.625  1.00  0.00     0.138 A 
HETATM   26  F1  UNL     1      30.524  -0.465  53.577  1.00  0.00    -0.204 F 
HETATM   27  C11 UNL     1      28.615   0.959  54.089  1.00  0.00     0.074 A 
HETATM   28 CL1  UNL     1      29.740   2.180  54.675  1.00  0.00    -0.081 Cl
HETATM   29  C12 UNL     1      27.243   1.111  54.081  1.00  0.00     0.056 A 
ENDBRANCH  20  22
ENDBRANCH   5  20
TORSDOF 7
ENDMDL
MODEL 4
REMARK VINA RESULT:      -7.7      7.729     11.276
REMARK  7 active torsions:
REMARK  status: ('A' for Active; 'I' for Inactive)
REMARK    1  A    between atoms: O1_2  and  C2_3 
REMARK    2  A    between atoms: C2_3  and  N4_21 
REMARK    3  A    between atoms: C3_4  and  C4_5 
REMARK    4  A    between atoms: C6_9  and  N3_10 
REMARK    5  A    between atoms: N3_10  and  C7_11 
REMARK    6  A    between atoms: C17_24  and  C18_25 
REMARK    7  A    between atoms: C18_25  and  C19_26 
ROOT
HETATM    1  C4  UNL     1      24.879   4.968  49.410  1.00  0.00     0.072 A 
HETATM    2  N1  UNL     1      23.721   5.685  49.301  1.00  0.00    -0.241 NA
HETATM    3  C5  UNL     1      23.703   6.879  48.686  1.00  0.00     0.235 A 
HETATM    4  N2  UNL     1      24.825   7.385  48.169  1.00  0.00    -0.224 NA
HETATM    5  C6  UNL     1      25.982   6.726  48.248  1.00  0.00     0.137 A 
HETATM    6  C13 UNL     1      26.033   5.498  48.873  1.00  0.00     0.013 A 
HETATM    7  C14 UNL     1      27.239   4.658  49.061  1.00  0.00     0.055 C 
ENDROOT
BRANCH   1   8
HETATM    8  C3  UNL     1      24.716   3.710  50.093  1.00  0.00     0.088 C 
HETATM    9  C2  UNL     1      24.299   3.487  51.326  1.00  0.00     0.141 C 
BRANCH   9  10
HETATM   10  O1  UNL     1      23.857   4.083  52.499  1.00  0.00    -0.341 OA
HETATM   11  C1  UNL     1      22.626   4.749  52.542  1.00  0.00     0.211 C 
ENDBRANCH   9  10
BRANCH   9  12
HETATM   12  N4  UNL     1      24.178   2.187  51.896  1.00  0.00    -0.361 N 
HETATM   13  C15 UNL     1      23.136   1.203  51.558  1.00  0.00     0.125 C 
HETATM   14  C16 UNL     1      23.134   0.330  52.795  1.00  0.00     0.026 C 
HETATM   15  C17 UNL     1      24.650   0.162  52.970  1.00  0.00     0.011 C 
HETATM   16  C20 UNL     1      25.074   1.611  52.913  1.00  0.00     0.130 C 
BRANCH  15  17
HETATM   17  C18 UNL     1      25.022  -0.511  54.243  1.00  0.00     0.075 C 
BRANCH  17  18
HETATM   18  C19 UNL     1      26.346   0.049  54.691  1.00  0.00     0.231 C 
HETATM   19  O2  UNL     1      27.497  -0.230  54.997  1.00  0.00    -0.307 OA
ENDBRANCH  17  18
ENDBRANCH  15  17
ENDBRANCH   9  12
ENDBRANCH   1   8
BRANCH   5  20
HETATM   20  N3  UNL     1      27.192   7.220  47.705  1.00  0.00    -0.340 N 
HETATM   21  H6  UNL     1      27.512   6.877  46.759  1.00  0.00     0.167 HD
BRANCH  20  22
HETATM   22  C7  UNL     1      28.130   8.155  48.206  1.00  0.00     0.035 A 
HETATM   23  C8  UNL     1      27.903   9.496  48.371  1.00  0.00     0.032 A 
HETATM   24  C9  UNL     1      28.817  10.393  48.858  1.00  0.00     0.046 A 
HETATM   25  C10 UNL     1      30.073   9.964  49.221  1.00  0.00     0.138 A 
HETATM   26  F1  UNL     1      30.908  10.918  49.691  1.00  0.00    -0.204 F 
HETATM   27  C11 UNL     1      30.350   8.629  49.074  1.00  0.00     0.074 A 
HETATM   28 CL1  UNL     1      31.973   8.149  49.559  1.00  0.00    -0.081 Cl
HETATM   29  C12 UNL     1      29.401   7.757  48.580  1.00  0.00     0.056 A 
ENDBRANCH  20  22
ENDBRANCH   5  20
TORSDOF 7
ENDMDL
MODEL 5
REMARK VINA RESULT:      -7.6      7.488     11.314
REMARK  7 active torsions:
REMARK  status: ('A' for Active; 'I' for Inactive)
REMARK    1  A    between atoms: O1_2  and  C2_3 
REMARK    2  A    between atoms: C2_3  and  N4_21 
REMARK    3  A    between atoms: C3_4  and  C4_5 
REMARK    4  A    between atoms: C6_9  and  N3_10 
REMARK    5  A    between atoms: N3_10  and  C7_11 
REMARK    6  A    between atoms: C17_24  and  C18_25 
REMARK    7  A    between atoms: C18_25  and  C19_26 
ROOT
HETATM    1  C4  UNL     1      24.550   4.157  49.429  1.00  0.00     0.072 A 
HETATM    2  N1  UNL     1      23.784   5.131  48.855  1.00  0.00    -0.241 NA
HETATM    3  C5  UNL     1      24.343   6.245  48.354  1.00  0.00     0.235 A 
HETATM    4  N2  UNL     1      25.665   6.416  48.412  1.00  0.00    -0.224 NA
HETATM    5  C6  UNL     1      26.459   5.496  48.962  1.00  0.00     0.137 A 
HETATM    6  C13 UNL     1      25.915   4.343  49.485  1.00  0.00     0.013 A 
HETATM    7  C14 UNL     1      26.657   3.243  50.146  1.00  0.00     0.055 C 
ENDROOT
BRANCH   1   8
HETATM    8  C3  UNL     1      23.788   3.031  49.908  1.00  0.00     0.088 C 
HETATM    9  C2  UNL     1      23.043   2.939  50.994  1.00  0.00     0.141 C 
BRANCH   9  10
HETATM   10  O1  UNL     1      22.584   3.616  52.115  1.00  0.00    -0.341 OA
HETATM   11  C1  UNL     1      21.817   4.780  51.983  1.00  0.00     0.211 C 
ENDBRANCH   9  10
BRANCH   9  12
HETATM   12  N4  UNL     1      22.331   1.763  51.366  1.00  0.00    -0.361 N 
HETATM   13  C15 UNL     1      21.501   0.948  50.462  1.00  0.00     0.125 C 
HETATM   14  C16 UNL     1      20.584   0.250  51.444  1.00  0.00     0.026 C 
HETATM   15  C17 UNL     1      21.628  -0.166  52.491  1.00  0.00     0.011 C 
HETATM   16  C20 UNL     1      22.308   1.166  52.712  1.00  0.00     0.130 C 
BRANCH  15  17
HETATM   17  C18 UNL     1      21.025  -0.731  53.727  1.00  0.00     0.075 C 
BRANCH  17  18
HETATM   18  C19 UNL     1      22.147  -1.206  54.613  1.00  0.00     0.231 C 
HETATM   19  O2  UNL     1      22.444  -1.947  55.539  1.00  0.00    -0.307 OA
ENDBRANCH  17  18
ENDBRANCH  15  17
ENDBRANCH   9  12
ENDBRANCH   1   8
BRANCH   5  20
HETATM   20  N3  UNL     1      27.866   5.632  49.034  1.00  0.00    -0.340 N 
HETATM   21  H6  UNL     1      28.384   5.222  49.858  1.00  0.00     0.167 HD
BRANCH  20  22
HETATM   22  C7  UNL     1      28.793   6.249  48.159  1.00  0.00     0.035 A 
HETATM   23  C8  UNL     1      28.509   7.271  47.294  1.00  0.00     0.032 A 
HETATM   24  C9  UNL     1      29.413   7.862  46.451  1.00  0.00     0.046 A 
HETATM   25  C10 UNL     1      30.719   7.430  46.435  1.00  0.00     0.138 A 
HETATM   26  F1  UNL     1      31.541   8.071  45.573  1.00  0.00    -0.204 F 
HETATM   27  C11 UNL     1      31.055   6.407  47.285  1.00  0.00     0.074 A 
HETATM   28 CL1  UNL     1      32.741   5.906  47.214  1.00  0.00    -0.081 Cl
HETATM   29  C12 UNL     1      30.114   5.839  48.119  1.00  0.00     0.056 A 
ENDBRANCH  20  22
ENDBRANCH   5  20
TORSDOF 7
ENDMDL
MODEL 6
REMARK VINA RESULT:      -7.6      7.274     11.001
REMARK  7 active torsions:
REMARK  status: ('A' for Active; 'I' for Inactive)
REMARK    1  A    between atoms: O1_2  and  C2_3 
REMARK    2  A    between atoms: C2_3  and  N4_21 
REMARK    3  A    between atoms: C3_4  and  C4_5 
REMARK    4  A    between atoms: C6_9  and  N3_10 
REMARK    5  A    between atoms: N3_10  and  C7_11 
REMARK    6  A    between atoms: C17_24  and  C18_25 
REMARK    7  A    between atoms: C18_25  and  C19_26 
ROOT
HETATM    1  C4  UNL     1      24.735   5.029  50.659  1.00  0.00     0.072 A 
HETATM    2  N1  UNL     1      24.070   6.180  50.969  1.00  0.00    -0.241 NA
HETATM    3  C5  UNL     1      24.392   7.344  50.381  1.00  0.00     0.235 A 
HETATM    4  N2  UNL     1      25.374   7.391  49.479  1.00  0.00    -0.224 NA
HETATM    5  C6  UNL     1      26.054   6.296  49.139  1.00  0.00     0.137 A 
HETATM    6  C13 UNL     1      25.748   5.086  49.726  1.00  0.00     0.013 A 
HETATM    7  C14 UNL     1      26.424   3.792  49.473  1.00  0.00     0.055 C 
ENDROOT
BRANCH   1   8
HETATM    8  C3  UNL     1      24.257   3.875  51.378  1.00  0.00     0.088 C 
HETATM    9  C2  UNL     1      23.310   3.021  51.034  1.00  0.00     0.141 C 
BRANCH   9  10
HETATM   10  O1  UNL     1      22.375   2.694  50.062  1.00  0.00    -0.341 OA
HETATM   11  C1  UNL     1      22.751   2.586  48.717  1.00  0.00     0.211 C 
ENDBRANCH   9  10
BRANCH   9  12
HETATM   12  N4  UNL     1      22.922   1.908  51.834  1.00  0.00    -0.361 N 
HETATM   13  C15 UNL     1      21.537   1.450  52.040  1.00  0.00     0.125 C 
HETATM   14  C16 UNL     1      21.664   0.688  53.343  1.00  0.00     0.026 C 
HETATM   15  C17 UNL     1      22.944  -0.103  53.033  1.00  0.00     0.011 C 
HETATM   16  C20 UNL     1      23.837   1.030  52.582  1.00  0.00     0.130 C 
BRANCH  15  17
HETATM   17  C18 UNL     1      23.476  -0.841  54.209  1.00  0.00     0.075 C 
BRANCH  17  18
HETATM   18  C19 UNL     1      24.962  -0.603  54.269  1.00  0.00     0.231 C 
HETATM   19  O2  UNL     1      25.970  -0.745  54.946  1.00  0.00    -0.307 OA
ENDBRANCH  17  18
ENDBRANCH  15  17
ENDBRANCH   9  12
ENDBRANCH   1   8
BRANCH   5  20
HETATM   20  N3  UNL     1      27.095   6.298  48.179  1.00  0.00    -0.340 N 
HETATM   21  H6  UNL     1      26.869   6.087  47.170  1.00  0.00     0.167 HD
BRANCH  20  22
HETATM   22  C7  UNL     1      28.483   6.551  48.304  1.00  0.00     0.035 A 
HETATM   23  C8  UNL     1      29.477   5.622  48.145  1.00  0.00     0.032 A 
HETATM   24  C9  UNL     1      30.818   5.876  48.267  1.00  0.00     0.046 A 
HETATM   25  C10 UNL     1      31.249   7.146  48.573  1.00  0.00     0.138 A 
HETATM   26  F1  UNL     1      32.589   7.305  48.673  1.00  0.00    -0.204 F 
HETATM   27  C11 UNL     1      30.292   8.114  48.742  1.00  0.00     0.074 A 
HETATM   28 CL1  UNL     1      30.914   9.714  49.129  1.00  0.00    -0.081 Cl
HETATM   29  C12 UNL     1      28.951   7.816  48.610  1.00  0.00     0.056 A 
ENDBRANCH  20  22
ENDBRANCH   5  20
TORSDOF 7
ENDMDL
MODEL 7
REMARK VINA RESULT:      -7.5      5.061      6.698
REMARK  7 active torsions:
REMARK  status: ('A' for Active; 'I' for Inactive)
REMARK    1  A    between atoms: O1_2  and  C2_3 
REMARK    2  A    between atoms: C2_3  and  N4_21 
REMARK    3  A    between atoms: C3_4  and  C4_5 
REMARK    4  A    between atoms: C6_9  and  N3_10 
REMARK    5  A    between atoms: N3_10  and  C7_11 
REMARK    6  A    between atoms: C17_24  and  C18_25 
REMARK    7  A    between atoms: C18_25  and  C19_26 
ROOT
HETATM    1  C4  UNL     1      23.230   3.209  49.289  1.00  0.00     0.072 A 
HETATM    2  N1  UNL     1      22.810   2.537  48.176  1.00  0.00    -0.241 NA
HETATM    3  C5  UNL     1      21.893   1.559  48.264  1.00  0.00     0.235 A 
HETATM    4  N2  UNL     1      21.376   1.229  49.449  1.00  0.00    -0.224 NA
HETATM    5  C6  UNL     1      21.751   1.854  50.566  1.00  0.00     0.137 A 
HETATM    6  C13 UNL     1      22.691   2.861  50.509  1.00  0.00     0.013 A 
HETATM    7  C14 UNL     1      23.225   3.630  51.658  1.00  0.00     0.055 C 
ENDROOT
BRANCH   1   8
HETATM    8  C3  UNL     1      24.211   4.227  49.012  1.00  0.00     0.088 C 
HETATM    9  C2  UNL     1      25.518   4.188  49.199  1.00  0.00     0.141 C 
BRANCH   9  10
HETATM   10  O1  UNL     1      26.577   3.412  49.651  1.00  0.00    -0.341 OA
HETATM   11  C1  UNL     1      26.543   2.829  50.923  1.00  0.00     0.211 C 
ENDBRANCH   9  10
BRANCH   9  12
HETATM   12  N4  UNL     1      26.394   5.266  48.884  1.00  0.00    -0.361 N 
HETATM   13  C15 UNL     1      26.048   6.696  48.965  1.00  0.00     0.125 C 
HETATM   14  C16 UNL     1      27.059   7.304  48.016  1.00  0.00     0.026 C 
HETATM   15  C17 UNL     1      28.311   6.549  48.486  1.00  0.00     0.011 C 
HETATM   16  C20 UNL     1      27.788   5.132  48.430  1.00  0.00     0.130 C 
BRANCH  15  17
HETATM   17  C18 UNL     1      29.494   6.775  47.613  1.00  0.00     0.075 C 
BRANCH  17  18
HETATM   18  C19 UNL     1      30.451   7.670  48.356  1.00  0.00     0.231 C 
HETATM   19  O2  UNL     1      31.325   7.709  49.209  1.00  0.00    -0.307 OA
ENDBRANCH  17  18
ENDBRANCH  15  17
ENDBRANCH   9  12
ENDBRANCH   1   8
BRANCH   5  20
HETATM   20  N3  UNL     1      21.221   1.543  51.842  1.00  0.00    -0.340 N 
HETATM   21  H6  UNL     1      20.358   2.049  52.180  1.00  0.00     0.167 HD
BRANCH  20  22
HETATM   22  C7  UNL     1      21.639   0.619  52.830  1.00  0.00     0.035 A 
HETATM   23  C8  UNL     1      20.808  -0.102  53.646  1.00  0.00     0.032 A 
HETATM   24  C9  UNL     1      21.223  -0.995  54.599  1.00  0.00     0.046 A 
HETATM   25  C10 UNL     1      22.567  -1.219  54.789  1.00  0.00     0.138 A 
HETATM   26  F1  UNL     1      22.883  -2.116  55.750  1.00  0.00    -0.204 F 
HETATM   27  C11 UNL     1      23.441  -0.521  53.996  1.00  0.00     0.074 A 
HETATM   28 CL1  UNL     1      25.143  -0.857  54.292  1.00  0.00    -0.081 Cl
HETATM   29  C12 UNL     1      22.982   0.370  53.047  1.00  0.00     0.056 A 
ENDBRANCH  20  22
ENDBRANCH   5  20
TORSDOF 7
ENDMDL
MODEL 8
REMARK VINA RESULT:      -7.4      7.278     10.540
REMARK  7 active torsions:
REMARK  status: ('A' for Active; 'I' for Inactive)
REMARK    1  A    between atoms: O1_2  and  C2_3 
REMARK    2  A    between atoms: C2_3  and  N4_21 
REMARK    3  A    between atoms: C3_4  and  C4_5 
REMARK    4  A    between atoms: C6_9  and  N3_10 
REMARK    5  A    between atoms: N3_10  and  C7_11 
REMARK    6  A    between atoms: C17_24  and  C18_25 
REMARK    7  A    between atoms: C18_25  and  C19_26 
ROOT
HETATM    1  C4  UNL     1      25.144   4.270  50.613  1.00  0.00     0.072 A 
HETATM    2  N1  UNL     1      24.012   4.822  51.144  1.00  0.00    -0.241 NA
HETATM    3  C5  UNL     1      23.520   5.979  50.671  1.00  0.00     0.235 A 
HETATM    4  N2  UNL     1      24.135   6.610  49.669  1.00  0.00    -0.224 NA
HETATM    5  C6  UNL     1      25.242   6.115  49.115  1.00  0.00     0.137 A 
HETATM    6  C13 UNL     1      25.772   4.930  49.578  1.00  0.00     0.013 A 
HETATM    7  C14 UNL     1      27.002   4.266  49.084  1.00  0.00     0.055 C 
ENDROOT
BRANCH   1   8
HETATM    8  C3  UNL     1      25.526   3.028  51.234  1.00  0.00     0.088 C 
HETATM    9  C2  UNL     1      24.769   1.994  51.549  1.00  0.00     0.141 C 
BRANCH   9  10
HETATM   10  O1  UNL     1      23.476   1.487  51.532  1.00  0.00    -0.341 OA
HETATM   11  C1  UNL     1      22.666   1.634  50.399  1.00  0.00     0.211 C 
ENDBRANCH   9  10
BRANCH   9  12
HETATM   12  N4  UNL     1      25.264   0.809  52.166  1.00  0.00    -0.361 N 
HETATM   13  C15 UNL     1      24.522  -0.025  53.126  1.00  0.00     0.125 C 
HETATM   14  C16 UNL     1      25.652  -0.731  53.846  1.00  0.00     0.026 C 
HETATM   15  C17 UNL     1      26.502  -1.123  52.629  1.00  0.00     0.011 C 
HETATM   16  C20 UNL     1      26.596   0.220  51.943  1.00  0.00     0.130 C 
BRANCH  15  17
HETATM   17  C18 UNL     1      27.827  -1.690  52.998  1.00  0.00     0.075 C 
BRANCH  17  18
HETATM   18  C19 UNL     1      28.624  -0.602  53.668  1.00  0.00     0.231 C 
HETATM   19  O2  UNL     1      28.978  -0.140  54.743  1.00  0.00    -0.307 OA
ENDBRANCH  17  18
ENDBRANCH  15  17
ENDBRANCH   9  12
ENDBRANCH   1   8
BRANCH   5  20
HETATM   20  N3  UNL     1      25.920   6.746  48.043  1.00  0.00    -0.340 N 
HETATM   21  H6  UNL     1      25.787   6.381  47.061  1.00  0.00     0.167 HD
BRANCH  20  22
HETATM   22  C7  UNL     1      26.802   7.854  48.016  1.00  0.00     0.035 A 
HETATM   23  C8  UNL     1      26.526   9.074  47.458  1.00  0.00     0.032 A 
HETATM   24  C9  UNL     1      27.386  10.140  47.438  1.00  0.00     0.046 A 
HETATM   25  C10 UNL     1      28.633  10.026  48.008  1.00  0.00     0.138 A 
HETATM   26  F1  UNL     1      29.414  11.129  47.941  1.00  0.00    -0.204 F 
HETATM   27  C11 UNL     1      28.957   8.823  48.580  1.00  0.00     0.074 A 
HETATM   28 CL1  UNL     1      30.566   8.748  49.291  1.00  0.00    -0.081 Cl
HETATM   29  C12 UNL     1      28.062   7.773  48.580  1.00  0.00     0.056 A 
ENDBRANCH  20  22
ENDBRANCH   5  20
TORSDOF 7
ENDMDL
MODEL 9
REMARK VINA RESULT:      -7.4      7.470     11.193
REMARK  7 active torsions:
REMARK  status: ('A' for Active; 'I' for Inactive)
REMARK    1  A    between atoms: O1_2  and  C2_3 
REMARK    2  A    between atoms: C2_3  and  N4_21 
REMARK    3  A    between atoms: C3_4  and  C4_5 
REMARK    4  A    between atoms: C6_9  and  N3_10 
REMARK    5  A    between atoms: N3_10  and  C7_11 
REMARK    6  A    between atoms: C17_24  and  C18_25 
REMARK    7  A    between atoms: C18_25  and  C19_26 
ROOT
HETATM    1  C4  UNL     1      24.253   4.898  50.619  1.00  0.00     0.072 A 
HETATM    2  N1  UNL     1      23.615   5.999  51.114  1.00  0.00    -0.241 NA
HETATM    3  C5  UNL     1      24.155   7.223  50.994  1.00  0.00     0.235 A 
HETATM    4  N2  UNL     1      25.331   7.381  50.383  1.00  0.00    -0.224 NA
HETATM    5  C6  UNL     1      25.995   6.338  49.882  1.00  0.00     0.137 A 
HETATM    6  C13 UNL     1      25.468   5.070  49.990  1.00  0.00     0.013 A 
HETATM    7  C14 UNL     1      26.092   3.815  49.507  1.00  0.00     0.055 C 
ENDROOT
BRANCH   1   8
HETATM    8  C3  UNL     1      23.531   3.669  50.831  1.00  0.00     0.088 C 
HETATM    9  C2  UNL     1      23.607   2.830  51.848  1.00  0.00     0.141 C 
BRANCH   9  10
HETATM   10  O1  UNL     1      24.226   2.576  53.064  1.00  0.00    -0.341 OA
HETATM   11  C1  UNL     1      25.622   2.531  53.160  1.00  0.00     0.211 C 
ENDBRANCH   9  10
BRANCH   9  12
HETATM   12  N4  UNL     1      22.836   1.637  51.948  1.00  0.00    -0.361 N 
HETATM   13  C15 UNL     1      22.037   1.046  50.861  1.00  0.00     0.125 C 
HETATM   14  C16 UNL     1      21.041   0.213  51.639  1.00  0.00     0.026 C 
HETATM   15  C17 UNL     1      22.006  -0.440  52.640  1.00  0.00     0.011 C 
HETATM   16  C20 UNL     1      22.714   0.795  53.150  1.00  0.00     0.130 C 
BRANCH  15  17
HETATM   17  C18 UNL     1      21.312  -1.205  53.710  1.00  0.00     0.075 C 
BRANCH  17  18
HETATM   18  C19 UNL     1      22.161  -1.136  54.951  1.00  0.00     0.231 C 
HETATM   19  O2  UNL     1      22.796  -1.791  55.765  1.00  0.00    -0.307 OA
ENDBRANCH  17  18
ENDBRANCH  15  17
ENDBRANCH   9  12
ENDBRANCH   1   8
BRANCH   5  20
HETATM   20  N3  UNL     1      27.239   6.461  49.217  1.00  0.00    -0.340 N 
HETATM   21  H6  UNL     1      27.931   5.665  49.263  1.00  0.00     0.167 HD
BRANCH  20  22
HETATM   22  C7  UNL     1      27.786   7.512  48.439  1.00  0.00     0.035 A 
HETATM   23  C8  UNL     1      27.426   7.816  47.153  1.00  0.00     0.032 A 
HETATM   24  C9  UNL     1      27.960   8.836  46.409  1.00  0.00     0.046 A 
HETATM   25  C10 UNL     1      28.934   9.642  46.950  1.00  0.00     0.138 A 
HETATM   26  F1  UNL     1      29.402  10.622  46.144  1.00  0.00    -0.204 F 
HETATM   27  C11 UNL     1      29.329   9.378  48.237  1.00  0.00     0.074 A 
HETATM   28 CL1  UNL     1      30.577  10.448  48.866  1.00  0.00    -0.081 Cl
HETATM   29  C12 UNL     1      28.766   8.341  48.953  1.00  0.00     0.056 A 
ENDBRANCH  20  22
ENDBRANCH   5  20
TORSDOF 7
ENDMDL
