MODEL 1
REMARK VINA RESULT:      -7.2      0.000      0.000
REMARK  6 active torsions:
REMARK  status: ('A' for Active; 'I' for Inactive)
REMARK    1  A    between atoms: O1_2  and  C2_3 
REMARK    2  A    between atoms: C2_3  and  C16_21 
REMARK    3  A    between atoms: C3_4  and  C4_5 
REMARK    4  A    between atoms: C7_10  and  N3_11 
REMARK    5  A    between atoms: C16_21  and  C17_22 
REMARK    6  A    between atoms: C17_22  and  O2_23 
ROOT
HETATM    1  C4  UNL     1      23.251  -0.383  53.427  1.00  0.00     0.030 A 
HETATM    2  C5  UNL     1      22.857  -1.192  54.456  1.00  0.00     0.133 A 
HETATM    3  N1  UNL     1      21.701  -0.875  55.045  1.00  0.00    -0.253 NA
HETATM    4  C6  UNL     1      20.908   0.147  54.724  1.00  0.00     0.234 A 
HETATM    5  N2  UNL     1      21.326   0.920  53.709  1.00  0.00    -0.224 NA
HETATM    6  C7  UNL     1      22.496   0.682  53.036  1.00  0.00     0.139 A 
ENDROOT
BRANCH   6   7
HETATM    7  N3  UNL     1      22.603   1.642  52.025  1.00  0.00    -0.361 N 
HETATM    8  C8  UNL     1      22.717   1.983  50.596  1.00  0.00     0.151 C 
HETATM    9  C9  UNL     1      24.216   2.326  50.460  1.00  0.00    -0.007 C 
HETATM   10  C10 UNL     1      25.420   2.859  50.310  1.00  0.00    -0.001 C 
HETATM   11  C11 UNL     1      25.986   4.201  50.074  1.00  0.00     0.014 C 
HETATM   12  C12 UNL     1      24.991   5.024  50.078  1.00  0.00    -0.011 C 
HETATM   13 BR1  UNL     1      25.683   6.803  49.702  1.00  0.00    -0.056 Br
HETATM   14  C13 UNL     1      23.639   4.948  50.706  1.00  0.00     0.018 C 
HETATM   15  C14 UNL     1      23.599   3.785  51.494  1.00  0.00     0.048 C 
HETATM   16  C15 UNL     1      22.623   3.118  52.324  1.00  0.00     0.130 C 
ENDBRANCH   6   7
BRANCH   1  17
HETATM   17  C3  UNL     1      24.492  -0.612  52.718  1.00  0.00     0.049 C 
HETATM   18  C2  UNL     1      25.586   0.057  53.041  1.00  0.00     0.048 C 
BRANCH  18  19
HETATM   19  O1  UNL     1      25.687   1.005  54.037  1.00  0.00    -0.360 OA
HETATM   20  C1  UNL     1      26.096   2.333  53.882  1.00  0.00     0.209 C 
ENDBRANCH  18  19
BRANCH  18  21
HETATM   21  C16 UNL     1      26.902  -0.073  52.410  1.00  0.00     0.090 C 
BRANCH  21  22
HETATM   22  C17 UNL     1      27.844  -1.001  53.149  1.00  0.00     0.170 C 
BRANCH  22  23
HETATM   23  O2  UNL     1      28.028  -0.621  54.461  1.00  0.00    -0.400 OA
HETATM   24  H20 UNL     1      28.892  -0.993  54.772  1.00  0.00     0.209 HD
ENDBRANCH  22  23
ENDBRANCH  21  22
ENDBRANCH  18  21
ENDBRANCH   1  17
TORSDOF 6
ENDMDL
MODEL 2
REMARK VINA RESULT:      -7.2      1.697      2.320
REMARK  6 active torsions:
REMARK  status: ('A' for Active; 'I' for Inactive)
REMARK    1  A    between atoms: O1_2  and  C2_3 
REMARK    2  A    between atoms: C2_3  and  C16_21 
REMARK    3  A    between atoms: C3_4  and  C4_5 
REMARK    4  A    between atoms: C7_10  and  N3_11 
REMARK    5  A    between atoms: C16_21  and  C17_22 
REMARK    6  A    between atoms: C17_22  and  O2_23 
ROOT
HETATM    1  C4  UNL     1      24.189   1.323  52.914  1.00  0.00     0.030 A 
HETATM    2  C5  UNL     1      23.714   0.318  53.709  1.00  0.00     0.133 A 
HETATM    3  N1  UNL     1      22.537  -0.206  53.355  1.00  0.00    -0.253 NA
HETATM    4  C6  UNL     1      21.794   0.160  52.310  1.00  0.00     0.234 A 
HETATM    5  N2  UNL     1      22.292   1.150  51.552  1.00  0.00    -0.224 NA
HETATM    6  C7  UNL     1      23.492   1.755  51.825  1.00  0.00     0.139 A 
ENDROOT
BRANCH   6   7
HETATM    7  N3  UNL     1      23.723   2.703  50.825  1.00  0.00    -0.361 N 
HETATM    8  C8  UNL     1      23.926   3.033  49.403  1.00  0.00     0.151 C 
HETATM    9  C9  UNL     1      25.454   3.248  49.332  1.00  0.00    -0.007 C 
HETATM   10  C10 UNL     1      26.704   3.677  49.235  1.00  0.00    -0.001 C 
HETATM   11  C11 UNL     1      27.390   4.967  49.029  1.00  0.00     0.014 C 
HETATM   12  C12 UNL     1      26.469   5.871  48.994  1.00  0.00    -0.011 C 
HETATM   13 BR1  UNL     1      27.324   7.586  48.654  1.00  0.00    -0.056 Br
HETATM   14  C13 UNL     1      25.090   5.910  49.563  1.00  0.00     0.018 C 
HETATM   15  C14 UNL     1      24.918   4.754  50.344  1.00  0.00     0.048 C 
HETATM   16  C15 UNL     1      23.854   4.172  51.130  1.00  0.00     0.130 C 
ENDBRANCH   6   7
BRANCH   1  17
HETATM   17  C3  UNL     1      25.445   1.982  53.200  1.00  0.00     0.049 C 
HETATM   18  C2  UNL     1      26.572   1.549  52.658  1.00  0.00     0.048 C 
BRANCH  18  19
HETATM   19  O1  UNL     1      26.694   0.478  51.800  1.00  0.00    -0.360 OA
HETATM   20  C1  UNL     1      26.863  -0.862  52.162  1.00  0.00     0.209 C 
ENDBRANCH  18  19
BRANCH  18  21
HETATM   21  C16 UNL     1      27.908   2.117  52.861  1.00  0.00     0.090 C 
BRANCH  21  22
HETATM   22  C17 UNL     1      28.640   1.539  54.055  1.00  0.00     0.170 C 
BRANCH  22  23
HETATM   23  O2  UNL     1      29.550   2.427  54.589  1.00  0.00    -0.400 OA
HETATM   24  H20 UNL     1      29.644   2.228  55.555  1.00  0.00     0.209 HD
ENDBRANCH  22  23
ENDBRANCH  21  22
ENDBRANCH  18  21
ENDBRANCH   1  17
TORSDOF 6
ENDMDL
MODEL 3
REMARK VINA RESULT:      -7.0      1.946      2.641
REMARK  6 active torsions:
REMARK  status: ('A' for Active; 'I' for Inactive)
REMARK    1  A    between atoms: O1_2  and  C2_3 
REMARK    2  A    between atoms: C2_3  and  C16_21 
REMARK    3  A    between atoms: C3_4  and  C4_5 
REMARK    4  A    between atoms: C7_10  and  N3_11 
REMARK    5  A    between atoms: C16_21  and  C17_22 
REMARK    6  A    between atoms: C17_22  and  O2_23 
ROOT
HETATM    1  C4  UNL     1      24.845  -0.298  54.706  1.00  0.00     0.030 A 
HETATM    2  C5  UNL     1      24.486  -1.171  55.694  1.00  0.00     0.133 A 
HETATM    3  N1  UNL     1      23.244  -1.658  55.626  1.00  0.00    -0.253 NA
HETATM    4  C6  UNL     1      22.336  -1.370  54.693  1.00  0.00     0.234 A 
HETATM    5  N2  UNL     1      22.723  -0.510  53.740  1.00  0.00    -0.224 NA
HETATM    6  C7  UNL     1      23.976   0.047  53.715  1.00  0.00     0.139 A 
ENDROOT
BRANCH   6   7
HETATM    7  N3  UNL     1      24.055   0.855  52.577  1.00  0.00    -0.361 N 
HETATM    8  C8  UNL     1      24.824   1.766  51.710  1.00  0.00     0.151 C 
HETATM    9  C9  UNL     1      24.256   3.147  52.101  1.00  0.00    -0.007 C 
HETATM   10  C10 UNL     1      23.666   4.330  52.205  1.00  0.00    -0.001 C 
HETATM   11  C11 UNL     1      22.813   5.189  51.361  1.00  0.00     0.014 C 
HETATM   12  C12 UNL     1      22.585   4.526  50.276  1.00  0.00    -0.011 C 
HETATM   13 BR1  UNL     1      21.517   5.651  49.101  1.00  0.00    -0.056 Br
HETATM   14  C13 UNL     1      22.588   3.062  49.985  1.00  0.00     0.018 C 
HETATM   15  C14 UNL     1      22.776   2.385  51.201  1.00  0.00     0.048 C 
HETATM   16  C15 UNL     1      22.899   1.009  51.624  1.00  0.00     0.130 C 
ENDBRANCH   6   7
BRANCH   1  17
HETATM   17  C3  UNL     1      26.159   0.310  54.676  1.00  0.00     0.049 C 
HETATM   18  C2  UNL     1      27.186  -0.330  54.142  1.00  0.00     0.048 C 
BRANCH  18  19
HETATM   19  O1  UNL     1      27.147  -1.587  53.576  1.00  0.00    -0.360 OA
HETATM   20  C1  UNL     1      26.891  -1.886  52.235  1.00  0.00     0.209 C 
ENDBRANCH  18  19
BRANCH  18  21
HETATM   21  C16 UNL     1      28.562   0.163  54.047  1.00  0.00     0.090 C 
BRANCH  21  22
HETATM   22  C17 UNL     1      28.662   1.612  53.615  1.00  0.00     0.170 C 
BRANCH  22  23
HETATM   23  O2  UNL     1      29.404   2.369  54.496  1.00  0.00    -0.400 OA
HETATM   24  H20 UNL     1      28.792   2.721  55.192  1.00  0.00     0.209 HD
ENDBRANCH  22  23
ENDBRANCH  21  22
ENDBRANCH  18  21
ENDBRANCH   1  17
TORSDOF 6
ENDMDL
MODEL 4
REMARK VINA RESULT:      -6.9      3.062      5.294
REMARK  6 active torsions:
REMARK  status: ('A' for Active; 'I' for Inactive)
REMARK    1  A    between atoms: O1_2  and  C2_3 
REMARK    2  A    between atoms: C2_3  and  C16_21 
REMARK    3  A    between atoms: C3_4  and  C4_5 
REMARK    4  A    between atoms: C7_10  and  N3_11 
REMARK    5  A    between atoms: C16_21  and  C17_22 
REMARK    6  A    between atoms: C17_22  and  O2_23 
ROOT
HETATM    1  C4  UNL     1      26.110   3.017  50.376  1.00  0.00     0.030 A 
HETATM    2  C5  UNL     1      26.957   3.623  49.491  1.00  0.00     0.133 A 
HETATM    3  N1  UNL     1      26.584   4.827  49.049  1.00  0.00    -0.253 NA
HETATM    4  C6  UNL     1      25.472   5.480  49.389  1.00  0.00     0.234 A 
HETATM    5  N2  UNL     1      24.665   4.855  50.260  1.00  0.00    -0.224 NA
HETATM    6  C7  UNL     1      24.955   3.618  50.776  1.00  0.00     0.139 A 
ENDROOT
BRANCH   6   7
HETATM    7  N3  UNL     1      23.934   3.286  51.671  1.00  0.00    -0.361 N 
HETATM    8  C8  UNL     1      23.488   2.983  53.043  1.00  0.00     0.151 C 
HETATM    9  C9  UNL     1      23.344   1.446  53.009  1.00  0.00    -0.007 C 
HETATM   10  C10 UNL     1      22.972   0.175  52.997  1.00  0.00    -0.001 C 
HETATM   11  C11 UNL     1      21.705  -0.580  53.045  1.00  0.00     0.014 C 
HETATM   12  C12 UNL     1      20.756   0.296  53.047  1.00  0.00    -0.011 C 
HETATM   13 BR1  UNL     1      19.064  -0.655  53.178  1.00  0.00    -0.056 Br
HETATM   14  C13 UNL     1      20.700   1.703  52.553  1.00  0.00     0.018 C 
HETATM   15  C14 UNL     1      21.910   1.973  51.893  1.00  0.00     0.048 C 
HETATM   16  C15 UNL     1      22.507   3.107  51.225  1.00  0.00     0.130 C 
ENDBRANCH   6   7
BRANCH   1  17
HETATM   17  C3  UNL     1      26.395   1.705  50.917  1.00  0.00     0.049 C 
HETATM   18  C2  UNL     1      27.185   1.566  51.970  1.00  0.00     0.048 C 
BRANCH  18  19
HETATM   19  O1  UNL     1      27.804   2.591  52.653  1.00  0.00    -0.360 OA
HETATM   20  C1  UNL     1      28.753   2.456  53.671  1.00  0.00     0.209 C 
ENDBRANCH  18  19
BRANCH  18  21
HETATM   21  C16 UNL     1      27.557   0.305  52.616  1.00  0.00     0.090 C 
BRANCH  21  22
HETATM   22  C17 UNL     1      26.466  -0.746  52.576  1.00  0.00     0.170 C 
BRANCH  22  23
HETATM   23  O2  UNL     1      26.194  -1.263  53.824  1.00  0.00    -0.400 OA
HETATM   24  H20 UNL     1      25.223  -1.165  53.994  1.00  0.00     0.209 HD
ENDBRANCH  22  23
ENDBRANCH  21  22
ENDBRANCH  18  21
ENDBRANCH   1  17
TORSDOF 6
ENDMDL
MODEL 5
REMARK VINA RESULT:      -6.8      2.542      3.742
REMARK  6 active torsions:
REMARK  status: ('A' for Active; 'I' for Inactive)
REMARK    1  A    between atoms: O1_2  and  C2_3 
REMARK    2  A    between atoms: C2_3  and  C16_21 
REMARK    3  A    between atoms: C3_4  and  C4_5 
REMARK    4  A    between atoms: C7_10  and  N3_11 
REMARK    5  A    between atoms: C16_21  and  C17_22 
REMARK    6  A    between atoms: C17_22  and  O2_23 
ROOT
HETATM    1  C4  UNL     1      24.516  -0.088  53.345  1.00  0.00     0.030 A 
HETATM    2  C5  UNL     1      25.462  -0.551  54.217  1.00  0.00     0.133 A 
HETATM    3  N1  UNL     1      25.003  -1.158  55.315  1.00  0.00    -0.253 NA
HETATM    4  C6  UNL     1      23.722  -1.348  55.632  1.00  0.00     0.234 A 
HETATM    5  N2  UNL     1      22.822  -0.880  54.754  1.00  0.00    -0.224 NA
HETATM    6  C7  UNL     1      23.186  -0.243  53.595  1.00  0.00     0.139 A 
ENDROOT
BRANCH   6   7
HETATM    7  N3  UNL     1      22.013   0.073  52.903  1.00  0.00    -0.361 N 
HETATM    8  C8  UNL     1      21.095  -0.164  51.775  1.00  0.00     0.151 C 
HETATM    9  C9  UNL     1      21.436   1.004  50.824  1.00  0.00    -0.007 C 
HETATM   10  C10 UNL     1      21.498   2.092  50.071  1.00  0.00    -0.001 C 
HETATM   11  C11 UNL     1      20.633   3.250  49.771  1.00  0.00     0.014 C 
HETATM   12  C12 UNL     1      19.583   3.124  50.511  1.00  0.00    -0.011 C 
HETATM   13 BR1  UNL     1      18.379   4.596  50.099  1.00  0.00    -0.056 Br
HETATM   14  C13 UNL     1      19.355   2.411  51.803  1.00  0.00     0.018 C 
HETATM   15  C14 UNL     1      20.596   1.925  52.247  1.00  0.00     0.048 C 
HETATM   16  C15 UNL     1      21.075   1.154  53.371  1.00  0.00     0.130 C 
ENDBRANCH   6   7
BRANCH   1  17
HETATM   17  C3  UNL     1      24.885   0.601  52.126  1.00  0.00     0.049 C 
HETATM   18  C2  UNL     1      24.833   1.921  52.055  1.00  0.00     0.048 C 
BRANCH  18  19
HETATM   19  O1  UNL     1      24.444   2.768  53.071  1.00  0.00    -0.360 OA
HETATM   20  C1  UNL     1      23.706   3.947  52.933  1.00  0.00     0.209 C 
ENDBRANCH  18  19
BRANCH  18  21
HETATM   21  C16 UNL     1      25.174   2.742  50.891  1.00  0.00     0.090 C 
BRANCH  21  22
HETATM   22  C17 UNL     1      26.664   2.931  50.694  1.00  0.00     0.170 C 
BRANCH  22  23
HETATM   23  O2  UNL     1      27.353   2.925  51.888  1.00  0.00    -0.400 OA
HETATM   24  H20 UNL     1      26.891   2.305  52.508  1.00  0.00     0.209 HD
ENDBRANCH  22  23
ENDBRANCH  21  22
ENDBRANCH  18  21
ENDBRANCH   1  17
TORSDOF 6
ENDMDL
MODEL 6
REMARK VINA RESULT:      -6.7      3.062      5.050
REMARK  6 active torsions:
REMARK  status: ('A' for Active; 'I' for Inactive)
REMARK    1  A    between atoms: O1_2  and  C2_3 
REMARK    2  A    between atoms: C2_3  and  C16_21 
REMARK    3  A    between atoms: C3_4  and  C4_5 
REMARK    4  A    between atoms: C7_10  and  N3_11 
REMARK    5  A    between atoms: C16_21  and  C17_22 
REMARK    6  A    between atoms: C17_22  and  O2_23 
ROOT
HETATM    1  C4  UNL     1      20.934   0.667  51.117  1.00  0.00     0.030 A 
HETATM    2  C5  UNL     1      19.636   0.377  50.800  1.00  0.00     0.133 A 
HETATM    3  N1  UNL     1      18.888  -0.124  51.787  1.00  0.00    -0.253 NA
HETATM    4  C6  UNL     1      19.289  -0.365  53.035  1.00  0.00     0.234 A 
HETATM    5  N2  UNL     1      20.569  -0.069  53.310  1.00  0.00    -0.224 NA
HETATM    6  C7  UNL     1      21.422   0.452  52.371  1.00  0.00     0.139 A 
ENDROOT
BRANCH   6   7
HETATM    7  N3  UNL     1      22.651   0.675  52.998  1.00  0.00    -0.361 N 
HETATM    8  C8  UNL     1      23.724   1.598  53.407  1.00  0.00     0.151 C 
HETATM    9  C9  UNL     1      24.822   1.309  52.360  1.00  0.00    -0.007 C 
HETATM   10  C10 UNL     1      25.889   0.959  51.657  1.00  0.00    -0.001 C 
HETATM   11  C11 UNL     1      27.174   0.281  51.911  1.00  0.00     0.014 C 
HETATM   12  C12 UNL     1      27.161  -0.079  53.151  1.00  0.00    -0.011 C 
HETATM   13 BR1  UNL     1      28.870  -0.920  53.549  1.00  0.00    -0.056 Br
HETATM   14  C13 UNL     1      26.038  -0.360  54.093  1.00  0.00     0.018 C 
HETATM   15  C14 UNL     1      24.840  -0.296  53.362  1.00  0.00     0.048 C 
HETATM   16  C15 UNL     1      23.431  -0.437  53.648  1.00  0.00     0.130 C 
ENDBRANCH   6   7
BRANCH   1  17
HETATM   17  C3  UNL     1      21.851   1.200  50.132  1.00  0.00     0.049 C 
HETATM   18  C2  UNL     1      21.974   2.507  49.965  1.00  0.00     0.048 C 
BRANCH  18  19
HETATM   19  O1  UNL     1      21.289   3.478  50.664  1.00  0.00    -0.360 OA
HETATM   20  C1  UNL     1      20.578   4.550  50.117  1.00  0.00     0.209 C 
ENDBRANCH  18  19
BRANCH  18  21
HETATM   21  C16 UNL     1      22.857   3.180  49.009  1.00  0.00     0.090 C 
BRANCH  21  22
HETATM   22  C17 UNL     1      24.211   3.546  49.584  1.00  0.00     0.170 C 
BRANCH  22  23
HETATM   23  O2  UNL     1      24.106   4.385  50.673  1.00  0.00    -0.400 OA
HETATM   24  H20 UNL     1      23.391   5.045  50.486  1.00  0.00     0.209 HD
ENDBRANCH  22  23
ENDBRANCH  21  22
ENDBRANCH  18  21
ENDBRANCH   1  17
TORSDOF 6
ENDMDL
MODEL 7
REMARK VINA RESULT:      -6.6      3.409      5.586
REMARK  6 active torsions:
REMARK  status: ('A' for Active; 'I' for Inactive)
REMARK    1  A    between atoms: O1_2  and  C2_3 
REMARK    2  A    between atoms: C2_3  and  C16_21 
REMARK    3  A    between atoms: C3_4  and  C4_5 
REMARK    4  A    between atoms: C7_10  and  N3_11 
REMARK    5  A    between atoms: C16_21  and  C17_22 
REMARK    6  A    between atoms: C17_22  and  O2_23 
ROOT
HETATM    1  C4  UNL     1      24.953   1.849  53.498  1.00  0.00     0.030 A 
HETATM    2  C5  UNL     1      26.205   2.207  53.914  1.00  0.00     0.133 A 
HETATM    3  N1  UNL     1      26.917   1.254  54.524  1.00  0.00    -0.253 NA
HETATM    4  C6  UNL     1      26.519   0.004  54.761  1.00  0.00     0.234 A 
HETATM    5  N2  UNL     1      25.285  -0.311  54.339  1.00  0.00    -0.224 NA
HETATM    6  C7  UNL     1      24.472   0.590  53.700  1.00  0.00     0.139 A 
ENDROOT
BRANCH   6   7
HETATM    7  N3  UNL     1      23.288  -0.074  53.367  1.00  0.00    -0.361 N 
HETATM    8  C8  UNL     1      22.563  -1.044  52.528  1.00  0.00     0.151 C 
HETATM    9  C9  UNL     1      21.791  -0.125  51.557  1.00  0.00    -0.007 C 
HETATM   10  C10 UNL     1      20.923   0.584  50.850  1.00  0.00    -0.001 C 
HETATM   11  C11 UNL     1      19.464   0.802  50.836  1.00  0.00     0.014 C 
HETATM   12  C12 UNL     1      18.984   0.135  51.831  1.00  0.00    -0.011 C 
HETATM   13 BR1  UNL     1      17.049   0.338  51.811  1.00  0.00    -0.056 Br
HETATM   14  C13 UNL     1      19.598  -0.321  53.113  1.00  0.00     0.018 C 
HETATM   15  C14 UNL     1      20.891   0.224  53.184  1.00  0.00     0.048 C 
HETATM   16  C15 UNL     1      22.000   0.168  54.109  1.00  0.00     0.130 C 
ENDBRANCH   6   7
BRANCH   1  17
HETATM   17  C3  UNL     1      24.078   2.794  52.838  1.00  0.00     0.049 C 
HETATM   18  C2  UNL     1      24.352   3.228  51.618  1.00  0.00     0.048 C 
BRANCH  18  19
HETATM   19  O1  UNL     1      25.442   2.860  50.858  1.00  0.00    -0.360 OA
HETATM   20  C1  UNL     1      26.187   3.692  50.017  1.00  0.00     0.209 C 
ENDBRANCH  18  19
BRANCH  18  21
HETATM   21  C16 UNL     1      23.559   4.180  50.837  1.00  0.00     0.090 C 
BRANCH  21  22
HETATM   22  C17 UNL     1      23.055   5.359  51.644  1.00  0.00     0.170 C 
BRANCH  22  23
HETATM   23  O2  UNL     1      24.079   6.178  52.068  1.00  0.00    -0.400 OA
HETATM   24  H20 UNL     1      24.683   6.340  51.299  1.00  0.00     0.209 HD
ENDBRANCH  22  23
ENDBRANCH  21  22
ENDBRANCH  18  21
ENDBRANCH   1  17
TORSDOF 6
ENDMDL
MODEL 8
REMARK VINA RESULT:      -6.6      4.070      6.754
REMARK  6 active torsions:
REMARK  status: ('A' for Active; 'I' for Inactive)
REMARK    1  A    between atoms: O1_2  and  C2_3 
REMARK    2  A    between atoms: C2_3  and  C16_21 
REMARK    3  A    between atoms: C3_4  and  C4_5 
REMARK    4  A    between atoms: C7_10  and  N3_11 
REMARK    5  A    between atoms: C16_21  and  C17_22 
REMARK    6  A    between atoms: C17_22  and  O2_23 
ROOT
HETATM    1  C4  UNL     1      23.739   6.659  49.354  1.00  0.00     0.030 A 
HETATM    2  C5  UNL     1      23.087   7.846  49.166  1.00  0.00     0.133 A 
HETATM    3  N1  UNL     1      21.995   8.041  49.911  1.00  0.00    -0.253 NA
HETATM    4  C6  UNL     1      21.490   7.192  50.806  1.00  0.00     0.234 A 
HETATM    5  N2  UNL     1      22.156   6.037  50.962  1.00  0.00    -0.224 NA
HETATM    6  C7  UNL     1      23.289   5.737  50.251  1.00  0.00     0.139 A 
ENDROOT
BRANCH   6   7
HETATM    7  N3  UNL     1      23.742   4.489  50.687  1.00  0.00    -0.361 N 
HETATM    8  C8  UNL     1      24.329   3.170  50.389  1.00  0.00     0.151 C 
HETATM    9  C9  UNL     1      23.097   2.242  50.448  1.00  0.00    -0.007 C 
HETATM   10  C10 UNL     1      22.147   1.355  50.710  1.00  0.00    -0.001 C 
HETATM   11  C11 UNL     1      21.869   0.346  51.749  1.00  0.00     0.014 C 
HETATM   12  C12 UNL     1      22.815   0.448  52.622  1.00  0.00    -0.011 C 
HETATM   13 BR1  UNL     1      22.526  -0.914  53.982  1.00  0.00    -0.056 Br
HETATM   14  C13 UNL     1      23.712   1.583  52.989  1.00  0.00     0.018 C 
HETATM   15  C14 UNL     1      23.287   2.713  52.270  1.00  0.00     0.048 C 
HETATM   16  C15 UNL     1      23.710   4.089  52.138  1.00  0.00     0.130 C 
ENDBRANCH   6   7
BRANCH   1  17
HETATM   17  C3  UNL     1      24.926   6.322  48.597  1.00  0.00     0.049 C 
HETATM   18  C2  UNL     1      26.113   6.771  48.971  1.00  0.00     0.048 C 
BRANCH  18  19
HETATM   19  O1  UNL     1      26.365   7.571  50.065  1.00  0.00    -0.360 OA
HETATM   20  C1  UNL     1      26.826   8.891  50.041  1.00  0.00     0.209 C 
ENDBRANCH  18  19
BRANCH  18  21
HETATM   21  C16 UNL     1      27.390   6.511  48.302  1.00  0.00     0.090 C 
BRANCH  21  22
HETATM   22  C17 UNL     1      27.972   5.145  48.608  1.00  0.00     0.170 C 
BRANCH  22  23
HETATM   23  O2  UNL     1      29.280   5.220  49.038  1.00  0.00    -0.400 OA
HETATM   24  H20 UNL     1      29.655   6.085  48.735  1.00  0.00     0.209 HD
ENDBRANCH  22  23
ENDBRANCH  21  22
ENDBRANCH  18  21
ENDBRANCH   1  17
TORSDOF 6
ENDMDL
MODEL 9
REMARK VINA RESULT:      -6.6      2.704      4.706
REMARK  6 active torsions:
REMARK  status: ('A' for Active; 'I' for Inactive)
REMARK    1  A    between atoms: O1_2  and  C2_3 
REMARK    2  A    between atoms: C2_3  and  C16_21 
REMARK    3  A    between atoms: C3_4  and  C4_5 
REMARK    4  A    between atoms: C7_10  and  N3_11 
REMARK    5  A    between atoms: C16_21  and  C17_22 
REMARK    6  A    between atoms: C17_22  and  O2_23 
ROOT
HETATM    1  C4  UNL     1      22.229   0.920  52.182  1.00  0.00     0.030 A 
HETATM    2  C5  UNL     1      20.928   1.304  52.010  1.00  0.00     0.133 A 
HETATM    3  N1  UNL     1      20.043   0.783  52.864  1.00  0.00    -0.253 NA
HETATM    4  C6  UNL     1      20.311  -0.068  53.855  1.00  0.00     0.234 A 
HETATM    5  N2  UNL     1      21.598  -0.423  53.993  1.00  0.00    -0.224 NA
HETATM    6  C7  UNL     1      22.587   0.054  53.172  1.00  0.00     0.139 A 
ENDROOT
BRANCH   6   7
HETATM    7  N3  UNL     1      23.799  -0.482  53.617  1.00  0.00    -0.361 N 
HETATM    8  C8  UNL     1      24.700  -0.851  54.722  1.00  0.00     0.151 C 
HETATM    9  C9  UNL     1      25.734   0.295  54.698  1.00  0.00    -0.007 C 
HETATM   10  C10 UNL     1      26.782   1.100  54.596  1.00  0.00    -0.001 C 
HETATM   11  C11 UNL     1      28.194   0.988  54.183  1.00  0.00     0.014 C 
HETATM   12  C12 UNL     1      28.364  -0.228  53.784  1.00  0.00    -0.011 C 
HETATM   13 BR1  UNL     1      30.234  -0.442  53.292  1.00  0.00    -0.056 Br
HETATM   14  C13 UNL     1      27.408  -1.243  53.249  1.00  0.00     0.018 C 
HETATM   15  C14 UNL     1      26.160  -0.615  53.095  1.00  0.00     0.048 C 
HETATM   16  C15 UNL     1      24.838  -1.007  52.663  1.00  0.00     0.130 C 
ENDBRANCH   6   7
BRANCH   1  17
HETATM   17  C3  UNL     1      23.280   1.402  51.312  1.00  0.00     0.049 C 
HETATM   18  C2  UNL     1      23.942   2.510  51.605  1.00  0.00     0.048 C 
BRANCH  18  19
HETATM   19  O1  UNL     1      23.732   3.306  52.711  1.00  0.00    -0.360 OA
HETATM   20  C1  UNL     1      23.259   4.621  52.711  1.00  0.00     0.209 C 
ENDBRANCH  18  19
BRANCH  18  21
HETATM   21  C16 UNL     1      25.022   3.111  50.818  1.00  0.00     0.090 C 
BRANCH  21  22
HETATM   22  C17 UNL     1      26.404   2.632  51.215  1.00  0.00     0.170 C 
BRANCH  22  23
HETATM   23  O2  UNL     1      27.392   3.513  50.829  1.00  0.00    -0.400 OA
HETATM   24  H20 UNL     1      28.165   3.394  51.436  1.00  0.00     0.209 HD
ENDBRANCH  22  23
ENDBRANCH  21  22
ENDBRANCH  18  21
ENDBRANCH   1  17
TORSDOF 6
ENDMDL
