MODEL 1
REMARK VINA RESULT:      -7.3      0.000      0.000
REMARK  2 active torsions:
REMARK  status: ('A' for Active; 'I' for Inactive)
REMARK    1  A    between atoms: C13_15  and  O1_16 
REMARK    2  A    between atoms: C16_21  and  O3_22 
ROOT
HETATM    1  C1  UNL     1      22.763  -0.076  53.624  1.00  0.00     0.018 C 
HETATM    2  C2  UNL     1      23.517   0.536  52.959  1.00  0.00    -0.077 C 
HETATM    3  C3  UNL     1      24.434   1.258  52.179  1.00  0.00     0.026 A 
HETATM    4  C4  UNL     1      25.809   1.213  52.430  1.00  0.00     0.021 A 
HETATM    5  C5  UNL     1      26.774   1.906  51.698  1.00  0.00     0.004 A 
HETATM    6  C6  UNL     1      26.375   2.700  50.636  1.00  0.00     0.030 A 
HETATM    7  C7  UNL     1      24.996   2.750  50.370  1.00  0.00     0.042 A 
HETATM    8  C8  UNL     1      24.065   2.053  51.128  1.00  0.00     0.009 A 
HETATM    9  C9  UNL     1      22.816   2.619  50.620  1.00  0.00     0.107 A 
HETATM   10  C10 UNL     1      23.110   2.860  49.192  1.00  0.00     0.124 A 
HETATM   11  N1  UNL     1      22.391   2.613  48.104  1.00  0.00    -0.228 NA
HETATM   12  C11 UNL     1      21.123   1.986  48.249  1.00  0.00     0.229 A 
HETATM   13  N2  UNL     1      20.894   1.731  49.437  1.00  0.00    -0.269 NA
HETATM   14  C12 UNL     1      21.556   1.887  50.669  1.00  0.00     0.193 A 
HETATM   15  C13 UNL     1      20.567   2.326  51.718  1.00  0.00     0.117 C 
HETATM   16  C14 UNL     1      19.967   3.519  51.920  1.00  0.00     0.171 C 
HETATM   17  O2  UNL     1      20.297   4.562  51.017  1.00  0.00    -0.358 OA
HETATM   18  C15 UNL     1      21.603   4.885  50.562  1.00  0.00     0.208 C 
HETATM   19  C16 UNL     1      22.680   4.071  51.144  1.00  0.00     0.168 C 
HETATM   20  N3  UNL     1      24.466   3.300  49.155  1.00  0.00    -0.343 N 
HETATM   21  H14 UNL     1      24.932   3.873  48.421  1.00  0.00     0.167 HD
ENDROOT
BRANCH  19  22
HETATM   22  O3  UNL     1      22.653   3.954  52.520  1.00  0.00    -0.387 OA
HETATM   23  C17 UNL     1      23.459   4.840  53.198  1.00  0.00     0.202 C 
ENDBRANCH  19  22
BRANCH  15  24
HETATM   24  O1  UNL     1      20.105   1.453  52.706  1.00  0.00    -0.241 OA
HETATM   25 CL1  UNL     1      19.352  -0.024  52.197  1.00  0.00     0.067 Cl
ENDBRANCH  15  24
TORSDOF 2
ENDMDL
MODEL 2
REMARK VINA RESULT:      -7.2      1.840      2.662
REMARK  2 active torsions:
REMARK  status: ('A' for Active; 'I' for Inactive)
REMARK    1  A    between atoms: C13_15  and  O1_16 
REMARK    2  A    between atoms: C16_21  and  O3_22 
ROOT
HETATM    1  C1  UNL     1      26.503   1.253  51.488  1.00  0.00     0.018 C 
HETATM    2  C2  UNL     1      26.155   2.195  50.874  1.00  0.00    -0.077 C 
HETATM    3  C3  UNL     1      25.764   3.326  50.141  1.00  0.00     0.026 A 
HETATM    4  C4  UNL     1      26.689   4.285  49.717  1.00  0.00     0.021 A 
HETATM    5  C5  UNL     1      26.369   5.431  48.989  1.00  0.00     0.004 A 
HETATM    6  C6  UNL     1      25.049   5.664  48.641  1.00  0.00     0.030 A 
HETATM    7  C7  UNL     1      24.110   4.705  49.056  1.00  0.00     0.042 A 
HETATM    8  C8  UNL     1      24.466   3.581  49.788  1.00  0.00     0.009 A 
HETATM    9  C9  UNL     1      23.150   3.066  50.163  1.00  0.00     0.107 A 
HETATM   10  C10 UNL     1      22.312   3.393  48.990  1.00  0.00     0.124 A 
HETATM   11  N1  UNL     1      21.413   2.667  48.336  1.00  0.00    -0.228 NA
HETATM   12  C11 UNL     1      21.177   1.330  48.755  1.00  0.00     0.229 A 
HETATM   13  N2  UNL     1      21.914   1.031  49.702  1.00  0.00    -0.269 NA
HETATM   14  C12 UNL     1      22.922   1.658  50.458  1.00  0.00     0.193 A 
HETATM   15  C13 UNL     1      22.755   1.297  51.913  1.00  0.00     0.117 C 
HETATM   16  C14 UNL     1      21.850   1.711  52.825  1.00  0.00     0.171 C 
HETATM   17  O2  UNL     1      20.876   2.643  52.384  1.00  0.00    -0.358 OA
HETATM   18  C15 UNL     1      21.125   3.784  51.576  1.00  0.00     0.208 C 
HETATM   19  C16 UNL     1      22.538   4.005  51.234  1.00  0.00     0.168 C 
HETATM   20  N3  UNL     1      22.771   4.667  48.542  1.00  0.00    -0.343 N 
HETATM   21  H14 UNL     1      22.248   5.375  47.984  1.00  0.00     0.167 HD
ENDROOT
BRANCH  19  22
HETATM   22  O3  UNL     1      23.417   3.954  52.299  1.00  0.00    -0.387 OA
HETATM   23  C17 UNL     1      23.505   5.110  53.040  1.00  0.00     0.202 C 
ENDBRANCH  19  22
BRANCH  15  24
HETATM   24  O1  UNL     1      23.608   0.392  52.550  1.00  0.00    -0.241 OA
HETATM   25 CL1  UNL     1      22.890  -0.891  53.469  1.00  0.00     0.067 Cl
ENDBRANCH  15  24
TORSDOF 2
ENDMDL
MODEL 3
REMARK VINA RESULT:      -7.2      3.038      4.739
REMARK  2 active torsions:
REMARK  status: ('A' for Active; 'I' for Inactive)
REMARK    1  A    between atoms: C13_15  and  O1_16 
REMARK    2  A    between atoms: C16_21  and  O3_22 
ROOT
HETATM    1  C1  UNL     1      23.908   8.089  50.697  1.00  0.00     0.018 C 
HETATM    2  C2  UNL     1      24.683   7.312  50.273  1.00  0.00    -0.077 C 
HETATM    3  C3  UNL     1      25.618   6.403  49.754  1.00  0.00     0.026 A 
HETATM    4  C4  UNL     1      26.660   6.815  48.919  1.00  0.00     0.021 A 
HETATM    5  C5  UNL     1      27.621   5.966  48.368  1.00  0.00     0.004 A 
HETATM    6  C6  UNL     1      27.569   4.612  48.653  1.00  0.00     0.030 A 
HETATM    7  C7  UNL     1      26.530   4.185  49.496  1.00  0.00     0.042 A 
HETATM    8  C8  UNL     1      25.586   5.060  50.018  1.00  0.00     0.009 A 
HETATM    9  C9  UNL     1      24.626   4.119  50.593  1.00  0.00     0.107 A 
HETATM   10  C10 UNL     1      25.481   3.013  51.072  1.00  0.00     0.124 A 
HETATM   11  N1  UNL     1      25.464   2.335  52.213  1.00  0.00    -0.228 NA
HETATM   12  C11 UNL     1      24.510   2.688  53.206  1.00  0.00     0.229 A 
HETATM   13  N2  UNL     1      23.826   3.649  52.834  1.00  0.00    -0.269 NA
HETATM   14  C12 UNL     1      23.754   4.483  51.703  1.00  0.00     0.193 A 
HETATM   15  C13 UNL     1      22.308   4.739  51.362  1.00  0.00     0.117 C 
HETATM   16  C14 UNL     1      21.379   3.937  50.798  1.00  0.00     0.171 C 
HETATM   17  O2  UNL     1      21.792   2.625  50.450  1.00  0.00    -0.358 OA
HETATM   18  C15 UNL     1      23.010   2.281  49.805  1.00  0.00     0.208 C 
HETATM   19  C16 UNL     1      23.861   3.424  49.439  1.00  0.00     0.168 C 
HETATM   20  N3  UNL     1      26.510   2.881  50.093  1.00  0.00    -0.343 N 
HETATM   21  H14 UNL     1      27.087   2.040  49.883  1.00  0.00     0.167 HD
ENDROOT
BRANCH  19  22
HETATM   22  O3  UNL     1      23.219   4.446  48.767  1.00  0.00    -0.387 OA
HETATM   23  C17 UNL     1      22.668   4.095  47.556  1.00  0.00     0.202 C 
ENDBRANCH  19  22
BRANCH  15  24
HETATM   24  O1  UNL     1      21.696   5.968  51.622  1.00  0.00    -0.241 OA
HETATM   25 CL1  UNL     1      20.784   6.707  50.347  1.00  0.00     0.067 Cl
ENDBRANCH  15  24
TORSDOF 2
ENDMDL
MODEL 4
REMARK VINA RESULT:      -7.0      2.396      4.310
REMARK  2 active torsions:
REMARK  status: ('A' for Active; 'I' for Inactive)
REMARK    1  A    between atoms: C13_15  and  O1_16 
REMARK    2  A    between atoms: C16_21  and  O3_22 
ROOT
HETATM    1  C1  UNL     1      21.290   1.578  48.113  1.00  0.00     0.018 C 
HETATM    2  C2  UNL     1      21.619   1.358  49.221  1.00  0.00    -0.077 C 
HETATM    3  C3  UNL     1      21.994   1.079  50.545  1.00  0.00     0.026 A 
HETATM    4  C4  UNL     1      21.343   0.102  51.304  1.00  0.00     0.021 A 
HETATM    5  C5  UNL     1      21.662  -0.224  52.622  1.00  0.00     0.004 A 
HETATM    6  C6  UNL     1      22.696   0.447  53.253  1.00  0.00     0.030 A 
HETATM    7  C7  UNL     1      23.362   1.428  52.500  1.00  0.00     0.042 A 
HETATM    8  C8  UNL     1      23.009   1.731  51.192  1.00  0.00     0.009 A 
HETATM    9  C9  UNL     1      23.804   2.937  50.963  1.00  0.00     0.107 A 
HETATM   10  C10 UNL     1      25.037   2.680  51.736  1.00  0.00     0.124 A 
HETATM   11  N1  UNL     1      26.314   2.865  51.421  1.00  0.00    -0.228 NA
HETATM   12  C11 UNL     1      26.635   3.366  50.130  1.00  0.00     0.229 A 
HETATM   13  N2  UNL     1      25.610   3.532  49.457  1.00  0.00    -0.269 NA
HETATM   14  C12 UNL     1      24.226   3.345  49.629  1.00  0.00     0.193 A 
HETATM   15  C13 UNL     1      23.485   4.508  49.020  1.00  0.00     0.117 C 
HETATM   16  C14 UNL     1      23.340   5.782  49.445  1.00  0.00     0.171 C 
HETATM   17  O2  UNL     1      23.973   6.125  50.667  1.00  0.00    -0.358 OA
HETATM   18  C15 UNL     1      23.969   5.343  51.853  1.00  0.00     0.208 C 
HETATM   19  C16 UNL     1      23.184   4.102  51.774  1.00  0.00     0.168 C 
HETATM   20  N3  UNL     1      24.609   2.004  52.916  1.00  0.00    -0.343 N 
HETATM   21  H14 UNL     1      25.095   1.953  53.836  1.00  0.00     0.167 HD
ENDROOT
BRANCH  19  22
HETATM   22  O3  UNL     1      21.904   4.245  51.273  1.00  0.00    -0.387 OA
HETATM   23  C17 UNL     1      20.901   4.212  52.215  1.00  0.00     0.202 C 
ENDBRANCH  19  22
BRANCH  15  24
HETATM   24  O1  UNL     1      22.792   4.389  47.812  1.00  0.00    -0.241 OA
HETATM   25 CL1  UNL     1      21.266   5.200  47.669  1.00  0.00     0.067 Cl
ENDBRANCH  15  24
TORSDOF 2
ENDMDL
MODEL 5
REMARK VINA RESULT:      -7.0      8.763     11.227
REMARK  2 active torsions:
REMARK  status: ('A' for Active; 'I' for Inactive)
REMARK    1  A    between atoms: C13_15  and  O1_16 
REMARK    2  A    between atoms: C16_21  and  O3_22 
ROOT
HETATM    1  C1  UNL     1      29.698   9.447  44.296  1.00  0.00     0.018 C 
HETATM    2  C2  UNL     1      29.109   8.889  45.149  1.00  0.00    -0.077 C 
HETATM    3  C3  UNL     1      28.387   8.235  46.159  1.00  0.00     0.026 A 
HETATM    4  C4  UNL     1      27.006   8.404  46.305  1.00  0.00     0.021 A 
HETATM    5  C5  UNL     1      26.228   7.788  47.285  1.00  0.00     0.004 A 
HETATM    6  C6  UNL     1      26.835   6.937  48.193  1.00  0.00     0.030 A 
HETATM    7  C7  UNL     1      28.221   6.754  48.055  1.00  0.00     0.042 A 
HETATM    8  C8  UNL     1      28.964   7.393  47.071  1.00  0.00     0.009 A 
HETATM    9  C9  UNL     1      30.325   7.075  47.501  1.00  0.00     0.107 A 
HETATM   10  C10 UNL     1      30.192   5.717  48.069  1.00  0.00     0.124 A 
HETATM   11  N1  UNL     1      30.949   4.637  47.921  1.00  0.00    -0.228 NA
HETATM   12  C11 UNL     1      32.084   4.708  47.068  1.00  0.00     0.229 A 
HETATM   13  N2  UNL     1      32.171   5.826  46.547  1.00  0.00    -0.269 NA
HETATM   14  C12 UNL     1      31.442   7.030  46.567  1.00  0.00     0.193 A 
HETATM   15  C13 UNL     1      32.399   8.194  46.612  1.00  0.00     0.117 C 
HETATM   16  C14 UNL     1      33.163   8.669  47.619  1.00  0.00     0.171 C 
HETATM   17  O2  UNL     1      33.080   7.990  48.861  1.00  0.00    -0.358 OA
HETATM   18  C15 UNL     1      31.885   7.551  49.489  1.00  0.00     0.208 C 
HETATM   19  C16 UNL     1      30.647   7.897  48.775  1.00  0.00     0.168 C 
HETATM   20  N3  UNL     1      28.931   5.708  48.735  1.00  0.00    -0.343 N 
HETATM   21  H14 UNL     1      28.624   5.089  49.514  1.00  0.00     0.167 HD
ENDROOT
BRANCH  19  22
HETATM   22  O3  UNL     1      30.541   9.218  48.385  1.00  0.00    -0.387 OA
HETATM   23  C17 UNL     1      30.157  10.092  49.376  1.00  0.00     0.202 C 
ENDBRANCH  19  22
BRANCH  15  24
HETATM   24  O1  UNL     1      32.633   8.998  45.493  1.00  0.00    -0.241 OA
HETATM   25 CL1  UNL     1      32.841  10.700  45.747  1.00  0.00     0.067 Cl
ENDBRANCH  15  24
TORSDOF 2
ENDMDL
MODEL 6
REMARK VINA RESULT:      -6.5     10.091     12.344
REMARK  2 active torsions:
REMARK  status: ('A' for Active; 'I' for Inactive)
REMARK    1  A    between atoms: C13_15  and  O1_16 
REMARK    2  A    between atoms: C16_21  and  O3_22 
ROOT
HETATM    1  C1  UNL     1      30.088   5.567  48.084  1.00  0.00     0.018 C 
HETATM    2  C2  UNL     1      31.076   5.197  47.561  1.00  0.00    -0.077 C 
HETATM    3  C3  UNL     1      32.253   4.737  46.951  1.00  0.00     0.026 A 
HETATM    4  C4  UNL     1      32.775   3.468  47.223  1.00  0.00     0.021 A 
HETATM    5  C5  UNL     1      33.939   2.949  46.655  1.00  0.00     0.004 A 
HETATM    6  C6  UNL     1      34.650   3.718  45.749  1.00  0.00     0.030 A 
HETATM    7  C7  UNL     1      34.133   4.993  45.463  1.00  0.00     0.042 A 
HETATM    8  C8  UNL     1      32.976   5.479  46.056  1.00  0.00     0.009 A 
HETATM    9  C9  UNL     1      33.012   6.877  45.631  1.00  0.00     0.107 A 
HETATM   10  C10 UNL     1      33.607   6.804  44.280  1.00  0.00     0.124 A 
HETATM   11  N1  UNL     1      33.263   7.406  43.147  1.00  0.00    -0.228 NA
HETATM   12  C11 UNL     1      32.128   8.261  43.143  1.00  0.00     0.229 A 
HETATM   13  N2  UNL     1      31.593   8.284  44.258  1.00  0.00    -0.269 NA
HETATM   14  C12 UNL     1      31.805   7.684  45.513  1.00  0.00     0.193 A 
HETATM   15  C13 UNL     1      31.570   8.702  46.600  1.00  0.00     0.117 C 
HETATM   16  C14 UNL     1      32.321   9.749  47.004  1.00  0.00     0.171 C 
HETATM   17  O2  UNL     1      33.543   9.964  46.318  1.00  0.00    -0.358 OA
HETATM   18  C15 UNL     1      34.483   8.960  45.962  1.00  0.00     0.208 C 
HETATM   19  C16 UNL     1      34.139   7.603  46.410  1.00  0.00     0.168 C 
HETATM   20  N3  UNL     1      34.597   5.781  44.358  1.00  0.00    -0.343 N 
HETATM   21  H14 UNL     1      35.437   5.658  43.754  1.00  0.00     0.167 HD
ENDROOT
BRANCH  19  22
HETATM   22  O3  UNL     1      33.782   7.494  47.740  1.00  0.00    -0.387 OA
HETATM   23  C17 UNL     1      34.827   7.294  48.612  1.00  0.00     0.202 C 
ENDBRANCH  19  22
BRANCH  15  24
HETATM   24  O1  UNL     1      30.424   8.676  47.399  1.00  0.00    -0.241 OA
HETATM   25 CL1  UNL     1      30.606   9.008  49.091  1.00  0.00     0.067 Cl
ENDBRANCH  15  24
TORSDOF 2
ENDMDL
MODEL 7
REMARK VINA RESULT:      -6.4      7.327      9.090
REMARK  2 active torsions:
REMARK  status: ('A' for Active; 'I' for Inactive)
REMARK    1  A    between atoms: C13_15  and  O1_16 
REMARK    2  A    between atoms: C16_21  and  O3_22 
ROOT
HETATM    1  C1  UNL     1      30.610  10.335  49.588  1.00  0.00     0.018 C 
HETATM    2  C2  UNL     1      30.474   9.229  49.207  1.00  0.00    -0.077 C 
HETATM    3  C3  UNL     1      30.334   7.910  48.751  1.00  0.00     0.026 A 
HETATM    4  C4  UNL     1      31.443   7.121  48.429  1.00  0.00     0.021 A 
HETATM    5  C5  UNL     1      31.376   5.806  47.968  1.00  0.00     0.004 A 
HETATM    6  C6  UNL     1      30.138   5.206  47.813  1.00  0.00     0.030 A 
HETATM    7  C7  UNL     1      29.015   5.986  48.138  1.00  0.00     0.042 A 
HETATM    8  C8  UNL     1      29.121   7.296  48.584  1.00  0.00     0.009 A 
HETATM    9  C9  UNL     1      27.722   7.718  48.540  1.00  0.00     0.107 A 
HETATM   10  C10 UNL     1      26.987   6.489  48.906  1.00  0.00     0.124 A 
HETATM   11  N1  UNL     1      25.968   6.303  49.736  1.00  0.00    -0.228 NA
HETATM   12  C11 UNL     1      25.455   7.418  50.452  1.00  0.00     0.229 A 
HETATM   13  N2  UNL     1      26.101   8.440  50.193  1.00  0.00    -0.269 NA
HETATM   14  C12 UNL     1      27.206   8.782  49.391  1.00  0.00     0.193 A 
HETATM   15  C13 UNL     1      26.946  10.108  48.721  1.00  0.00     0.117 C 
HETATM   16  C14 UNL     1      26.133  10.433  47.693  1.00  0.00     0.171 C 
HETATM   17  O2  UNL     1      25.378   9.379  47.117  1.00  0.00    -0.358 OA
HETATM   18  C15 UNL     1      25.868   8.085  46.797  1.00  0.00     0.208 C 
HETATM   19  C16 UNL     1      27.301   7.884  47.058  1.00  0.00     0.168 C 
HETATM   20  N3  UNL     1      27.704   5.422  48.289  1.00  0.00    -0.343 N 
HETATM   21  H14 UNL     1      27.346   4.480  48.025  1.00  0.00     0.167 HD
ENDROOT
BRANCH  19  22
HETATM   22  O3  UNL     1      28.135   8.864  46.556  1.00  0.00    -0.387 OA
HETATM   23  C17 UNL     1      28.480   8.718  45.232  1.00  0.00     0.202 C 
ENDBRANCH  19  22
BRANCH  15  24
HETATM   24  O1  UNL     1      27.585  11.280  49.135  1.00  0.00    -0.241 OA
HETATM   25 CL1  UNL     1      28.096  12.400  47.915  1.00  0.00     0.067 Cl
ENDBRANCH  15  24
TORSDOF 2
ENDMDL
MODEL 8
REMARK VINA RESULT:      -6.4      2.867      3.976
REMARK  2 active torsions:
REMARK  status: ('A' for Active; 'I' for Inactive)
REMARK    1  A    between atoms: C13_15  and  O1_16 
REMARK    2  A    between atoms: C16_21  and  O3_22 
ROOT
HETATM    1  C1  UNL     1      26.752   3.100  50.225  1.00  0.00     0.018 C 
HETATM    2  C2  UNL     1      26.421   4.071  49.647  1.00  0.00    -0.077 C 
HETATM    3  C3  UNL     1      26.049   5.238  48.962  1.00  0.00     0.026 A 
HETATM    4  C4  UNL     1      26.975   6.239  48.655  1.00  0.00     0.021 A 
HETATM    5  C5  UNL     1      26.673   7.422  47.979  1.00  0.00     0.004 A 
HETATM    6  C6  UNL     1      25.372   7.649  47.564  1.00  0.00     0.030 A 
HETATM    7  C7  UNL     1      24.432   6.649  47.861  1.00  0.00     0.042 A 
HETATM    8  C8  UNL     1      24.769   5.488  48.544  1.00  0.00     0.009 A 
HETATM    9  C9  UNL     1      23.445   4.926  48.805  1.00  0.00     0.107 A 
HETATM   10  C10 UNL     1      22.673   5.308  47.604  1.00  0.00     0.124 A 
HETATM   11  N1  UNL     1      21.833   4.606  46.852  1.00  0.00    -0.228 NA
HETATM   12  C11 UNL     1      21.603   3.241  47.174  1.00  0.00     0.229 A 
HETATM   13  N2  UNL     1      22.288   2.899  48.146  1.00  0.00    -0.269 NA
HETATM   14  C12 UNL     1      23.233   3.497  49.000  1.00  0.00     0.193 A 
HETATM   15  C13 UNL     1      22.986   3.044  50.416  1.00  0.00     0.117 C 
HETATM   16  C14 UNL     1      22.017   3.383  51.294  1.00  0.00     0.171 C 
HETATM   17  O2  UNL     1      21.050   4.321  50.850  1.00  0.00    -0.358 OA
HETATM   18  C15 UNL     1      21.321   5.515  50.129  1.00  0.00     0.208 C 
HETATM   19  C16 UNL     1      22.747   5.784  49.890  1.00  0.00     0.168 C 
HETATM   20  N3  UNL     1      23.128   6.616  47.263  1.00  0.00    -0.343 N 
HETATM   21  H14 UNL     1      22.624   7.346  46.717  1.00  0.00     0.167 HD
ENDROOT
BRANCH  19  22
HETATM   22  O3  UNL     1      23.560   5.685  51.002  1.00  0.00    -0.387 OA
HETATM   23  C17 UNL     1      23.966   6.885  51.539  1.00  0.00     0.202 C 
ENDBRANCH  19  22
BRANCH  15  24
HETATM   24  O1  UNL     1      23.819   2.119  51.050  1.00  0.00    -0.241 OA
HETATM   25 CL1  UNL     1      23.124   1.103  52.270  1.00  0.00     0.067 Cl
ENDBRANCH  15  24
TORSDOF 2
ENDMDL
MODEL 9
REMARK VINA RESULT:      -6.3     10.539     12.845
REMARK  2 active torsions:
REMARK  status: ('A' for Active; 'I' for Inactive)
REMARK    1  A    between atoms: C13_15  and  O1_16 
REMARK    2  A    between atoms: C16_21  and  O3_22 
ROOT
HETATM    1  C1  UNL     1      33.152   4.886  43.446  1.00  0.00     0.018 C 
HETATM    2  C2  UNL     1      33.544   4.823  44.555  1.00  0.00    -0.077 C 
HETATM    3  C3  UNL     1      34.015   4.725  45.873  1.00  0.00     0.026 A 
HETATM    4  C4  UNL     1      34.484   3.517  46.399  1.00  0.00     0.021 A 
HETATM    5  C5  UNL     1      34.963   3.348  47.698  1.00  0.00     0.004 A 
HETATM    6  C6  UNL     1      34.993   4.436  48.554  1.00  0.00     0.030 A 
HETATM    7  C7  UNL     1      34.529   5.657  48.037  1.00  0.00     0.042 A 
HETATM    8  C8  UNL     1      34.051   5.784  46.740  1.00  0.00     0.009 A 
HETATM    9  C9  UNL     1      33.485   7.131  46.784  1.00  0.00     0.107 A 
HETATM   10  C10 UNL     1      34.400   7.853  47.692  1.00  0.00     0.124 A 
HETATM   11  N1  UNL     1      34.947   9.058  47.595  1.00  0.00    -0.228 NA
HETATM   12  C11 UNL     1      34.678   9.841  46.439  1.00  0.00     0.229 A 
HETATM   13  N2  UNL     1      33.957   9.221  45.649  1.00  0.00    -0.269 NA
HETATM   14  C12 UNL     1      33.347   7.954  45.589  1.00  0.00     0.193 A 
HETATM   15  C13 UNL     1      31.955   8.094  45.029  1.00  0.00     0.117 C 
HETATM   16  C14 UNL     1      30.825   8.582  45.586  1.00  0.00     0.171 C 
HETATM   17  O2  UNL     1      30.920   9.051  46.921  1.00  0.00    -0.358 OA
HETATM   18  C15 UNL     1      31.596   8.396  47.985  1.00  0.00     0.208 C 
HETATM   19  C16 UNL     1      32.190   7.097  47.635  1.00  0.00     0.168 C 
HETATM   20  N3  UNL     1      34.752   6.909  48.702  1.00  0.00    -0.343 N 
HETATM   21  H14 UNL     1      35.086   7.102  49.669  1.00  0.00     0.167 HD
ENDROOT
BRANCH  19  22
HETATM   22  O3  UNL     1      31.350   6.223  46.973  1.00  0.00    -0.387 OA
HETATM   23  C17 UNL     1      30.466   5.540  47.777  1.00  0.00     0.202 C 
ENDBRANCH  19  22
BRANCH  15  24
HETATM   24  O1  UNL     1      31.641   7.694  43.727  1.00  0.00    -0.241 OA
HETATM   25 CL1  UNL     1      32.605   8.323  42.431  1.00  0.00     0.067 Cl
ENDBRANCH  15  24
TORSDOF 2
ENDMDL
