MODEL 1
REMARK VINA RESULT:      -8.8      0.000      0.000
REMARK  6 active torsions:
REMARK  status: ('A' for Active; 'I' for Inactive)
REMARK    1  A    between atoms: N1_2  and  C3_4 
REMARK    2  A    between atoms: C3_4  and  C4_5 
REMARK    3  A    between atoms: C5_6  and  C6_7 
REMARK       I    between atoms: C6_7  and  N2_9 
REMARK    4  A    between atoms: N2_9  and  C7_10 
REMARK    5  A    between atoms: C13_16  and  N3_17 
REMARK    6  A    between atoms: N3_17  and  C14_18 
ROOT
HETATM    1  C7  UNL     1      25.841   3.946  49.545  1.00  0.00     0.035 A 
HETATM    2  C8  UNL     1      24.603   4.209  48.968  1.00  0.00     0.032 A 
HETATM    3  C9  UNL     1      23.435   3.844  49.604  1.00  0.00     0.035 A 
HETATM    4  C10 UNL     1      23.480   3.206  50.833  1.00  0.00     0.070 A 
HETATM    5  C11 UNL     1      24.727   2.960  51.376  1.00  0.00     0.022 A 
HETATM    6  C12 UNL     1      25.919   3.309  50.775  1.00  0.00     0.045 A 
HETATM    7  C13 UNL     1      24.758   2.286  52.675  1.00  0.00     0.059 C 
HETATM    8  C20 UNL     1      23.682   1.591  52.993  1.00  0.00     0.038 C 
HETATM    9  C21 UNL     1      22.527   1.887  52.527  1.00  0.00     0.100 C 
HETATM   10  N4  UNL     1      22.369   2.768  51.611  1.00  0.00    -0.245 NA
ENDROOT
BRANCH   1  11
HETATM   11  N2  UNL     1      27.061   4.328  48.878  1.00  0.00    -0.324 N 
HETATM   12  C6  UNL     1      27.251   5.734  48.785  1.00  0.00     0.245 C 
HETATM   13  O1  UNL     1      26.429   6.567  49.241  1.00  0.00    -0.268 OA
HETATM   14  H11 UNL     1      27.765   3.695  48.488  1.00  0.00     0.169 HD
BRANCH  12  15
HETATM   15  C5  UNL     1      28.450   6.216  48.130  1.00  0.00     0.072 C 
HETATM   16  C4  UNL     1      29.534   5.469  48.149  1.00  0.00     0.008 C 
BRANCH  16  17
HETATM   17  C3  UNL     1      30.887   5.635  47.606  1.00  0.00     0.299 C 
BRANCH  17  18
HETATM   18  N1  UNL     1      31.909   5.275  48.591  1.00  0.00     0.083 N 
HETATM   19  C1  UNL     1      31.938   6.333  49.589  1.00  0.00     0.309 C 
HETATM   20  C2  UNL     1      33.179   5.369  47.880  1.00  0.00     0.309 C 
ENDBRANCH  17  18
ENDBRANCH  16  17
ENDBRANCH  12  15
ENDBRANCH   1  11
BRANCH   7  21
HETATM   21  N3  UNL     1      25.883   2.377  53.541  1.00  0.00    -0.355 N 
HETATM   22  H15 UNL     1      25.931   3.150  54.246  1.00  0.00     0.166 HD
BRANCH  21  23
HETATM   23  C14 UNL     1      26.990   1.470  53.530  1.00  0.00     0.034 A 
HETATM   24  C15 UNL     1      28.291   1.817  53.848  1.00  0.00     0.032 A 
HETATM   25  C16 UNL     1      29.306   0.876  53.811  1.00  0.00     0.046 A 
HETATM   26  C17 UNL     1      29.064  -0.439  53.459  1.00  0.00     0.138 A 
HETATM   27  F1  UNL     1      30.086  -1.331  53.435  1.00  0.00    -0.204 F 
HETATM   28  C18 UNL     1      27.772  -0.806  53.137  1.00  0.00     0.074 A 
HETATM   29 CL1  UNL     1      27.504  -2.471  52.698  1.00  0.00    -0.081 Cl
HETATM   30  C19 UNL     1      26.758   0.144  53.177  1.00  0.00     0.056 A 
ENDBRANCH  21  23
ENDBRANCH   7  21
TORSDOF 6
ENDMDL
MODEL 2
REMARK VINA RESULT:      -8.5      2.079      2.535
REMARK  6 active torsions:
REMARK  status: ('A' for Active; 'I' for Inactive)
REMARK    1  A    between atoms: N1_2  and  C3_4 
REMARK    2  A    between atoms: C3_4  and  C4_5 
REMARK    3  A    between atoms: C5_6  and  C6_7 
REMARK       I    between atoms: C6_7  and  N2_9 
REMARK    4  A    between atoms: N2_9  and  C7_10 
REMARK    5  A    between atoms: C13_16  and  N3_17 
REMARK    6  A    between atoms: N3_17  and  C14_18 
ROOT
HETATM    1  C7  UNL     1      24.319   2.826  50.099  1.00  0.00     0.035 A 
HETATM    2  C8  UNL     1      23.061   2.575  49.561  1.00  0.00     0.032 A 
HETATM    3  C9  UNL     1      22.193   1.699  50.178  1.00  0.00     0.035 A 
HETATM    4  C10 UNL     1      22.564   1.053  51.346  1.00  0.00     0.070 A 
HETATM    5  C11 UNL     1      23.822   1.327  51.850  1.00  0.00     0.022 A 
HETATM    6  C12 UNL     1      24.721   2.195  51.267  1.00  0.00     0.045 A 
HETATM    7  C13 UNL     1      24.200   0.637  53.085  1.00  0.00     0.059 C 
HETATM    8  C20 UNL     1      23.539  -0.474  53.354  1.00  0.00     0.038 C 
HETATM    9  C21 UNL     1      22.347  -0.668  52.930  1.00  0.00     0.100 C 
HETATM   10  N4  UNL     1      21.785   0.125  52.096  1.00  0.00    -0.245 NA
ENDROOT
BRANCH   1  11
HETATM   11  N2  UNL     1      25.226   3.742  49.453  1.00  0.00    -0.324 N 
HETATM   12  C6  UNL     1      25.136   5.078  49.933  1.00  0.00     0.245 C 
HETATM   13  O1  UNL     1      24.337   5.426  50.837  1.00  0.00    -0.268 OA
HETATM   14  H11 UNL     1      25.897   3.514  48.713  1.00  0.00     0.169 HD
BRANCH  12  15
HETATM   15  C5  UNL     1      26.010   6.072  49.344  1.00  0.00     0.072 C 
HETATM   16  C4  UNL     1      27.105   5.678  48.728  1.00  0.00     0.008 C 
BRANCH  16  17
HETATM   17  C3  UNL     1      28.188   6.387  48.038  1.00  0.00     0.299 C 
BRANCH  17  18
HETATM   18  N1  UNL     1      27.832   7.782  47.771  1.00  0.00     0.083 N 
HETATM   19  C1  UNL     1      28.338   8.112  46.447  1.00  0.00     0.309 C 
HETATM   20  C2  UNL     1      28.631   8.569  48.705  1.00  0.00     0.309 C 
ENDBRANCH  17  18
ENDBRANCH  16  17
ENDBRANCH  12  15
ENDBRANCH   1  11
BRANCH   7  21
HETATM   21  N3  UNL     1      25.219   1.137  53.942  1.00  0.00    -0.355 N 
HETATM   22  H15 UNL     1      24.960   1.758  54.744  1.00  0.00     0.166 HD
BRANCH  21  23
HETATM   23  C14 UNL     1      26.614   0.853  53.794  1.00  0.00     0.034 A 
HETATM   24  C15 UNL     1      27.621   1.796  53.893  1.00  0.00     0.032 A 
HETATM   25  C16 UNL     1      28.948   1.436  53.736  1.00  0.00     0.046 A 
HETATM   26  C17 UNL     1      29.321   0.129  53.477  1.00  0.00     0.138 A 
HETATM   27  F1  UNL     1      30.633  -0.183  53.330  1.00  0.00    -0.204 F 
HETATM   28  C18 UNL     1      28.331  -0.828  53.375  1.00  0.00     0.074 A 
HETATM   29 CL1  UNL     1      28.836  -2.463  53.048  1.00  0.00    -0.081 Cl
HETATM   30  C19 UNL     1      27.000  -0.459  53.534  1.00  0.00     0.056 A 
ENDBRANCH  21  23
ENDBRANCH   7  21
TORSDOF 6
ENDMDL
MODEL 3
REMARK VINA RESULT:      -8.4      2.137      2.661
REMARK  6 active torsions:
REMARK  status: ('A' for Active; 'I' for Inactive)
REMARK    1  A    between atoms: N1_2  and  C3_4 
REMARK    2  A    between atoms: C3_4  and  C4_5 
REMARK    3  A    between atoms: C5_6  and  C6_7 
REMARK       I    between atoms: C6_7  and  N2_9 
REMARK    4  A    between atoms: N2_9  and  C7_10 
REMARK    5  A    between atoms: C13_16  and  N3_17 
REMARK    6  A    between atoms: N3_17  and  C14_18 
ROOT
HETATM    1  C7  UNL     1      24.337   2.936  49.906  1.00  0.00     0.035 A 
HETATM    2  C8  UNL     1      23.098   2.859  49.279  1.00  0.00     0.032 A 
HETATM    3  C9  UNL     1      22.091   2.073  49.801  1.00  0.00     0.035 A 
HETATM    4  C10 UNL     1      22.303   1.346  50.961  1.00  0.00     0.070 A 
HETATM    5  C11 UNL     1      23.548   1.446  51.555  1.00  0.00     0.022 A 
HETATM    6  C12 UNL     1      24.581   2.220  51.069  1.00  0.00     0.045 A 
HETATM    7  C13 UNL     1      23.756   0.672  52.780  1.00  0.00     0.059 C 
HETATM    8  C20 UNL     1      22.952  -0.359  52.958  1.00  0.00     0.038 C 
HETATM    9  C21 UNL     1      21.777  -0.392  52.452  1.00  0.00     0.100 C 
HETATM   10  N4  UNL     1      21.371   0.493  51.619  1.00  0.00    -0.245 NA
ENDROOT
BRANCH   1  11
HETATM   11  N2  UNL     1      25.388   3.758  49.359  1.00  0.00    -0.324 N 
HETATM   12  C6  UNL     1      25.366   5.104  49.818  1.00  0.00     0.245 C 
HETATM   13  O1  UNL     1      24.507   5.536  50.626  1.00  0.00    -0.268 OA
HETATM   14  H11 UNL     1      26.113   3.460  48.699  1.00  0.00     0.169 HD
BRANCH  12  15
HETATM   15  C5  UNL     1      26.385   6.008  49.324  1.00  0.00     0.072 C 
HETATM   16  C4  UNL     1      27.416   5.514  48.670  1.00  0.00     0.008 C 
BRANCH  16  17
HETATM   17  C3  UNL     1      28.600   6.115  48.047  1.00  0.00     0.299 C 
BRANCH  17  18
HETATM   18  N1  UNL     1      28.380   7.527  47.726  1.00  0.00     0.083 N 
HETATM   19  C1  UNL     1      29.024   7.785  46.447  1.00  0.00     0.309 C 
HETATM   20  C2  UNL     1      29.153   8.272  48.714  1.00  0.00     0.309 C 
ENDBRANCH  17  18
ENDBRANCH  16  17
ENDBRANCH  12  15
ENDBRANCH   1  11
BRANCH   7  21
HETATM   21  N3  UNL     1      24.768   1.014  53.721  1.00  0.00    -0.355 N 
HETATM   22  H15 UNL     1      24.529   1.627  54.536  1.00  0.00     0.166 HD
BRANCH  21  23
HETATM   23  C14 UNL     1      26.128   0.577  53.644  1.00  0.00     0.034 A 
HETATM   24  C15 UNL     1      26.530  -0.647  53.140  1.00  0.00     0.032 A 
HETATM   25  C16 UNL     1      27.870  -0.994  53.102  1.00  0.00     0.046 A 
HETATM   26  C17 UNL     1      28.855  -0.138  53.560  1.00  0.00     0.138 A 
HETATM   27  F1  UNL     1      30.157  -0.515  53.506  1.00  0.00    -0.204 F 
HETATM   28  C18 UNL     1      28.474   1.089  54.068  1.00  0.00     0.074 A 
HETATM   29 CL1  UNL     1      29.741   2.142  54.637  1.00  0.00    -0.081 Cl
HETATM   30  C19 UNL     1      27.127   1.430  54.103  1.00  0.00     0.056 A 
ENDBRANCH  21  23
ENDBRANCH   7  21
TORSDOF 6
ENDMDL
MODEL 4
REMARK VINA RESULT:      -8.3      2.994      4.388
REMARK  6 active torsions:
REMARK  status: ('A' for Active; 'I' for Inactive)
REMARK    1  A    between atoms: N1_2  and  C3_4 
REMARK    2  A    between atoms: C3_4  and  C4_5 
REMARK    3  A    between atoms: C5_6  and  C6_7 
REMARK       I    between atoms: C6_7  and  N2_9 
REMARK    4  A    between atoms: N2_9  and  C7_10 
REMARK    5  A    between atoms: C13_16  and  N3_17 
REMARK    6  A    between atoms: N3_17  and  C14_18 
ROOT
HETATM    1  C7  UNL     1      22.028   1.570  50.277  1.00  0.00     0.035 A 
HETATM    2  C8  UNL     1      20.691   1.189  50.243  1.00  0.00     0.032 A 
HETATM    3  C9  UNL     1      20.145   0.440  51.264  1.00  0.00     0.035 A 
HETATM    4  C10 UNL     1      20.925   0.054  52.341  1.00  0.00     0.070 A 
HETATM    5  C11 UNL     1      22.249   0.450  52.341  1.00  0.00     0.022 A 
HETATM    6  C12 UNL     1      22.836   1.200  51.342  1.00  0.00     0.045 A 
HETATM    7  C13 UNL     1      23.061   0.035  53.486  1.00  0.00     0.059 C 
HETATM    8  C20 UNL     1      22.620  -1.011  54.160  1.00  0.00     0.038 C 
HETATM    9  C21 UNL     1      21.376  -1.311  54.199  1.00  0.00     0.100 C 
HETATM   10  N4  UNL     1      20.510  -0.717  53.466  1.00  0.00    -0.245 NA
ENDROOT
BRANCH   1  11
HETATM   11  N2  UNL     1      22.598   2.354  49.208  1.00  0.00    -0.324 N 
HETATM   12  C6  UNL     1      22.659   3.747  49.485  1.00  0.00     0.245 C 
HETATM   13  O1  UNL     1      22.253   4.249  50.562  1.00  0.00    -0.268 OA
HETATM   14  H11 UNL     1      22.944   1.999  48.312  1.00  0.00     0.169 HD
BRANCH  12  15
HETATM   15  C5  UNL     1      23.218   4.618  48.469  1.00  0.00     0.072 C 
HETATM   16  C4  UNL     1      23.981   5.624  48.839  1.00  0.00     0.008 C 
BRANCH  16  17
HETATM   17  C3  UNL     1      24.693   6.677  48.105  1.00  0.00     0.299 C 
BRANCH  17  18
HETATM   18  N1  UNL     1      25.888   7.119  48.825  1.00  0.00     0.083 N 
HETATM   19  C1  UNL     1      26.908   6.099  48.640  1.00  0.00     0.309 C 
HETATM   20  C2  UNL     1      25.529   7.065  50.239  1.00  0.00     0.309 C 
ENDBRANCH  17  18
ENDBRANCH  16  17
ENDBRANCH  12  15
ENDBRANCH   1  11
BRANCH   7  21
HETATM   21  N3  UNL     1      24.254   0.720  53.848  1.00  0.00    -0.355 N 
HETATM   22  H15 UNL     1      24.191   1.651  54.324  1.00  0.00     0.166 HD
BRANCH  21  23
HETATM   23  C14 UNL     1      25.576   0.227  53.609  1.00  0.00     0.034 A 
HETATM   24  C15 UNL     1      25.865  -0.948  52.940  1.00  0.00     0.032 A 
HETATM   25  C16 UNL     1      27.175  -1.354  52.752  1.00  0.00     0.046 A 
HETATM   26  C17 UNL     1      28.241  -0.608  53.220  1.00  0.00     0.138 A 
HETATM   27  F1  UNL     1      29.511  -1.040  53.015  1.00  0.00    -0.204 F 
HETATM   28  C18 UNL     1      27.974   0.570  53.891  1.00  0.00     0.074 A 
HETATM   29 CL1  UNL     1      29.341   1.484  54.467  1.00  0.00    -0.081 Cl
HETATM   30  C19 UNL     1      26.656   0.971  54.076  1.00  0.00     0.056 A 
ENDBRANCH  21  23
ENDBRANCH   7  21
TORSDOF 6
ENDMDL
MODEL 5
REMARK VINA RESULT:      -8.3      4.965      9.750
REMARK  6 active torsions:
REMARK  status: ('A' for Active; 'I' for Inactive)
REMARK    1  A    between atoms: N1_2  and  C3_4 
REMARK    2  A    between atoms: C3_4  and  C4_5 
REMARK    3  A    between atoms: C5_6  and  C6_7 
REMARK       I    between atoms: C6_7  and  N2_9 
REMARK    4  A    between atoms: N2_9  and  C7_10 
REMARK    5  A    between atoms: C13_16  and  N3_17 
REMARK    6  A    between atoms: N3_17  and  C14_18 
ROOT
HETATM    1  C7  UNL     1      22.698  -1.248  54.159  1.00  0.00     0.035 A 
HETATM    2  C8  UNL     1      23.164  -1.513  55.443  1.00  0.00     0.032 A 
HETATM    3  C9  UNL     1      24.440  -1.151  55.819  1.00  0.00     0.035 A 
HETATM    4  C10 UNL     1      25.280  -0.515  54.919  1.00  0.00     0.070 A 
HETATM    5  C11 UNL     1      24.783  -0.268  53.653  1.00  0.00     0.022 A 
HETATM    6  C12 UNL     1      23.514  -0.612  53.235  1.00  0.00     0.045 A 
HETATM    7  C13 UNL     1      25.681   0.405  52.713  1.00  0.00     0.059 C 
HETATM    8  C20 UNL     1      26.971   0.313  52.978  1.00  0.00     0.038 C 
HETATM    9  C21 UNL     1      27.404   0.154  54.172  1.00  0.00     0.100 C 
HETATM   10  N4  UNL     1      26.617  -0.081  55.154  1.00  0.00    -0.245 NA
ENDROOT
BRANCH   1  11
HETATM   11  N2  UNL     1      21.363  -1.627  53.767  1.00  0.00    -0.324 N 
HETATM   12  C6  UNL     1      20.409  -0.579  53.880  1.00  0.00     0.245 C 
HETATM   13  O1  UNL     1      20.703   0.572  54.286  1.00  0.00    -0.268 OA
HETATM   14  H11 UNL     1      21.067  -2.549  53.430  1.00  0.00     0.169 HD
BRANCH  12  15
HETATM   15  C5  UNL     1      19.038  -0.866  53.508  1.00  0.00     0.072 C 
HETATM   16  C4  UNL     1      18.559  -0.361  52.391  1.00  0.00     0.008 C 
BRANCH  16  17
HETATM   17  C3  UNL     1      17.256  -0.439  51.722  1.00  0.00     0.299 C 
BRANCH  17  18
HETATM   18  N1  UNL     1      16.190  -0.793  52.662  1.00  0.00     0.083 N 
HETATM   19  C1  UNL     1      15.460  -1.912  52.088  1.00  0.00     0.309 C 
HETATM   20  C2  UNL     1      15.264   0.335  52.637  1.00  0.00     0.309 C 
ENDBRANCH  17  18
ENDBRANCH  16  17
ENDBRANCH  12  15
ENDBRANCH   1  11
BRANCH   7  21
HETATM   21  N3  UNL     1      25.190   1.115  51.582  1.00  0.00    -0.355 N 
HETATM   22  H15 UNL     1      25.166   0.643  50.647  1.00  0.00     0.166 HD
BRANCH  21  23
HETATM   23  C14 UNL     1      24.710   2.462  51.617  1.00  0.00     0.034 A 
HETATM   24  C15 UNL     1      24.093   3.047  52.708  1.00  0.00     0.032 A 
HETATM   25  C16 UNL     1      23.657   4.360  52.658  1.00  0.00     0.046 A 
HETATM   26  C17 UNL     1      23.820   5.137  51.525  1.00  0.00     0.138 A 
HETATM   27  F1  UNL     1      23.379   6.419  51.516  1.00  0.00    -0.204 F 
HETATM   28  C18 UNL     1      24.434   4.572  50.424  1.00  0.00     0.074 A 
HETATM   29 CL1  UNL     1      24.622   5.579  49.015  1.00  0.00    -0.081 Cl
HETATM   30  C19 UNL     1      24.869   3.253  50.482  1.00  0.00     0.056 A 
ENDBRANCH  21  23
ENDBRANCH   7  21
TORSDOF 6
ENDMDL
MODEL 6
REMARK VINA RESULT:      -8.0      3.665      5.651
REMARK  6 active torsions:
REMARK  status: ('A' for Active; 'I' for Inactive)
REMARK    1  A    between atoms: N1_2  and  C3_4 
REMARK    2  A    between atoms: C3_4  and  C4_5 
REMARK    3  A    between atoms: C5_6  and  C6_7 
REMARK       I    between atoms: C6_7  and  N2_9 
REMARK    4  A    between atoms: N2_9  and  C7_10 
REMARK    5  A    between atoms: C13_16  and  N3_17 
REMARK    6  A    between atoms: N3_17  and  C14_18 
ROOT
HETATM    1  C7  UNL     1      26.047   2.166  51.802  1.00  0.00     0.035 A 
HETATM    2  C8  UNL     1      26.659   1.008  52.270  1.00  0.00     0.032 A 
HETATM    3  C9  UNL     1      25.916   0.003  52.851  1.00  0.00     0.035 A 
HETATM    4  C10 UNL     1      24.543   0.134  52.979  1.00  0.00     0.070 A 
HETATM    5  C11 UNL     1      23.969   1.299  52.504  1.00  0.00     0.022 A 
HETATM    6  C12 UNL     1      24.674   2.329  51.916  1.00  0.00     0.045 A 
HETATM    7  C13 UNL     1      22.518   1.423  52.646  1.00  0.00     0.059 C 
HETATM    8  C20 UNL     1      21.960   0.670  53.576  1.00  0.00     0.038 C 
HETATM    9  C21 UNL     1      22.479  -0.440  53.945  1.00  0.00     0.100 C 
HETATM   10  N4  UNL     1      23.642  -0.809  53.554  1.00  0.00    -0.245 NA
ENDROOT
BRANCH   1  11
HETATM   11  N2  UNL     1      26.826   3.217  51.194  1.00  0.00    -0.324 N 
HETATM   12  C6  UNL     1      26.478   3.484  49.842  1.00  0.00     0.245 C 
HETATM   13  O1  UNL     1      25.575   2.860  49.233  1.00  0.00    -0.268 OA
HETATM   14  H11 UNL     1      27.573   3.758  51.642  1.00  0.00     0.169 HD
BRANCH  12  15
HETATM   15  C5  UNL     1      27.207   4.525  49.145  1.00  0.00     0.072 C 
HETATM   16  C4  UNL     1      26.593   5.653  48.858  1.00  0.00     0.008 C 
BRANCH  16  17
HETATM   17  C3  UNL     1      27.008   6.887  48.181  1.00  0.00     0.299 C 
BRANCH  17  18
HETATM   18  N1  UNL     1      28.397   7.229  48.492  1.00  0.00     0.083 N 
HETATM   19  C1  UNL     1      28.414   8.617  48.927  1.00  0.00     0.309 C 
HETATM   20  C2  UNL     1      29.095   7.209  47.211  1.00  0.00     0.309 C 
ENDBRANCH  17  18
ENDBRANCH  16  17
ENDBRANCH  12  15
ENDBRANCH   1  11
BRANCH   7  21
HETATM   21  N3  UNL     1      21.756   2.305  51.829  1.00  0.00    -0.355 N 
HETATM   22  H15 UNL     1      21.058   2.947  52.274  1.00  0.00     0.166 HD
BRANCH  21  23
HETATM   23  C14 UNL     1      21.868   2.390  50.405  1.00  0.00     0.034 A 
HETATM   24  C15 UNL     1      21.685   1.326  49.540  1.00  0.00     0.032 A 
HETATM   25  C16 UNL     1      21.813   1.494  48.172  1.00  0.00     0.046 A 
HETATM   26  C17 UNL     1      22.125   2.722  47.617  1.00  0.00     0.138 A 
HETATM   27  F1  UNL     1      22.241   2.845  46.271  1.00  0.00    -0.204 F 
HETATM   28  C18 UNL     1      22.311   3.797  48.464  1.00  0.00     0.074 A 
HETATM   29 CL1  UNL     1      22.703   5.328  47.730  1.00  0.00    -0.081 Cl
HETATM   30  C19 UNL     1      22.181   3.621  49.836  1.00  0.00     0.056 A 
ENDBRANCH  21  23
ENDBRANCH   7  21
TORSDOF 6
ENDMDL
MODEL 7
REMARK VINA RESULT:      -8.0      2.110      2.989
REMARK  6 active torsions:
REMARK  status: ('A' for Active; 'I' for Inactive)
REMARK    1  A    between atoms: N1_2  and  C3_4 
REMARK    2  A    between atoms: C3_4  and  C4_5 
REMARK    3  A    between atoms: C5_6  and  C6_7 
REMARK       I    between atoms: C6_7  and  N2_9 
REMARK    4  A    between atoms: N2_9  and  C7_10 
REMARK    5  A    between atoms: C13_16  and  N3_17 
REMARK    6  A    between atoms: N3_17  and  C14_18 
ROOT
HETATM    1  C7  UNL     1      26.569   6.358  48.853  1.00  0.00     0.035 A 
HETATM    2  C8  UNL     1      25.677   6.989  47.992  1.00  0.00     0.032 A 
HETATM    3  C9  UNL     1      24.347   6.624  47.963  1.00  0.00     0.035 A 
HETATM    4  C10 UNL     1      23.879   5.620  48.795  1.00  0.00     0.070 A 
HETATM    5  C11 UNL     1      24.795   5.016  49.637  1.00  0.00     0.022 A 
HETATM    6  C12 UNL     1      26.132   5.349  49.699  1.00  0.00     0.045 A 
HETATM    7  C13 UNL     1      24.286   3.957  50.510  1.00  0.00     0.059 C 
HETATM    8  C20 UNL     1      23.166   3.375  50.124  1.00  0.00     0.038 C 
HETATM    9  C21 UNL     1      22.304   3.986  49.402  1.00  0.00     0.100 C 
HETATM   10  N4  UNL     1      22.543   5.133  48.882  1.00  0.00    -0.245 NA
ENDROOT
BRANCH   1  11
HETATM   11  N2  UNL     1      27.959   6.740  48.882  1.00  0.00    -0.324 N 
HETATM   12  C6  UNL     1      28.850   5.703  48.491  1.00  0.00     0.245 C 
HETATM   13  O1  UNL     1      28.460   4.559  48.153  1.00  0.00    -0.268 OA
HETATM   14  H11 UNL     1      28.333   7.656  49.148  1.00  0.00     0.169 HD
BRANCH  12  15
HETATM   15  C5  UNL     1      30.270   5.992  48.488  1.00  0.00     0.072 C 
HETATM   16  C4  UNL     1      31.069   5.264  47.737  1.00  0.00     0.008 C 
BRANCH  16  17
HETATM   17  C3  UNL     1      32.516   5.274  47.495  1.00  0.00     0.299 C 
BRANCH  17  18
HETATM   18  N1  UNL     1      33.001   3.954  47.085  1.00  0.00     0.083 N 
HETATM   19  C1  UNL     1      33.778   4.137  45.869  1.00  0.00     0.309 C 
HETATM   20  C2  UNL     1      31.809   3.214  46.683  1.00  0.00     0.309 C 
ENDBRANCH  17  18
ENDBRANCH  16  17
ENDBRANCH  12  15
ENDBRANCH   1  11
BRANCH   7  21
HETATM   21  N3  UNL     1      24.962   3.579  51.704  1.00  0.00    -0.355 N 
HETATM   22  H15 UNL     1      25.204   4.310  52.414  1.00  0.00     0.166 HD
BRANCH  21  23
HETATM   23  C14 UNL     1      25.351   2.240  52.026  1.00  0.00     0.034 A 
HETATM   24  C15 UNL     1      26.485   1.615  51.539  1.00  0.00     0.032 A 
HETATM   25  C16 UNL     1      26.789   0.313  51.900  1.00  0.00     0.046 A 
HETATM   26  C17 UNL     1      25.979  -0.410  52.757  1.00  0.00     0.138 A 
HETATM   27  F1  UNL     1      26.312  -1.683  53.087  1.00  0.00    -0.204 F 
HETATM   28  C18 UNL     1      24.842   0.196  53.254  1.00  0.00     0.074 A 
HETATM   29 CL1  UNL     1      23.845  -0.745  54.330  1.00  0.00    -0.081 Cl
HETATM   30  C19 UNL     1      24.544   1.503  52.886  1.00  0.00     0.056 A 
ENDBRANCH  21  23
ENDBRANCH   7  21
TORSDOF 6
ENDMDL
MODEL 8
REMARK VINA RESULT:      -7.8      4.750      5.796
REMARK  6 active torsions:
REMARK  status: ('A' for Active; 'I' for Inactive)
REMARK    1  A    between atoms: N1_2  and  C3_4 
REMARK    2  A    between atoms: C3_4  and  C4_5 
REMARK    3  A    between atoms: C5_6  and  C6_7 
REMARK       I    between atoms: C6_7  and  N2_9 
REMARK    4  A    between atoms: N2_9  and  C7_10 
REMARK    5  A    between atoms: C13_16  and  N3_17 
REMARK    6  A    between atoms: N3_17  and  C14_18 
ROOT
HETATM    1  C7  UNL     1      21.337   1.711  50.614  1.00  0.00     0.035 A 
HETATM    2  C8  UNL     1      20.039   1.250  50.805  1.00  0.00     0.032 A 
HETATM    3  C9  UNL     1      19.735   0.413  51.859  1.00  0.00     0.035 A 
HETATM    4  C10 UNL     1      20.724   0.017  52.744  1.00  0.00     0.070 A 
HETATM    5  C11 UNL     1      22.003   0.494  52.522  1.00  0.00     0.022 A 
HETATM    6  C12 UNL     1      22.351   1.332  51.483  1.00  0.00     0.045 A 
HETATM    7  C13 UNL     1      23.037   0.067  53.465  1.00  0.00     0.059 C 
HETATM    8  C20 UNL     1      22.786  -1.040  54.139  1.00  0.00     0.038 C 
HETATM    9  C21 UNL     1      21.589  -1.418  54.390  1.00  0.00     0.100 C 
HETATM   10  N4  UNL     1      20.571  -0.839  53.873  1.00  0.00    -0.245 NA
ENDROOT
BRANCH   1  11
HETATM   11  N2  UNL     1      21.654   2.586  49.512  1.00  0.00    -0.324 N 
HETATM   12  C6  UNL     1      21.876   1.907  48.282  1.00  0.00     0.245 C 
HETATM   13  O1  UNL     1      21.803   0.659  48.168  1.00  0.00    -0.268 OA
HETATM   14  H11 UNL     1      21.726   3.607  49.548  1.00  0.00     0.169 HD
BRANCH  12  15
HETATM   15  C5  UNL     1      22.200   2.703  47.116  1.00  0.00     0.072 C 
HETATM   16  C4  UNL     1      21.664   3.899  46.988  1.00  0.00     0.008 C 
BRANCH  16  17
HETATM   17  C3  UNL     1      21.765   4.949  45.968  1.00  0.00     0.299 C 
BRANCH  17  18
HETATM   18  N1  UNL     1      21.649   6.284  46.558  1.00  0.00     0.083 N 
HETATM   19  C1  UNL     1      21.486   7.228  45.464  1.00  0.00     0.309 C 
HETATM   20  C2  UNL     1      22.961   6.567  47.131  1.00  0.00     0.309 C 
ENDBRANCH  17  18
ENDBRANCH  16  17
ENDBRANCH  12  15
ENDBRANCH   1  11
BRANCH   7  21
HETATM   21  N3  UNL     1      24.242   0.803  53.643  1.00  0.00    -0.355 N 
HETATM   22  H15 UNL     1      24.194   1.815  53.911  1.00  0.00     0.166 HD
BRANCH  21  23
HETATM   23  C14 UNL     1      25.556   0.260  53.481  1.00  0.00     0.034 A 
HETATM   24  C15 UNL     1      25.838  -0.924  52.822  1.00  0.00     0.032 A 
HETATM   25  C16 UNL     1      27.140  -1.380  52.711  1.00  0.00     0.046 A 
HETATM   26  C17 UNL     1      28.205  -0.678  53.247  1.00  0.00     0.138 A 
HETATM   27  F1  UNL     1      29.466  -1.159  53.115  1.00  0.00    -0.204 F 
HETATM   28  C18 UNL     1      27.944   0.506  53.908  1.00  0.00     0.074 A 
HETATM   29 CL1  UNL     1      29.308   1.364  54.570  1.00  0.00    -0.081 Cl
HETATM   30  C19 UNL     1      26.634   0.958  54.016  1.00  0.00     0.056 A 
ENDBRANCH  21  23
ENDBRANCH   7  21
TORSDOF 6
ENDMDL
MODEL 9
REMARK VINA RESULT:      -7.7      2.889      3.862
REMARK  6 active torsions:
REMARK  status: ('A' for Active; 'I' for Inactive)
REMARK    1  A    between atoms: N1_2  and  C3_4 
REMARK    2  A    between atoms: C3_4  and  C4_5 
REMARK    3  A    between atoms: C5_6  and  C6_7 
REMARK       I    between atoms: C6_7  and  N2_9 
REMARK    4  A    between atoms: N2_9  and  C7_10 
REMARK    5  A    between atoms: C13_16  and  N3_17 
REMARK    6  A    between atoms: N3_17  and  C14_18 
ROOT
HETATM    1  C7  UNL     1      25.465   5.422  50.082  1.00  0.00     0.035 A 
HETATM    2  C8  UNL     1      25.054   6.641  50.611  1.00  0.00     0.032 A 
HETATM    3  C9  UNL     1      23.739   6.845  50.972  1.00  0.00     0.035 A 
HETATM    4  C10 UNL     1      22.805   5.834  50.812  1.00  0.00     0.070 A 
HETATM    5  C11 UNL     1      23.250   4.637  50.282  1.00  0.00     0.022 A 
HETATM    6  C12 UNL     1      24.555   4.390  49.908  1.00  0.00     0.045 A 
HETATM    7  C13 UNL     1      22.252   3.579  50.119  1.00  0.00     0.059 C 
HETATM    8  C20 UNL     1      20.994   3.974  50.057  1.00  0.00     0.038 C 
HETATM    9  C21 UNL     1      20.598   5.053  50.618  1.00  0.00     0.100 C 
HETATM   10  N4  UNL     1      21.418   5.890  51.135  1.00  0.00    -0.245 NA
ENDROOT
BRANCH   1  11
HETATM   11  N2  UNL     1      26.841   5.210  49.704  1.00  0.00    -0.324 N 
HETATM   12  C6  UNL     1      27.250   5.965  48.570  1.00  0.00     0.245 C 
HETATM   13  O1  UNL     1      26.482   6.744  47.954  1.00  0.00    -0.268 OA
HETATM   14  H11 UNL     1      27.510   4.589  50.168  1.00  0.00     0.169 HD
BRANCH  12  15
HETATM   15  C5  UNL     1      28.618   5.818  48.114  1.00  0.00     0.072 C 
HETATM   16  C4  UNL     1      29.343   6.897  47.911  1.00  0.00     0.008 C 
BRANCH  16  17
HETATM   17  C3  UNL     1      30.723   7.119  47.463  1.00  0.00     0.299 C 
BRANCH  17  18
HETATM   18  N1  UNL     1      31.462   7.967  48.401  1.00  0.00     0.083 N 
HETATM   19  C1  UNL     1      31.823   7.140  49.541  1.00  0.00     0.309 C 
HETATM   20  C2  UNL     1      30.486   8.928  48.904  1.00  0.00     0.309 C 
ENDBRANCH  17  18
ENDBRANCH  16  17
ENDBRANCH  12  15
ENDBRANCH   1  11
BRANCH   7  21
HETATM   21  N3  UNL     1      22.620   2.207  50.032  1.00  0.00    -0.355 N 
HETATM   22  H15 UNL     1      22.828   1.787  49.096  1.00  0.00     0.166 HD
BRANCH  21  23
HETATM   23  C14 UNL     1      22.733   1.326  51.154  1.00  0.00     0.034 A 
HETATM   24  C15 UNL     1      21.732   0.476  51.587  1.00  0.00     0.032 A 
HETATM   25  C16 UNL     1      21.923  -0.346  52.685  1.00  0.00     0.046 A 
HETATM   26  C17 UNL     1      23.114  -0.352  53.388  1.00  0.00     0.138 A 
HETATM   27  F1  UNL     1      23.263  -1.173  54.458  1.00  0.00    -0.204 F 
HETATM   28  C18 UNL     1      24.128   0.489  52.971  1.00  0.00     0.074 A 
HETATM   29 CL1  UNL     1      25.614   0.455  53.880  1.00  0.00    -0.081 Cl
HETATM   30  C19 UNL     1      23.927   1.311  51.868  1.00  0.00     0.056 A 
ENDBRANCH  21  23
ENDBRANCH   7  21
TORSDOF 6
ENDMDL
