MODEL 1
REMARK VINA RESULT:      -9.2      0.000      0.000
REMARK  2 active torsions:
REMARK  status: ('A' for Active; 'I' for Inactive)
REMARK    1  A    between atoms: C14_18  and  N4_19 
REMARK    2  A    between atoms: N4_19  and  C15_20 
ROOT
HETATM    1  N1  UNL     1      32.896   8.935  43.324  1.00  0.00    -0.192 NA
HETATM    2  C1  UNL     1      32.548   8.808  44.408  1.00  0.00     0.097 C 
HETATM    3  C2  UNL     1      32.106   8.623  45.808  1.00  0.00     0.046 C 
HETATM    4  C3  UNL     1      33.115   8.089  46.660  1.00  0.00     0.107 C 
HETATM    5  N2  UNL     1      32.711   7.664  48.108  1.00  0.00    -0.364 N 
HETATM    6  C4  UNL     1      31.213   8.106  48.201  1.00  0.00     0.037 C 
HETATM    7  C5  UNL     1      31.429   9.356  48.549  1.00  0.00     0.009 C 
HETATM    8  C6  UNL     1      30.633   9.937  47.395  1.00  0.00     0.025 C 
HETATM    9  C7  UNL     1      29.181   9.726  47.893  1.00  0.00     0.036 C 
HETATM   10  C8  UNL     1      28.796  10.660  48.953  1.00  0.00     0.168 C 
HETATM   11  O1  UNL     1      27.551  10.547  49.505  1.00  0.00    -0.389 OA
HETATM   12  C9  UNL     1      27.164   9.385  50.084  1.00  0.00     0.197 C 
HETATM   13  C10 UNL     1      26.886   8.246  49.188  1.00  0.00     0.295 C 
HETATM   14  N3  UNL     1      26.587   6.980  49.838  1.00  0.00     0.088 N 
HETATM   15  C11 UNL     1      26.660   5.855  48.926  1.00  0.00     0.296 C 
HETATM   16  C12 UNL     1      28.046   5.518  48.500  1.00  0.00     0.001 C 
HETATM   17  C13 UNL     1      29.257   5.079  48.179  1.00  0.00     0.011 C 
HETATM   18  C14 UNL     1      30.548   5.544  47.508  1.00  0.00     0.281 C 
HETATM   19  C20 UNL     1      30.596   6.998  47.460  1.00  0.00     0.002 C 
HETATM   20  C21 UNL     1      29.842   7.827  46.680  1.00  0.00    -0.004 C 
HETATM   21  C22 UNL     1      30.679   9.016  46.161  1.00  0.00     0.061 C 
HETATM   22  H2  UNL     1      33.756   7.283  48.234  1.00  0.00     0.165 HD
HETATM   23  H13 UNL     1      25.638   6.999  50.235  1.00  0.00     0.316 HD
ENDROOT
BRANCH  18  24
HETATM   24  N4  UNL     1      31.675   4.989  48.225  1.00  0.00     0.129 N 
HETATM   25  H19 UNL     1      31.409   4.723  49.196  1.00  0.00     0.321 HD
BRANCH  24  26
HETATM   26  C15 UNL     1      32.292   3.898  47.539  1.00  0.00     0.388 A 
HETATM   27  C16 UNL     1      32.369   4.280  46.087  1.00  0.00     0.063 A 
HETATM   28  C17 UNL     1      33.411   4.330  45.256  1.00  0.00     0.075 A 
HETATM   29 CL1  UNL     1      33.263   4.810  43.592  1.00  0.00    -0.081 Cl
HETATM   30  C18 UNL     1      34.650   3.944  45.910  1.00  0.00     0.159 A 
HETATM   31  F1  UNL     1      35.785   3.953  45.166  1.00  0.00    -0.202 F 
HETATM   32  C19 UNL     1      34.723   3.587  47.183  1.00  0.00     0.181 A 
HETATM   33  O2  UNL     1      33.586   3.575  47.934  1.00  0.00    -0.321 OA
ENDBRANCH  24  26
ENDBRANCH  18  24
TORSDOF 2
ENDMDL
MODEL 2
REMARK VINA RESULT:      -8.7      8.512     11.719
REMARK  2 active torsions:
REMARK  status: ('A' for Active; 'I' for Inactive)
REMARK    1  A    between atoms: C14_18  and  N4_19 
REMARK    2  A    between atoms: N4_19  and  C15_20 
ROOT
HETATM    1  N1  UNL     1      19.824   2.910  47.272  1.00  0.00    -0.192 NA
HETATM    2  C1  UNL     1      20.134   2.853  48.373  1.00  0.00     0.097 C 
HETATM    3  C2  UNL     1      20.552   2.797  49.791  1.00  0.00     0.046 C 
HETATM    4  C3  UNL     1      20.610   4.074  50.421  1.00  0.00     0.107 C 
HETATM    5  N2  UNL     1      21.227   4.164  51.854  1.00  0.00    -0.364 N 
HETATM    6  C4  UNL     1      21.506   2.667  52.213  1.00  0.00     0.037 C 
HETATM    7  C5  UNL     1      20.306   2.377  52.667  1.00  0.00     0.009 C 
HETATM    8  C6  UNL     1      20.099   1.214  51.715  1.00  0.00     0.025 C 
HETATM    9  C7  UNL     1      20.956   0.114  52.391  1.00  0.00     0.036 C 
HETATM   10  C8  UNL     1      20.335  -0.439  53.596  1.00  0.00     0.168 C 
HETATM   11  O1  UNL     1      21.015  -1.389  54.306  1.00  0.00    -0.389 OA
HETATM   12  C9  UNL     1      22.249  -1.121  54.798  1.00  0.00     0.197 C 
HETATM   13  C10 UNL     1      23.356  -1.034  53.826  1.00  0.00     0.295 C 
HETATM   14  N3  UNL     1      24.646  -0.630  54.362  1.00  0.00     0.088 N 
HETATM   15  C11 UNL     1      25.583  -0.243  53.326  1.00  0.00     0.296 C 
HETATM   16  C12 UNL     1      25.247   1.050  52.668  1.00  0.00     0.001 C 
HETATM   17  C13 UNL     1      25.085   2.251  52.126  1.00  0.00     0.011 C 
HETATM   18  C14 UNL     1      24.065   3.067  51.333  1.00  0.00     0.281 C 
HETATM   19  C20 UNL     1      22.744   2.469  51.446  1.00  0.00     0.002 C 
HETATM   20  C21 UNL     1      22.310   1.303  50.884  1.00  0.00    -0.004 C 
HETATM   21  C22 UNL     1      20.854   1.431  50.390  1.00  0.00     0.061 C 
HETATM   22  H2  UNL     1      21.104   5.274  51.783  1.00  0.00     0.165 HD
HETATM   23  H13 UNL     1      25.069  -1.404  54.892  1.00  0.00     0.316 HD
ENDROOT
BRANCH  18  24
HETATM   24  N4  UNL     1      24.084   4.432  51.810  1.00  0.00     0.129 N 
HETATM   25  H19 UNL     1      24.564   4.502  52.733  1.00  0.00     0.321 HD
BRANCH  24  26
HETATM   26  C15 UNL     1      24.643   5.347  50.866  1.00  0.00     0.388 A 
HETATM   27  C16 UNL     1      23.977   5.075  49.546  1.00  0.00     0.063 A 
HETATM   28  C17 UNL     1      23.319   5.890  48.721  1.00  0.00     0.075 A 
HETATM   29 CL1  UNL     1      22.620   5.346  47.224  1.00  0.00    -0.081 Cl
HETATM   30  C18 UNL     1      23.263   7.251  49.226  1.00  0.00     0.159 A 
HETATM   31  F1  UNL     1      22.618   8.178  48.473  1.00  0.00    -0.202 F 
HETATM   32  C19 UNL     1      23.806   7.626  50.374  1.00  0.00     0.181 A 
HETATM   33  O2  UNL     1      24.455   6.699  51.134  1.00  0.00    -0.321 OA
ENDBRANCH  24  26
ENDBRANCH  18  24
TORSDOF 2
ENDMDL
MODEL 3
REMARK VINA RESULT:      -8.7      2.897      4.290
REMARK  2 active torsions:
REMARK  status: ('A' for Active; 'I' for Inactive)
REMARK    1  A    between atoms: C14_18  and  N4_19 
REMARK    2  A    between atoms: N4_19  and  C15_20 
ROOT
HETATM    1  N1  UNL     1      27.145  10.412  44.755  1.00  0.00    -0.192 NA
HETATM    2  C1  UNL     1      27.148   9.943  45.799  1.00  0.00     0.097 C 
HETATM    3  C2  UNL     1      27.172   9.327  47.145  1.00  0.00     0.046 C 
HETATM    4  C3  UNL     1      28.408   9.503  47.832  1.00  0.00     0.107 C 
HETATM    5  N2  UNL     1      28.625   8.731  49.173  1.00  0.00    -0.364 N 
HETATM    6  C4  UNL     1      27.243   8.036  49.407  1.00  0.00     0.037 C 
HETATM    7  C5  UNL     1      26.645   9.045  50.000  1.00  0.00     0.009 C 
HETATM    8  C6  UNL     1      25.487   9.087  49.020  1.00  0.00     0.025 C 
HETATM    9  C7  UNL     1      24.632   7.892  49.512  1.00  0.00     0.036 C 
HETATM   10  C8  UNL     1      23.913   8.175  50.756  1.00  0.00     0.168 C 
HETATM   11  O1  UNL     1      23.156   7.184  51.315  1.00  0.00    -0.389 OA
HETATM   12  C9  UNL     1      23.723   6.000  51.653  1.00  0.00     0.197 C 
HETATM   13  C10 UNL     1      24.112   5.101  50.549  1.00  0.00     0.295 C 
HETATM   14  N3  UNL     1      24.823   3.892  50.931  1.00  0.00     0.088 N 
HETATM   15  C11 UNL     1      25.460   3.240  49.803  1.00  0.00     0.296 C 
HETATM   16  C12 UNL     1      26.636   3.982  49.269  1.00  0.00     0.001 C 
HETATM   17  C13 UNL     1      27.766   4.518  48.823  1.00  0.00     0.011 C 
HETATM   18  C14 UNL     1      28.307   5.812  48.219  1.00  0.00     0.281 C 
HETATM   19  C20 UNL     1      27.387   6.910  48.473  1.00  0.00     0.002 C 
HETATM   20  C21 UNL     1      26.160   7.112  47.909  1.00  0.00    -0.004 C 
HETATM   21  C22 UNL     1      25.919   8.608  47.621  1.00  0.00     0.061 C 
HETATM   22  H2  UNL     1      29.667   9.139  49.181  1.00  0.00     0.165 HD
HETATM   23  H13 UNL     1      24.174   3.216  51.356  1.00  0.00     0.316 HD
ENDROOT
BRANCH  18  24
HETATM   24  N4  UNL     1      29.621   6.070  48.766  1.00  0.00     0.129 N 
HETATM   25  H19 UNL     1      29.781   5.521  49.636  1.00  0.00     0.321 HD
BRANCH  24  26
HETATM   26  C15 UNL     1      30.672   5.859  47.820  1.00  0.00     0.388 A 
HETATM   27  C16 UNL     1      31.746   6.864  48.128  1.00  0.00     0.063 A 
HETATM   28  C17 UNL     1      33.044   6.697  48.383  1.00  0.00     0.075 A 
HETATM   29 CL1  UNL     1      34.114   8.026  48.718  1.00  0.00    -0.081 Cl
HETATM   30  C18 UNL     1      33.433   5.298  48.348  1.00  0.00     0.159 A 
HETATM   31  F1  UNL     1      34.734   4.997  48.591  1.00  0.00    -0.202 F 
HETATM   32  C19 UNL     1      32.586   4.312  48.091  1.00  0.00     0.181 A 
HETATM   33  O2  UNL     1      31.279   4.608  47.845  1.00  0.00    -0.321 OA
ENDBRANCH  24  26
ENDBRANCH  18  24
TORSDOF 2
ENDMDL
MODEL 4
REMARK VINA RESULT:      -8.5      8.433     10.817
REMARK  2 active torsions:
REMARK  status: ('A' for Active; 'I' for Inactive)
REMARK    1  A    between atoms: C14_18  and  N4_19 
REMARK    2  A    between atoms: N4_19  and  C15_20 
ROOT
HETATM    1  N1  UNL     1      27.585   1.456  52.231  1.00  0.00    -0.192 NA
HETATM    2  C1  UNL     1      26.652   2.077  51.996  1.00  0.00     0.097 C 
HETATM    3  C2  UNL     1      25.432   2.861  51.700  1.00  0.00     0.046 C 
HETATM    4  C3  UNL     1      24.495   2.888  52.773  1.00  0.00     0.107 C 
HETATM    5  N2  UNL     1      23.088   3.514  52.510  1.00  0.00    -0.364 N 
HETATM    6  C4  UNL     1      23.212   4.060  51.049  1.00  0.00     0.037 C 
HETATM    7  C5  UNL     1      23.753   5.220  51.349  1.00  0.00     0.009 C 
HETATM    8  C6  UNL     1      24.964   5.017  50.457  1.00  0.00     0.025 C 
HETATM    9  C7  UNL     1      24.364   5.312  49.060  1.00  0.00     0.036 C 
HETATM   10  C8  UNL     1      24.122   6.737  48.827  1.00  0.00     0.168 C 
HETATM   11  O1  UNL     1      23.553   7.120  47.645  1.00  0.00    -0.389 OA
HETATM   12  C9  UNL     1      22.345   6.629  47.277  1.00  0.00     0.197 C 
HETATM   13  C10 UNL     1      22.292   5.214  46.860  1.00  0.00     0.295 C 
HETATM   14  N3  UNL     1      20.969   4.679  46.584  1.00  0.00     0.088 N 
HETATM   15  C11 UNL     1      20.957   3.231  46.515  1.00  0.00     0.296 C 
HETATM   16  C12 UNL     1      21.150   2.566  47.833  1.00  0.00     0.001 C 
HETATM   17  C13 UNL     1      21.187   1.908  48.985  1.00  0.00     0.011 C 
HETATM   18  C14 UNL     1      22.074   1.716  50.214  1.00  0.00     0.281 C 
HETATM   19  C20 UNL     1      23.039   2.799  50.313  1.00  0.00     0.002 C 
HETATM   20  C21 UNL     1      24.124   3.020  49.513  1.00  0.00    -0.004 C 
HETATM   21  C22 UNL     1      25.328   3.525  50.335  1.00  0.00     0.061 C 
HETATM   22  H2  UNL     1      22.809   3.198  53.546  1.00  0.00     0.165 HD
HETATM   23  H13 UNL     1      20.621   5.037  45.684  1.00  0.00     0.316 HD
ENDROOT
BRANCH  18  24
HETATM   24  N4  UNL     1      21.234   1.630  51.389  1.00  0.00     0.129 N 
HETATM   25  H19 UNL     1      20.277   1.993  51.195  1.00  0.00     0.321 HD
BRANCH  24  26
HETATM   26  C15 UNL     1      21.187   0.316  51.948  1.00  0.00     0.388 A 
HETATM   27  C16 UNL     1      22.602  -0.075  52.269  1.00  0.00     0.063 A 
HETATM   28  C17 UNL     1      23.151  -0.491  53.411  1.00  0.00     0.075 A 
HETATM   29 CL1  UNL     1      24.837  -0.892  53.550  1.00  0.00    -0.081 Cl
HETATM   30  C18 UNL     1      22.182  -0.556  54.491  1.00  0.00     0.159 A 
HETATM   31  F1  UNL     1      22.620  -0.968  55.708  1.00  0.00    -0.202 F 
HETATM   32  C19 UNL     1      20.905  -0.238  54.345  1.00  0.00     0.181 A 
HETATM   33  O2  UNL     1      20.460   0.174  53.125  1.00  0.00    -0.321 OA
ENDBRANCH  24  26
ENDBRANCH  18  24
TORSDOF 2
ENDMDL
MODEL 5
REMARK VINA RESULT:      -8.5      2.292      2.953
REMARK  2 active torsions:
REMARK  status: ('A' for Active; 'I' for Inactive)
REMARK    1  A    between atoms: C14_18  and  N4_19 
REMARK    2  A    between atoms: N4_19  and  C15_20 
ROOT
HETATM    1  N1  UNL     1      29.655  11.199  44.399  1.00  0.00    -0.192 NA
HETATM    2  C1  UNL     1      29.497  10.717  45.425  1.00  0.00     0.097 C 
HETATM    3  C2  UNL     1      29.312  10.081  46.749  1.00  0.00     0.046 C 
HETATM    4  C3  UNL     1      30.487  10.086  47.555  1.00  0.00     0.107 C 
HETATM    5  N2  UNL     1      30.473   9.271  48.888  1.00  0.00    -0.364 N 
HETATM    6  C4  UNL     1      28.998   8.756  48.971  1.00  0.00     0.037 C 
HETATM    7  C5  UNL     1      28.478   9.825  49.532  1.00  0.00     0.009 C 
HETATM    8  C6  UNL     1      27.436  10.031  48.449  1.00  0.00     0.025 C 
HETATM    9  C7  UNL     1      26.392   8.949  48.824  1.00  0.00     0.036 C 
HETATM   10  C8  UNL     1      25.597   9.303  50.002  1.00  0.00     0.168 C 
HETATM   11  O1  UNL     1      24.670   8.408  50.458  1.00  0.00    -0.389 OA
HETATM   12  C9  UNL     1      25.046   7.156  50.815  1.00  0.00     0.197 C 
HETATM   13  C10 UNL     1      25.423   6.232  49.728  1.00  0.00     0.295 C 
HETATM   14  N3  UNL     1      25.935   4.935  50.141  1.00  0.00     0.088 N 
HETATM   15  C11 UNL     1      26.591   4.225  49.060  1.00  0.00     0.296 C 
HETATM   16  C12 UNL     1      27.898   4.817  48.661  1.00  0.00     0.001 C 
HETATM   17  C13 UNL     1      29.124   5.210  48.339  1.00  0.00     0.011 C 
HETATM   18  C14 UNL     1      29.882   6.433  47.826  1.00  0.00     0.281 C 
HETATM   19  C20 UNL     1      29.088   7.636  48.022  1.00  0.00     0.002 C 
HETATM   20  C21 UNL     1      27.957   8.004  47.351  1.00  0.00    -0.004 C 
HETATM   21  C22 UNL     1      27.937   9.523  47.083  1.00  0.00     0.061 C 
HETATM   22  H2  UNL     1      31.552   9.541  49.006  1.00  0.00     0.165 HD
HETATM   23  H13 UNL     1      25.167   4.342  50.483  1.00  0.00     0.316 HD
ENDROOT
BRANCH  18  24
HETATM   24  N4  UNL     1      31.158   6.511  48.501  1.00  0.00     0.129 N 
HETATM   25  H19 UNL     1      31.204   5.840  49.297  1.00  0.00     0.321 HD
BRANCH  24  26
HETATM   26  C15 UNL     1      32.269   6.344  47.618  1.00  0.00     0.388 A 
HETATM   27  C16 UNL     1      33.507   6.318  48.472  1.00  0.00     0.063 A 
HETATM   28  C17 UNL     1      34.483   5.414  48.559  1.00  0.00     0.075 A 
HETATM   29 CL1  UNL     1      35.837   5.596  49.634  1.00  0.00    -0.081 Cl
HETATM   30  C18 UNL     1      34.267   4.289  47.666  1.00  0.00     0.159 A 
HETATM   31  F1  UNL     1      35.196   3.299  47.662  1.00  0.00    -0.202 F 
HETATM   32  C19 UNL     1      33.219   4.185  46.863  1.00  0.00     0.181 A 
HETATM   33  O2  UNL     1      32.285   5.177  46.862  1.00  0.00    -0.321 OA
ENDBRANCH  24  26
ENDBRANCH  18  24
TORSDOF 2
ENDMDL
MODEL 6
REMARK VINA RESULT:      -8.4      5.848      9.276
REMARK  2 active torsions:
REMARK  status: ('A' for Active; 'I' for Inactive)
REMARK    1  A    between atoms: C14_18  and  N4_19 
REMARK    2  A    between atoms: N4_19  and  C15_20 
ROOT
HETATM    1  N1  UNL     1      21.600   3.738  45.674  1.00  0.00    -0.192 NA
HETATM    2  C1  UNL     1      21.884   3.784  46.782  1.00  0.00     0.097 C 
HETATM    3  C2  UNL     1      22.270   3.855  48.209  1.00  0.00     0.046 C 
HETATM    4  C3  UNL     1      22.630   5.164  48.640  1.00  0.00     0.107 C 
HETATM    5  N2  UNL     1      23.245   5.330  50.067  1.00  0.00    -0.364 N 
HETATM    6  C4  UNL     1      23.154   3.885  50.660  1.00  0.00     0.037 C 
HETATM    7  C5  UNL     1      21.919   3.963  51.103  1.00  0.00     0.009 C 
HETATM    8  C6  UNL     1      21.442   2.747  50.331  1.00  0.00     0.025 C 
HETATM    9  C7  UNL     1      22.007   1.596  51.200  1.00  0.00     0.036 C 
HETATM   10  C8  UNL     1      21.266   1.402  52.448  1.00  0.00     0.168 C 
HETATM   11  O1  UNL     1      21.695   0.443  53.322  1.00  0.00    -0.389 OA
HETATM   12  C9  UNL     1      22.955   0.485  53.819  1.00  0.00     0.197 C 
HETATM   13  C10 UNL     1      24.054   0.153  52.892  1.00  0.00     0.295 C 
HETATM   14  N3  UNL     1      25.401   0.319  53.414  1.00  0.00     0.088 N 
HETATM   15  C11 UNL     1      26.409   0.306  52.372  1.00  0.00     0.296 C 
HETATM   16  C12 UNL     1      26.396   1.521  51.511  1.00  0.00     0.001 C 
HETATM   17  C13 UNL     1      26.529   2.626  50.787  1.00  0.00     0.011 C 
HETATM   18  C14 UNL     1      25.739   3.524  49.837  1.00  0.00     0.281 C 
HETATM   19  C20 UNL     1      24.312   3.282  49.985  1.00  0.00     0.002 C 
HETATM   20  C21 UNL     1      23.612   2.178  49.589  1.00  0.00    -0.004 C 
HETATM   21  C22 UNL     1      22.232   2.568  49.021  1.00  0.00     0.061 C 
HETATM   22  H2  UNL     1      23.393   6.412  49.823  1.00  0.00     0.165 HD
HETATM   23  H13 UNL     1      25.624  -0.439  54.073  1.00  0.00     0.316 HD
ENDROOT
BRANCH  18  24
HETATM   24  N4  UNL     1      26.084   4.904  50.102  1.00  0.00     0.129 N 
HETATM   25  H19 UNL     1      26.835   4.973  50.820  1.00  0.00     0.321 HD
BRANCH  24  26
HETATM   26  C15 UNL     1      26.428   5.631  48.921  1.00  0.00     0.388 A 
HETATM   27  C16 UNL     1      26.432   7.088  49.290  1.00  0.00     0.063 A 
HETATM   28  C17 UNL     1      27.381   8.015  49.157  1.00  0.00     0.075 A 
HETATM   29 CL1  UNL     1      27.161   9.664  49.663  1.00  0.00    -0.081 Cl
HETATM   30  C18 UNL     1      28.589   7.479  48.555  1.00  0.00     0.159 A 
HETATM   31  F1  UNL     1      29.631   8.327  48.365  1.00  0.00    -0.202 F 
HETATM   32  C19 UNL     1      28.719   6.213  48.185  1.00  0.00     0.181 A 
HETATM   33  O2  UNL     1      27.676   5.357  48.372  1.00  0.00    -0.321 OA
ENDBRANCH  24  26
ENDBRANCH  18  24
TORSDOF 2
ENDMDL
MODEL 7
REMARK VINA RESULT:      -8.2      9.758     12.700
REMARK  2 active torsions:
REMARK  status: ('A' for Active; 'I' for Inactive)
REMARK    1  A    between atoms: C14_18  and  N4_19 
REMARK    2  A    between atoms: N4_19  and  C15_20 
ROOT
HETATM    1  N1  UNL     1      21.580   6.561  51.465  1.00  0.00    -0.192 NA
HETATM    2  C1  UNL     1      22.030   5.515  51.337  1.00  0.00     0.097 C 
HETATM    3  C2  UNL     1      22.589   4.155  51.173  1.00  0.00     0.046 C 
HETATM    4  C3  UNL     1      21.944   3.390  50.158  1.00  0.00     0.107 C 
HETATM    5  N2  UNL     1      22.312   1.877  50.026  1.00  0.00    -0.364 N 
HETATM    6  C4  UNL     1      23.458   1.700  51.076  1.00  0.00     0.037 C 
HETATM    7  C5  UNL     1      24.452   2.084  50.306  1.00  0.00     0.009 C 
HETATM    8  C6  UNL     1      24.921   3.171  51.255  1.00  0.00     0.025 C 
HETATM    9  C7  UNL     1      25.668   2.336  52.325  1.00  0.00     0.036 C 
HETATM   10  C8  UNL     1      26.965   1.836  51.862  1.00  0.00     0.168 C 
HETATM   11  O1  UNL     1      27.701   1.049  52.702  1.00  0.00    -0.389 OA
HETATM   12  C9  UNL     1      27.181  -0.104  53.188  1.00  0.00     0.197 C 
HETATM   13  C10 UNL     1      26.119   0.013  54.206  1.00  0.00     0.295 C 
HETATM   14  N3  UNL     1      25.497  -1.232  54.625  1.00  0.00     0.088 N 
HETATM   15  C11 UNL     1      24.261  -1.020  55.353  1.00  0.00     0.296 C 
HETATM   16  C12 UNL     1      23.140  -0.535  54.501  1.00  0.00     0.001 C 
HETATM   17  C13 UNL     1      22.065  -0.226  53.786  1.00  0.00     0.011 C 
HETATM   18  C14 UNL     1      21.542   0.848  52.833  1.00  0.00     0.281 C 
HETATM   19  C20 UNL     1      22.646   1.630  52.300  1.00  0.00     0.002 C 
HETATM   20  C21 UNL     1      23.418   2.538  52.966  1.00  0.00    -0.004 C 
HETATM   21  C22 UNL     1      23.749   3.750  52.070  1.00  0.00     0.061 C 
HETATM   22  H2  UNL     1      21.521   1.805  49.238  1.00  0.00     0.165 HD
HETATM   23  H13 UNL     1      26.133  -1.759  55.239  1.00  0.00     0.316 HD
ENDROOT
BRANCH  18  24
HETATM   24  N4  UNL     1      20.773   0.211  51.786  1.00  0.00     0.129 N 
HETATM   25  H19 UNL     1      21.028  -0.795  51.691  1.00  0.00     0.321 HD
BRANCH  24  26
HETATM   26  C15 UNL     1      19.363   0.375  51.948  1.00  0.00     0.388 A 
HETATM   27  C16 UNL     1      19.073   1.843  51.803  1.00  0.00     0.063 A 
HETATM   28  C17 UNL     1      18.234   2.486  50.992  1.00  0.00     0.075 A 
HETATM   29 CL1  UNL     1      18.062   4.217  50.998  1.00  0.00    -0.081 Cl
HETATM   30  C18 UNL     1      17.506   1.576  50.125  1.00  0.00     0.159 A 
HETATM   31  F1  UNL     1      16.617   2.112  49.251  1.00  0.00    -0.202 F 
HETATM   32  C19 UNL     1      17.667   0.261  50.148  1.00  0.00     0.181 A 
HETATM   33  O2  UNL     1      18.557  -0.282  51.024  1.00  0.00    -0.321 OA
ENDBRANCH  24  26
ENDBRANCH  18  24
TORSDOF 2
ENDMDL
MODEL 8
REMARK VINA RESULT:      -8.1      3.758      6.203
REMARK  2 active torsions:
REMARK  status: ('A' for Active; 'I' for Inactive)
REMARK    1  A    between atoms: C14_18  and  N4_19 
REMARK    2  A    between atoms: N4_19  and  C15_20 
ROOT
HETATM    1  N1  UNL     1      23.904   8.887  44.833  1.00  0.00    -0.192 NA
HETATM    2  C1  UNL     1      24.150   8.601  45.914  1.00  0.00     0.097 C 
HETATM    3  C2  UNL     1      24.491   8.229  47.306  1.00  0.00     0.046 C 
HETATM    4  C3  UNL     1      25.585   8.967  47.843  1.00  0.00     0.107 C 
HETATM    5  N2  UNL     1      26.164   8.529  49.227  1.00  0.00    -0.364 N 
HETATM    6  C4  UNL     1      25.193   7.383  49.669  1.00  0.00     0.037 C 
HETATM    7  C5  UNL     1      24.271   8.146  50.213  1.00  0.00     0.009 C 
HETATM    8  C6  UNL     1      23.145   7.598  49.356  1.00  0.00     0.025 C 
HETATM    9  C7  UNL     1      22.870   6.240  50.051  1.00  0.00     0.036 C 
HETATM   10  C8  UNL     1      22.164   6.381  51.326  1.00  0.00     0.168 C 
HETATM   11  O1  UNL     1      21.901   5.255  52.056  1.00  0.00    -0.389 OA
HETATM   12  C9  UNL     1      22.913   4.446  52.453  1.00  0.00     0.197 C 
HETATM   13  C10 UNL     1      23.572   3.634  51.412  1.00  0.00     0.295 C 
HETATM   14  N3  UNL     1      24.729   2.865  51.840  1.00  0.00     0.088 N 
HETATM   15  C11 UNL     1      25.515   2.372  50.726  1.00  0.00     0.296 C 
HETATM   16  C12 UNL     1      26.263   3.438  50.003  1.00  0.00     0.001 C 
HETATM   17  C13 UNL     1      27.057   4.310  49.393  1.00  0.00     0.011 C 
HETATM   18  C14 UNL     1      26.999   5.621  48.610  1.00  0.00     0.281 C 
HETATM   19  C20 UNL     1      25.729   6.291  48.843  1.00  0.00     0.002 C 
HETATM   20  C21 UNL     1      24.497   5.917  48.388  1.00  0.00    -0.004 C 
HETATM   21  C22 UNL     1      23.659   7.146  47.976  1.00  0.00     0.061 C 
HETATM   22  H2  UNL     1      26.952   9.310  49.089  1.00  0.00     0.165 HD
HETATM   23  H13 UNL     1      24.430   2.051  52.395  1.00  0.00     0.316 HD
ENDROOT
BRANCH  18  24
HETATM   24  N4  UNL     1      28.124   6.445  48.992  1.00  0.00     0.129 N 
HETATM   25  H19 UNL     1      28.312   6.374  50.015  1.00  0.00     0.321 HD
BRANCH  24  26
HETATM   26  C15 UNL     1      29.301   6.173  48.229  1.00  0.00     0.388 A 
HETATM   27  C16 UNL     1      29.887   7.501  47.839  1.00  0.00     0.063 A 
HETATM   28  C17 UNL     1      31.109   8.001  48.028  1.00  0.00     0.075 A 
HETATM   29 CL1  UNL     1      31.568   9.587  47.483  1.00  0.00    -0.081 Cl
HETATM   30  C18 UNL     1      31.976   7.073  48.732  1.00  0.00     0.159 A 
HETATM   31  F1  UNL     1      33.250   7.467  48.984  1.00  0.00    -0.202 F 
HETATM   32  C19 UNL     1      31.587   5.872  49.134  1.00  0.00     0.181 A 
HETATM   33  O2  UNL     1      30.310   5.471  48.882  1.00  0.00    -0.321 OA
ENDBRANCH  24  26
ENDBRANCH  18  24
TORSDOF 2
ENDMDL
MODEL 9
REMARK VINA RESULT:      -8.1      3.987      6.364
REMARK  2 active torsions:
REMARK  status: ('A' for Active; 'I' for Inactive)
REMARK    1  A    between atoms: C14_18  and  N4_19 
REMARK    2  A    between atoms: N4_19  and  C15_20 
ROOT
HETATM    1  N1  UNL     1      33.379   3.135  47.611  1.00  0.00    -0.192 NA
HETATM    2  C1  UNL     1      32.974   4.182  47.839  1.00  0.00     0.097 C 
HETATM    3  C2  UNL     1      32.431   5.526  48.137  1.00  0.00     0.046 C 
HETATM    4  C3  UNL     1      31.773   5.609  49.398  1.00  0.00     0.107 C 
HETATM    5  N2  UNL     1      30.988   6.917  49.738  1.00  0.00    -0.364 N 
HETATM    6  C4  UNL     1      31.301   7.843  48.516  1.00  0.00     0.037 C 
HETATM    7  C5  UNL     1      32.442   8.325  48.958  1.00  0.00     0.009 C 
HETATM    8  C6  UNL     1      33.231   7.895  47.737  1.00  0.00     0.025 C 
HETATM    9  C7  UNL     1      32.817   8.981  46.712  1.00  0.00     0.036 C 
HETATM   10  C8  UNL     1      33.444  10.280  46.966  1.00  0.00     0.168 C 
HETATM   11  O1  UNL     1      33.124  11.331  46.155  1.00  0.00    -0.389 OA
HETATM   12  C9  UNL     1      31.835  11.730  46.029  1.00  0.00     0.197 C 
HETATM   13  C10 UNL     1      30.929  10.848  45.267  1.00  0.00     0.295 C 
HETATM   14  N3  UNL     1      29.528  11.236  45.246  1.00  0.00     0.088 N 
HETATM   15  C11 UNL     1      28.661  10.171  44.782  1.00  0.00     0.296 C 
HETATM   16  C12 UNL     1      28.524   9.047  45.748  1.00  0.00     0.001 C 
HETATM   17  C13 UNL     1      28.251   8.073  46.609  1.00  0.00     0.011 C 
HETATM   18  C14 UNL     1      28.944   6.983  47.425  1.00  0.00     0.281 C 
HETATM   19  C20 UNL     1      30.366   7.266  47.540  1.00  0.00     0.002 C 
HETATM   20  C21 UNL     1      31.310   7.187  46.556  1.00  0.00    -0.004 C 
HETATM   21  C22 UNL     1      32.638   6.623  47.103  1.00  0.00     0.061 C 
HETATM   22  H2  UNL     1      30.654   6.413  50.679  1.00  0.00     0.165 HD
HETATM   23  H13 UNL     1      29.392  12.044  44.622  1.00  0.00     0.316 HD
ENDROOT
BRANCH  18  24
HETATM   24  N4  UNL     1      28.305   6.890  48.719  1.00  0.00     0.129 N 
HETATM   25  H19 UNL     1      28.686   7.599  49.380  1.00  0.00     0.321 HD
BRANCH  24  26
HETATM   26  C15 UNL     1      26.879   6.965  48.646  1.00  0.00     0.388 A 
HETATM   27  C16 UNL     1      26.360   5.560  48.768  1.00  0.00     0.063 A 
HETATM   28  C17 UNL     1      25.475   5.031  49.615  1.00  0.00     0.075 A 
HETATM   29 CL1  UNL     1      25.020   3.354  49.571  1.00  0.00    -0.081 Cl
HETATM   30  C18 UNL     1      24.962   6.014  50.553  1.00  0.00     0.159 A 
HETATM   31  F1  UNL     1      24.051   5.597  51.469  1.00  0.00    -0.202 F 
HETATM   32  C19 UNL     1      25.337   7.285  50.557  1.00  0.00     0.181 A 
HETATM   33  O2  UNL     1      26.250   7.709  49.639  1.00  0.00    -0.321 OA
ENDBRANCH  24  26
ENDBRANCH  18  24
TORSDOF 2
ENDMDL
