MODEL 1
REMARK VINA RESULT:      -8.2      0.000      0.000
REMARK  7 active torsions:
REMARK  status: ('A' for Active; 'I' for Inactive)
REMARK    1  A    between atoms: O1_2  and  C2_3 
REMARK    2  A    between atoms: C6_9  and  N3_10 
REMARK    3  A    between atoms: N3_10  and  C7_11 
REMARK    4  A    between atoms: C15_21  and  O2_22 
REMARK    5  A    between atoms: O2_22  and  C16_23 
REMARK    6  A    between atoms: C16_23  and  C17_24 
REMARK    7  A    between atoms: C17_24  and  N4_25 
ROOT
HETATM    1  C2  UNL     1      22.421   0.314  52.794  1.00  0.00     0.103 A 
HETATM    2  C3  UNL     1      21.317   0.953  52.258  1.00  0.00     0.072 A 
HETATM    3  C4  UNL     1      21.427   2.305  52.026  1.00  0.00     0.075 A 
HETATM    4  N1  UNL     1      20.440   3.041  51.523  1.00  0.00    -0.241 NA
HETATM    5  C5  UNL     1      20.543   4.366  51.298  1.00  0.00     0.236 A 
HETATM    6  N2  UNL     1      21.711   5.024  51.588  1.00  0.00    -0.224 NA
HETATM    7  C6  UNL     1      22.744   4.282  52.108  1.00  0.00     0.142 A 
HETATM    8  C13 UNL     1      22.621   2.928  52.337  1.00  0.00     0.042 A 
HETATM    9  C14 UNL     1      23.725   2.322  52.867  1.00  0.00     0.057 A 
HETATM   10  C15 UNL     1      23.630   0.963  53.111  1.00  0.00     0.103 A 
ENDROOT
BRANCH   7  11
HETATM   11  N3  UNL     1      23.839   5.134  52.263  1.00  0.00    -0.340 N 
HETATM   12  H6  UNL     1      24.286   5.574  53.174  1.00  0.00     0.167 HD
BRANCH  11  13
HETATM   13  C7  UNL     1      24.558   5.631  51.108  1.00  0.00     0.035 A 
HETATM   14  C8  UNL     1      25.098   4.692  50.244  1.00  0.00     0.032 A 
HETATM   15  C9  UNL     1      25.773   5.131  49.084  1.00  0.00     0.046 A 
HETATM   16  C10 UNL     1      25.889   6.479  48.823  1.00  0.00     0.138 A 
HETATM   17  F1  UNL     1      26.542   6.863  47.684  1.00  0.00    -0.204 F 
HETATM   18  C11 UNL     1      25.355   7.410  49.682  1.00  0.00     0.074 A 
HETATM   19 CL1  UNL     1      25.513   9.136  49.335  1.00  0.00    -0.081 Cl
HETATM   20  C12 UNL     1      24.715   6.962  50.784  1.00  0.00     0.056 A 
ENDBRANCH  11  13
ENDBRANCH   7  11
BRANCH  10  21
HETATM   21  O2  UNL     1      24.472   0.157  53.598  1.00  0.00    -0.347 OA
BRANCH  21  22
HETATM   22  C16 UNL     1      25.390  -0.572  54.151  1.00  0.00     0.206 C 
BRANCH  22  23
HETATM   23  C17 UNL     1      26.464   0.204  54.940  1.00  0.00     0.301 C 
BRANCH  23  24
HETATM   24  N4  UNL     1      27.544   0.543  54.087  1.00  0.00     0.115 N 
HETATM   25  C18 UNL     1      27.443   1.798  53.407  1.00  0.00     0.301 C 
HETATM   26  C19 UNL     1      28.788   2.463  53.702  1.00  0.00     0.200 C 
HETATM   27  O3  UNL     1      29.294   1.811  54.817  1.00  0.00    -0.361 OA
HETATM   28  C20 UNL     1      28.812   0.507  54.734  1.00  0.00     0.440 C 
ENDBRANCH  23  24
ENDBRANCH  22  23
ENDBRANCH  21  22
ENDBRANCH  10  21
BRANCH   1  29
HETATM   29  O1  UNL     1      22.191  -1.049  52.981  1.00  0.00    -0.353 OA
HETATM   30  C1  UNL     1      21.551  -1.604  54.083  1.00  0.00     0.210 C 
ENDBRANCH   1  29
TORSDOF 7
ENDMDL
MODEL 2
REMARK VINA RESULT:      -8.0      1.474      1.747
REMARK  7 active torsions:
REMARK  status: ('A' for Active; 'I' for Inactive)
REMARK    1  A    between atoms: O1_2  and  C2_3 
REMARK    2  A    between atoms: C6_9  and  N3_10 
REMARK    3  A    between atoms: N3_10  and  C7_11 
REMARK    4  A    between atoms: C15_21  and  O2_22 
REMARK    5  A    between atoms: O2_22  and  C16_23 
REMARK    6  A    between atoms: C16_23  and  C17_24 
REMARK    7  A    between atoms: C17_24  and  N4_25 
ROOT
HETATM    1  C2  UNL     1      22.260   0.439  53.565  1.00  0.00     0.103 A 
HETATM    2  C3  UNL     1      21.037   1.087  53.529  1.00  0.00     0.072 A 
HETATM    3  C4  UNL     1      20.858   2.034  52.547  1.00  0.00     0.075 A 
HETATM    4  N1  UNL     1      19.737   2.735  52.405  1.00  0.00    -0.241 NA
HETATM    5  C5  UNL     1      19.560   3.666  51.447  1.00  0.00     0.236 A 
HETATM    6  N2  UNL     1      20.564   3.931  50.551  1.00  0.00    -0.224 NA
HETATM    7  C6  UNL     1      21.732   3.217  50.679  1.00  0.00     0.142 A 
HETATM    8  C13 UNL     1      21.899   2.271  51.668  1.00  0.00     0.042 A 
HETATM    9  C14 UNL     1      23.114   1.648  51.681  1.00  0.00     0.057 A 
HETATM   10  C15 UNL     1      23.312   0.694  52.666  1.00  0.00     0.103 A 
ENDROOT
BRANCH   7  11
HETATM   11  N3  UNL     1      22.577   3.600  49.636  1.00  0.00    -0.340 N 
HETATM   12  H6  UNL     1      22.678   3.201  48.609  1.00  0.00     0.167 HD
BRANCH  11  13
HETATM   13  C7  UNL     1      23.559   4.646  49.826  1.00  0.00     0.035 A 
HETATM   14  C8  UNL     1      23.266   5.631  50.755  1.00  0.00     0.032 A 
HETATM   15  C9  UNL     1      24.213   6.650  51.001  1.00  0.00     0.046 A 
HETATM   16  C10 UNL     1      25.410   6.656  50.321  1.00  0.00     0.138 A 
HETATM   17  F1  UNL     1      26.304   7.655  50.595  1.00  0.00    -0.204 F 
HETATM   18  C11 UNL     1      25.700   5.680  49.398  1.00  0.00     0.074 A 
HETATM   19 CL1  UNL     1      27.240   5.702  48.531  1.00  0.00    -0.081 Cl
HETATM   20  C12 UNL     1      24.776   4.718  49.182  1.00  0.00     0.056 A 
ENDBRANCH  11  13
ENDBRANCH   7  11
BRANCH  10  21
HETATM   21  O2  UNL     1      24.322  -0.020  52.924  1.00  0.00    -0.347 OA
BRANCH  21  22
HETATM   22  C16 UNL     1      25.422  -0.648  53.197  1.00  0.00     0.206 C 
BRANCH  22  23
HETATM   23  C17 UNL     1      26.312   0.014  54.268  1.00  0.00     0.301 C 
BRANCH  23  24
HETATM   24  N4  UNL     1      27.531   0.447  53.689  1.00  0.00     0.115 N 
HETATM   25  C18 UNL     1      27.515   1.741  53.075  1.00  0.00     0.301 C 
HETATM   26  C19 UNL     1      28.733   2.432  53.690  1.00  0.00     0.200 C 
HETATM   27  O3  UNL     1      29.022   1.726  54.848  1.00  0.00    -0.361 OA
HETATM   28  C20 UNL     1      28.633   0.414  54.589  1.00  0.00     0.440 C 
ENDBRANCH  23  24
ENDBRANCH  22  23
ENDBRANCH  21  22
ENDBRANCH  10  21
BRANCH   1  29
HETATM   29  O1  UNL     1      22.320  -0.496  54.597  1.00  0.00    -0.353 OA
HETATM   30  C1  UNL     1      21.691  -1.735  54.586  1.00  0.00     0.210 C 
ENDBRANCH   1  29
TORSDOF 7
ENDMDL
MODEL 3
REMARK VINA RESULT:      -7.9      4.248      6.940
REMARK  7 active torsions:
REMARK  status: ('A' for Active; 'I' for Inactive)
REMARK    1  A    between atoms: O1_2  and  C2_3 
REMARK    2  A    between atoms: C6_9  and  N3_10 
REMARK    3  A    between atoms: N3_10  and  C7_11 
REMARK    4  A    between atoms: C15_21  and  O2_22 
REMARK    5  A    between atoms: O2_22  and  C16_23 
REMARK    6  A    between atoms: C16_23  and  C17_24 
REMARK    7  A    between atoms: C17_24  and  N4_25 
ROOT
HETATM    1  C2  UNL     1      20.019  -0.274  52.918  1.00  0.00     0.103 A 
HETATM    2  C3  UNL     1      20.485  -0.830  54.097  1.00  0.00     0.072 A 
HETATM    3  C4  UNL     1      21.849  -0.852  54.283  1.00  0.00     0.075 A 
HETATM    4  N1  UNL     1      22.428  -1.363  55.365  1.00  0.00    -0.241 NA
HETATM    5  C5  UNL     1      23.764  -1.390  55.549  1.00  0.00     0.236 A 
HETATM    6  N2  UNL     1      24.600  -0.871  54.594  1.00  0.00    -0.224 NA
HETATM    7  C6  UNL     1      24.021  -0.337  53.468  1.00  0.00     0.142 A 
HETATM    8  C13 UNL     1      22.654  -0.321  53.293  1.00  0.00     0.042 A 
HETATM    9  C14 UNL     1      22.221   0.232  52.121  1.00  0.00     0.057 A 
HETATM   10  C15 UNL     1      20.852   0.259  51.916  1.00  0.00     0.103 A 
ENDROOT
BRANCH   7  11
HETATM   11  N3  UNL     1      25.045   0.185  52.674  1.00  0.00    -0.340 N 
HETATM   12  H6  UNL     1      25.002   0.746  51.722  1.00  0.00     0.167 HD
BRANCH  11  13
HETATM   13  C7  UNL     1      26.433  -0.023  53.028  1.00  0.00     0.035 A 
HETATM   14  C8  UNL     1      26.979  -1.266  52.757  1.00  0.00     0.032 A 
HETATM   15  C9  UNL     1      28.340  -1.501  53.049  1.00  0.00     0.046 A 
HETATM   16  C10 UNL     1      29.109  -0.498  53.597  1.00  0.00     0.138 A 
HETATM   17  F1  UNL     1      30.427  -0.762  53.857  1.00  0.00    -0.204 F 
HETATM   18  C11 UNL     1      28.567   0.736  53.868  1.00  0.00     0.074 A 
HETATM   19 CL1  UNL     1      29.566   2.013  54.573  1.00  0.00    -0.081 Cl
HETATM   20  C12 UNL     1      27.263   0.932  53.578  1.00  0.00     0.056 A 
ENDBRANCH  11  13
ENDBRANCH   7  11
BRANCH  10  21
HETATM   21  O2  UNL     1      20.178   0.689  50.938  1.00  0.00    -0.347 OA
BRANCH  21  22
HETATM   22  C16 UNL     1      19.594   1.160  49.881  1.00  0.00     0.206 C 
BRANCH  22  23
HETATM   23  C17 UNL     1      20.531   1.806  48.841  1.00  0.00     0.301 C 
BRANCH  23  24
HETATM   24  N4  UNL     1      20.730   3.175  49.150  1.00  0.00     0.115 N 
HETATM   25  C18 UNL     1      19.682   3.817  49.883  1.00  0.00     0.301 C 
HETATM   26  C19 UNL     1      20.427   4.491  51.036  1.00  0.00     0.200 C 
HETATM   27  O3  UNL     1      21.646   3.836  51.131  1.00  0.00    -0.361 OA
HETATM   28  C20 UNL     1      21.952   3.433  49.834  1.00  0.00     0.440 C 
ENDBRANCH  23  24
ENDBRANCH  22  23
ENDBRANCH  21  22
ENDBRANCH  10  21
BRANCH   1  29
HETATM   29  O1  UNL     1      18.627  -0.306  52.845  1.00  0.00    -0.353 OA
HETATM   30  C1  UNL     1      17.851  -1.456  52.932  1.00  0.00     0.210 C 
ENDBRANCH   1  29
TORSDOF 7
ENDMDL
MODEL 4
REMARK VINA RESULT:      -7.8      1.176      1.464
REMARK  7 active torsions:
REMARK  status: ('A' for Active; 'I' for Inactive)
REMARK    1  A    between atoms: O1_2  and  C2_3 
REMARK    2  A    between atoms: C6_9  and  N3_10 
REMARK    3  A    between atoms: N3_10  and  C7_11 
REMARK    4  A    between atoms: C15_21  and  O2_22 
REMARK    5  A    between atoms: O2_22  and  C16_23 
REMARK    6  A    between atoms: C16_23  and  C17_24 
REMARK    7  A    between atoms: C17_24  and  N4_25 
ROOT
HETATM    1  C2  UNL     1      22.895   0.904  52.741  1.00  0.00     0.103 A 
HETATM    2  C3  UNL     1      21.722   1.389  52.189  1.00  0.00     0.072 A 
HETATM    3  C4  UNL     1      21.665   2.738  51.924  1.00  0.00     0.075 A 
HETATM    4  N1  UNL     1      20.596   3.334  51.403  1.00  0.00    -0.241 NA
HETATM    5  C5  UNL     1      20.535   4.655  51.145  1.00  0.00     0.236 A 
HETATM    6  N2  UNL     1      21.611   5.460  51.420  1.00  0.00    -0.224 NA
HETATM    7  C6  UNL     1      22.727   4.865  51.959  1.00  0.00     0.142 A 
HETATM    8  C13 UNL     1      22.771   3.512  52.220  1.00  0.00     0.042 A 
HETATM    9  C14 UNL     1      23.940   3.060  52.765  1.00  0.00     0.057 A 
HETATM   10  C15 UNL     1      24.013   1.705  53.042  1.00  0.00     0.103 A 
ENDROOT
BRANCH   7  11
HETATM   11  N3  UNL     1      23.708   5.849  52.093  1.00  0.00    -0.340 N 
HETATM   12  H6  UNL     1      24.007   6.451  52.971  1.00  0.00     0.167 HD
BRANCH  11  13
HETATM   13  C7  UNL     1      24.492   6.270  50.951  1.00  0.00     0.035 A 
HETATM   14  C8  UNL     1      24.291   7.558  50.483  1.00  0.00     0.032 A 
HETATM   15  C9  UNL     1      25.063   8.025  49.396  1.00  0.00     0.046 A 
HETATM   16  C10 UNL     1      26.003   7.203  48.816  1.00  0.00     0.138 A 
HETATM   17  F1  UNL     1      26.737   7.696  47.772  1.00  0.00    -0.204 F 
HETATM   18  C11 UNL     1      26.201   5.924  49.279  1.00  0.00     0.074 A 
HETATM   19 CL1  UNL     1      27.410   4.879  48.523  1.00  0.00    -0.081 Cl
HETATM   20  C12 UNL     1      25.449   5.504  50.319  1.00  0.00     0.056 A 
ENDBRANCH  11  13
ENDBRANCH   7  11
BRANCH  10  21
HETATM   21  O2  UNL     1      24.946   1.022  53.550  1.00  0.00    -0.347 OA
BRANCH  21  22
HETATM   22  C16 UNL     1      25.878   0.376  54.178  1.00  0.00     0.206 C 
BRANCH  22  23
HETATM   23  C17 UNL     1      26.845  -0.425  53.284  1.00  0.00     0.301 C 
BRANCH  23  24
HETATM   24  N4  UNL     1      28.133   0.167  53.307  1.00  0.00     0.115 N 
HETATM   25  C18 UNL     1      28.196   1.557  52.971  1.00  0.00     0.301 C 
HETATM   26  C19 UNL     1      29.008   2.156  54.120  1.00  0.00     0.200 C 
HETATM   27  O3  UNL     1      28.925   1.239  55.158  1.00  0.00    -0.361 OA
HETATM   28  C20 UNL     1      28.816  -0.006  54.544  1.00  0.00     0.440 C 
ENDBRANCH  23  24
ENDBRANCH  22  23
ENDBRANCH  21  22
ENDBRANCH  10  21
BRANCH   1  29
HETATM   29  O1  UNL     1      22.835  -0.471  52.961  1.00  0.00    -0.353 OA
HETATM   30  C1  UNL     1      22.224  -1.077  54.054  1.00  0.00     0.210 C 
ENDBRANCH   1  29
TORSDOF 7
ENDMDL
MODEL 5
REMARK VINA RESULT:      -7.7      5.527      8.165
REMARK  7 active torsions:
REMARK  status: ('A' for Active; 'I' for Inactive)
REMARK    1  A    between atoms: O1_2  and  C2_3 
REMARK    2  A    between atoms: C6_9  and  N3_10 
REMARK    3  A    between atoms: N3_10  and  C7_11 
REMARK    4  A    between atoms: C15_21  and  O2_22 
REMARK    5  A    between atoms: O2_22  and  C16_23 
REMARK    6  A    between atoms: C16_23  and  C17_24 
REMARK    7  A    between atoms: C17_24  and  N4_25 
ROOT
HETATM    1  C2  UNL     1      28.579   6.866  48.235  1.00  0.00     0.103 A 
HETATM    2  C3  UNL     1      27.382   7.507  48.503  1.00  0.00     0.072 A 
HETATM    3  C4  UNL     1      26.320   6.718  48.882  1.00  0.00     0.075 A 
HETATM    4  N1  UNL     1      25.114   7.204  49.160  1.00  0.00    -0.241 NA
HETATM    5  C5  UNL     1      24.070   6.434  49.526  1.00  0.00     0.236 A 
HETATM    6  N2  UNL     1      24.221   5.075  49.631  1.00  0.00    -0.224 NA
HETATM    7  C6  UNL     1      25.460   4.551  49.348  1.00  0.00     0.142 A 
HETATM    8  C13 UNL     1      26.517   5.352  48.970  1.00  0.00     0.042 A 
HETATM    9  C14 UNL     1      27.685   4.694  48.710  1.00  0.00     0.057 A 
HETATM   10  C15 UNL     1      28.764   5.473  48.325  1.00  0.00     0.103 A 
ENDROOT
BRANCH   7  11
HETATM   11  N3  UNL     1      25.401   3.176  49.581  1.00  0.00    -0.340 N 
HETATM   12  H6  UNL     1      25.159   2.341  48.898  1.00  0.00     0.167 HD
BRANCH  11  13
HETATM   13  C7  UNL     1      25.624   2.640  50.907  1.00  0.00     0.035 A 
HETATM   14  C8  UNL     1      24.558   2.007  51.524  1.00  0.00     0.032 A 
HETATM   15  C9  UNL     1      24.742   1.435  52.803  1.00  0.00     0.046 A 
HETATM   16  C10 UNL     1      25.970   1.511  53.421  1.00  0.00     0.138 A 
HETATM   17  F1  UNL     1      26.110   0.935  54.654  1.00  0.00    -0.204 F 
HETATM   18  C11 UNL     1      27.027   2.141  52.809  1.00  0.00     0.074 A 
HETATM   19 CL1  UNL     1      28.598   2.232  53.615  1.00  0.00    -0.081 Cl
HETATM   20  C12 UNL     1      26.823   2.679  51.587  1.00  0.00     0.056 A 
ENDBRANCH  11  13
ENDBRANCH   7  11
BRANCH  10  21
HETATM   21  O2  UNL     1      29.943   5.143  48.015  1.00  0.00    -0.347 OA
BRANCH  21  22
HETATM   22  C16 UNL     1      31.150   4.896  47.613  1.00  0.00     0.206 C 
BRANCH  22  23
HETATM   23  C17 UNL     1      32.265   5.228  48.625  1.00  0.00     0.301 C 
BRANCH  23  24
HETATM   24  N4  UNL     1      33.418   5.693  47.944  1.00  0.00     0.115 N 
HETATM   25  C18 UNL     1      33.756   7.070  48.141  1.00  0.00     0.301 C 
HETATM   26  C19 UNL     1      35.238   7.013  48.515  1.00  0.00     0.200 C 
HETATM   27  O3  UNL     1      35.471   5.713  48.939  1.00  0.00    -0.361 OA
HETATM   28  C20 UNL     1      34.585   4.922  48.210  1.00  0.00     0.440 C 
ENDBRANCH  23  24
ENDBRANCH  22  23
ENDBRANCH  21  22
ENDBRANCH  10  21
BRANCH   1  29
HETATM   29  O1  UNL     1      29.578   7.766  47.866  1.00  0.00    -0.353 OA
HETATM   30  C1  UNL     1      30.294   8.566  48.750  1.00  0.00     0.210 C 
ENDBRANCH   1  29
TORSDOF 7
ENDMDL
MODEL 6
REMARK VINA RESULT:      -7.7      1.891      2.198
REMARK  7 active torsions:
REMARK  status: ('A' for Active; 'I' for Inactive)
REMARK    1  A    between atoms: O1_2  and  C2_3 
REMARK    2  A    between atoms: C6_9  and  N3_10 
REMARK    3  A    between atoms: N3_10  and  C7_11 
REMARK    4  A    between atoms: C15_21  and  O2_22 
REMARK    5  A    between atoms: O2_22  and  C16_23 
REMARK    6  A    between atoms: C16_23  and  C17_24 
REMARK    7  A    between atoms: C17_24  and  N4_25 
ROOT
HETATM    1  C2  UNL     1      22.672   0.201  52.622  1.00  0.00     0.103 A 
HETATM    2  C3  UNL     1      21.708   0.621  51.722  1.00  0.00     0.072 A 
HETATM    3  C4  UNL     1      22.097   1.532  50.766  1.00  0.00     0.075 A 
HETATM    4  N1  UNL     1      21.271   2.022  49.848  1.00  0.00    -0.241 NA
HETATM    5  C5  UNL     1      21.648   2.918  48.913  1.00  0.00     0.236 A 
HETATM    6  N2  UNL     1      22.942   3.367  48.874  1.00  0.00    -0.224 NA
HETATM    7  C6  UNL     1      23.814   2.873  49.815  1.00  0.00     0.142 A 
HETATM    8  C13 UNL     1      23.412   1.960  50.767  1.00  0.00     0.042 A 
HETATM    9  C14 UNL     1      24.382   1.564  51.644  1.00  0.00     0.057 A 
HETATM   10  C15 UNL     1      24.006   0.651  52.614  1.00  0.00     0.103 A 
ENDROOT
BRANCH   7  11
HETATM   11  N3  UNL     1      25.074   3.412  49.548  1.00  0.00    -0.340 N 
HETATM   12  H6  UNL     1      26.024   2.917  49.270  1.00  0.00     0.167 HD
BRANCH  11  13
HETATM   13  C7  UNL     1      25.310   4.835  49.672  1.00  0.00     0.035 A 
HETATM   14  C8  UNL     1      24.615   5.511  50.661  1.00  0.00     0.032 A 
HETATM   15  C9  UNL     1      24.844   6.892  50.843  1.00  0.00     0.046 A 
HETATM   16  C10 UNL     1      25.750   7.551  50.042  1.00  0.00     0.138 A 
HETATM   17  F1  UNL     1      25.951   8.888  50.257  1.00  0.00    -0.204 F 
HETATM   18  C11 UNL     1      26.439   6.881  49.060  1.00  0.00     0.074 A 
HETATM   19 CL1  UNL     1      27.598   7.741  48.038  1.00  0.00    -0.081 Cl
HETATM   20  C12 UNL     1      26.200   5.560  48.907  1.00  0.00     0.056 A 
ENDBRANCH  11  13
ENDBRANCH   7  11
BRANCH  10  21
HETATM   21  O2  UNL     1      24.675   0.125  53.548  1.00  0.00    -0.347 OA
BRANCH  21  22
HETATM   22  C16 UNL     1      25.382  -0.509  54.430  1.00  0.00     0.206 C 
BRANCH  22  23
HETATM   23  C17 UNL     1      26.660   0.216  54.899  1.00  0.00     0.301 C 
BRANCH  23  24
HETATM   24  N4  UNL     1      27.660   0.135  53.898  1.00  0.00     0.115 N 
HETATM   25  C18 UNL     1      29.009   0.329  54.335  1.00  0.00     0.301 C 
HETATM   26  C19 UNL     1      29.743  -0.873  53.738  1.00  0.00     0.200 C 
HETATM   27  O3  UNL     1      28.762  -1.813  53.458  1.00  0.00    -0.361 OA
HETATM   28  C20 UNL     1      27.621  -1.076  53.150  1.00  0.00     0.440 C 
ENDBRANCH  23  24
ENDBRANCH  22  23
ENDBRANCH  21  22
ENDBRANCH  10  21
BRANCH   1  29
HETATM   29  O1  UNL     1      22.161  -0.720  53.536  1.00  0.00    -0.353 OA
HETATM   30  C1  UNL     1      21.312  -0.407  54.591  1.00  0.00     0.210 C 
ENDBRANCH   1  29
TORSDOF 7
ENDMDL
MODEL 7
REMARK VINA RESULT:      -7.5      4.340      7.576
REMARK  7 active torsions:
REMARK  status: ('A' for Active; 'I' for Inactive)
REMARK    1  A    between atoms: O1_2  and  C2_3 
REMARK    2  A    between atoms: C6_9  and  N3_10 
REMARK    3  A    between atoms: N3_10  and  C7_11 
REMARK    4  A    between atoms: C15_21  and  O2_22 
REMARK    5  A    between atoms: O2_22  and  C16_23 
REMARK    6  A    between atoms: C16_23  and  C17_24 
REMARK    7  A    between atoms: C17_24  and  N4_25 
ROOT
HETATM    1  C2  UNL     1      22.037   3.029  50.086  1.00  0.00     0.103 A 
HETATM    2  C3  UNL     1      23.115   3.411  49.305  1.00  0.00     0.072 A 
HETATM    3  C4  UNL     1      24.369   3.253  49.848  1.00  0.00     0.075 A 
HETATM    4  N1  UNL     1      25.487   3.587  49.210  1.00  0.00    -0.241 NA
HETATM    5  C5  UNL     1      26.717   3.438  49.741  1.00  0.00     0.236 A 
HETATM    6  N2  UNL     1      26.864   2.917  51.001  1.00  0.00    -0.224 NA
HETATM    7  C6  UNL     1      25.721   2.564  51.678  1.00  0.00     0.142 A 
HETATM    8  C13 UNL     1      24.470   2.727  51.123  1.00  0.00     0.042 A 
HETATM    9  C14 UNL     1      23.424   2.344  51.915  1.00  0.00     0.057 A 
HETATM   10  C15 UNL     1      22.155   2.499  51.385  1.00  0.00     0.103 A 
ENDROOT
BRANCH   7  11
HETATM   11  N3  UNL     1      26.108   2.003  52.897  1.00  0.00    -0.340 N 
HETATM   12  H6  UNL     1      26.058   2.410  53.924  1.00  0.00     0.167 HD
BRANCH  11  13
HETATM   13  C7  UNL     1      26.737   0.700  52.944  1.00  0.00     0.035 A 
HETATM   14  C8  UNL     1      25.981  -0.385  52.530  1.00  0.00     0.032 A 
HETATM   15  C9  UNL     1      26.566  -1.670  52.523  1.00  0.00     0.046 A 
HETATM   16  C10 UNL     1      27.874  -1.833  52.923  1.00  0.00     0.138 A 
HETATM   17  F1  UNL     1      28.407  -3.093  52.891  1.00  0.00    -0.204 F 
HETATM   18  C11 UNL     1      28.623  -0.757  53.335  1.00  0.00     0.074 A 
HETATM   19 CL1  UNL     1      30.300  -0.982  53.847  1.00  0.00    -0.081 Cl
HETATM   20  C12 UNL     1      28.038   0.460  53.332  1.00  0.00     0.056 A 
ENDBRANCH  11  13
ENDBRANCH   7  11
BRANCH  10  21
HETATM   21  O2  UNL     1      21.022   2.246  51.883  1.00  0.00    -0.347 OA
BRANCH  21  22
HETATM   22  C16 UNL     1      19.918   1.960  52.500  1.00  0.00     0.206 C 
BRANCH  22  23
HETATM   23  C17 UNL     1      18.725   1.607  51.590  1.00  0.00     0.301 C 
BRANCH  23  24
HETATM   24  N4  UNL     1      18.433   0.223  51.685  1.00  0.00     0.115 N 
HETATM   25  C18 UNL     1      19.100  -0.493  52.729  1.00  0.00     0.301 C 
HETATM   26  C19 UNL     1      17.959  -1.236  53.425  1.00  0.00     0.200 C 
HETATM   27  O3  UNL     1      16.799  -0.564  53.069  1.00  0.00    -0.361 OA
HETATM   28  C20 UNL     1      17.041  -0.058  51.794  1.00  0.00     0.440 C 
ENDBRANCH  23  24
ENDBRANCH  22  23
ENDBRANCH  21  22
ENDBRANCH  10  21
BRANCH   1  29
HETATM   29  O1  UNL     1      20.824   3.232  49.429  1.00  0.00    -0.353 OA
HETATM   30  C1  UNL     1      20.231   4.471  49.217  1.00  0.00     0.210 C 
ENDBRANCH   1  29
TORSDOF 7
ENDMDL
MODEL 8
REMARK VINA RESULT:      -7.3      3.333      6.676
REMARK  7 active torsions:
REMARK  status: ('A' for Active; 'I' for Inactive)
REMARK    1  A    between atoms: O1_2  and  C2_3 
REMARK    2  A    between atoms: C6_9  and  N3_10 
REMARK    3  A    between atoms: N3_10  and  C7_11 
REMARK    4  A    between atoms: C15_21  and  O2_22 
REMARK    5  A    between atoms: O2_22  and  C16_23 
REMARK    6  A    between atoms: C16_23  and  C17_24 
REMARK    7  A    between atoms: C17_24  and  N4_25 
ROOT
HETATM    1  C2  UNL     1      26.907   1.602  52.834  1.00  0.00     0.103 A 
HETATM    2  C3  UNL     1      26.845   0.888  54.018  1.00  0.00     0.072 A 
HETATM    3  C4  UNL     1      25.705   0.151  54.247  1.00  0.00     0.075 A 
HETATM    4  N1  UNL     1      25.514  -0.573  55.346  1.00  0.00    -0.241 NA
HETATM    5  C5  UNL     1      24.397  -1.292  55.574  1.00  0.00     0.236 A 
HETATM    6  N2  UNL     1      23.385  -1.305  54.649  1.00  0.00    -0.224 NA
HETATM    7  C6  UNL     1      23.563  -0.564  53.505  1.00  0.00     0.142 A 
HETATM    8  C13 UNL     1      24.710   0.170  53.288  1.00  0.00     0.042 A 
HETATM    9  C14 UNL     1      24.744   0.867  52.113  1.00  0.00     0.057 A 
HETATM   10  C15 UNL     1      25.882   1.616  51.869  1.00  0.00     0.103 A 
ENDROOT
BRANCH   7  11
HETATM   11  N3  UNL     1      22.451  -0.775  52.688  1.00  0.00    -0.340 N 
HETATM   12  H6  UNL     1      22.040  -1.707  52.258  1.00  0.00     0.167 HD
BRANCH  11  13
HETATM   13  C7  UNL     1      21.655   0.341  52.220  1.00  0.00     0.035 A 
HETATM   14  C8  UNL     1      21.200   1.239  53.171  1.00  0.00     0.032 A 
HETATM   15  C9  UNL     1      20.453   2.363  52.756  1.00  0.00     0.046 A 
HETATM   16  C10 UNL     1      20.186   2.557  51.418  1.00  0.00     0.138 A 
HETATM   17  F1  UNL     1      19.468   3.664  51.056  1.00  0.00    -0.204 F 
HETATM   18  C11 UNL     1      20.637   1.665  50.475  1.00  0.00     0.074 A 
HETATM   19 CL1  UNL     1      20.285   1.925  48.762  1.00  0.00    -0.081 Cl
HETATM   20  C12 UNL     1      21.348   0.598  50.901  1.00  0.00     0.056 A 
ENDBRANCH  11  13
ENDBRANCH   7  11
BRANCH  10  21
HETATM   21  O2  UNL     1      26.182   2.356  50.890  1.00  0.00    -0.347 OA
BRANCH  21  22
HETATM   22  C16 UNL     1      26.493   3.013  49.816  1.00  0.00     0.206 C 
BRANCH  22  23
HETATM   23  C17 UNL     1      25.636   4.265  49.537  1.00  0.00     0.301 C 
BRANCH  23  24
HETATM   24  N4  UNL     1      24.301   4.045  49.958  1.00  0.00     0.115 N 
HETATM   25  C18 UNL     1      23.651   5.147  50.600  1.00  0.00     0.301 C 
HETATM   26  C19 UNL     1      22.325   5.256  49.844  1.00  0.00     0.200 C 
HETATM   27  O3  UNL     1      22.523   4.596  48.640  1.00  0.00    -0.361 OA
HETATM   28  C20 UNL     1      23.444   3.589  48.917  1.00  0.00     0.440 C 
ENDBRANCH  23  24
ENDBRANCH  22  23
ENDBRANCH  21  22
ENDBRANCH  10  21
BRANCH   1  29
HETATM   29  O1  UNL     1      28.106   2.304  52.715  1.00  0.00    -0.353 OA
HETATM   30  C1  UNL     1      29.030   2.482  53.738  1.00  0.00     0.210 C 
ENDBRANCH   1  29
TORSDOF 7
ENDMDL
MODEL 9
REMARK VINA RESULT:      -7.2      2.337      5.245
REMARK  7 active torsions:
REMARK  status: ('A' for Active; 'I' for Inactive)
REMARK    1  A    between atoms: O1_2  and  C2_3 
REMARK    2  A    between atoms: C6_9  and  N3_10 
REMARK    3  A    between atoms: N3_10  and  C7_11 
REMARK    4  A    between atoms: C15_21  and  O2_22 
REMARK    5  A    between atoms: O2_22  and  C16_23 
REMARK    6  A    between atoms: C16_23  and  C17_24 
REMARK    7  A    between atoms: C17_24  and  N4_25 
ROOT
HETATM    1  C2  UNL     1      23.064   0.521  53.106  1.00  0.00     0.103 A 
HETATM    2  C3  UNL     1      24.309   0.657  53.696  1.00  0.00     0.072 A 
HETATM    3  C4  UNL     1      25.281   1.303  52.967  1.00  0.00     0.075 A 
HETATM    4  N1  UNL     1      26.519   1.493  53.412  1.00  0.00    -0.241 NA
HETATM    5  C5  UNL     1      27.475   2.121  52.698  1.00  0.00     0.236 A 
HETATM    6  N2  UNL     1      27.193   2.605  51.446  1.00  0.00    -0.224 NA
HETATM    7  C6  UNL     1      25.919   2.419  50.967  1.00  0.00     0.142 A 
HETATM    8  C13 UNL     1      24.953   1.770  51.708  1.00  0.00     0.042 A 
HETATM    9  C14 UNL     1      23.735   1.648  51.101  1.00  0.00     0.057 A 
HETATM   10  C15 UNL     1      22.746   0.998  51.820  1.00  0.00     0.103 A 
ENDROOT
BRANCH   7  11
HETATM   11  N3  UNL     1      25.841   3.040  49.719  1.00  0.00    -0.340 N 
HETATM   12  H6  UNL     1      25.685   2.613  48.711  1.00  0.00     0.167 HD
BRANCH  11  13
HETATM   13  C7  UNL     1      26.032   4.470  49.593  1.00  0.00     0.035 A 
HETATM   14  C8  UNL     1      27.103   4.902  48.829  1.00  0.00     0.032 A 
HETATM   15  C9  UNL     1      27.304   6.288  48.645  1.00  0.00     0.046 A 
HETATM   16  C10 UNL     1      26.440   7.192  49.223  1.00  0.00     0.138 A 
HETATM   17  F1  UNL     1      26.663   8.525  49.013  1.00  0.00    -0.204 F 
HETATM   18  C11 UNL     1      25.378   6.762  49.982  1.00  0.00     0.074 A 
HETATM   19 CL1  UNL     1      24.277   7.933  50.719  1.00  0.00    -0.081 Cl
HETATM   20  C12 UNL     1      25.210   5.431  50.141  1.00  0.00     0.056 A 
ENDBRANCH  11  13
ENDBRANCH   7  11
BRANCH  10  21
HETATM   21  O2  UNL     1      21.550   0.733  51.513  1.00  0.00    -0.347 OA
BRANCH  21  22
HETATM   22  C16 UNL     1      20.348   0.504  51.085  1.00  0.00     0.206 C 
BRANCH  22  23
HETATM   23  C17 UNL     1      19.999   1.139  49.724  1.00  0.00     0.301 C 
BRANCH  23  24
HETATM   24  N4  UNL     1      19.585   2.483  49.906  1.00  0.00     0.115 N 
HETATM   25  C18 UNL     1      19.091   2.822  51.206  1.00  0.00     0.301 C 
HETATM   26  C19 UNL     1      19.884   4.081  51.561  1.00  0.00     0.200 C 
HETATM   27  O3  UNL     1      20.998   4.071  50.734  1.00  0.00    -0.361 OA
HETATM   28  C20 UNL     1      20.585   3.437  49.564  1.00  0.00     0.440 C 
ENDBRANCH  23  24
ENDBRANCH  22  23
ENDBRANCH  21  22
ENDBRANCH  10  21
BRANCH   1  29
HETATM   29  O1  UNL     1      22.165  -0.144  53.939  1.00  0.00    -0.353 OA
HETATM   30  C1  UNL     1      22.516  -1.094  54.892  1.00  0.00     0.210 C 
ENDBRANCH   1  29
TORSDOF 7
ENDMDL
