MODEL 1
REMARK VINA RESULT:     -10.1      0.000      0.000
REMARK  2 active torsions:
REMARK  status: ('A' for Active; 'I' for Inactive)
REMARK    1  A    between atoms: C4_5  and  N1_6 
REMARK    2  A    between atoms: N1_6  and  C5_7 
ROOT
HETATM    1  C5  UNL     1      26.106   2.672  51.832  1.00  0.00     0.142 A 
HETATM    2  N2  UNL     1      26.733   3.271  50.838  1.00  0.00    -0.224 NA
HETATM    3  C6  UNL     1      26.238   3.615  49.645  1.00  0.00     0.235 A 
HETATM    4  N3  UNL     1      24.949   3.305  49.458  1.00  0.00    -0.241 NA
HETATM    5  C7  UNL     1      24.238   2.689  50.433  1.00  0.00     0.069 A 
HETATM    6  C8  UNL     1      24.786   2.351  51.649  1.00  0.00     0.039 A 
HETATM    7  C9  UNL     1      24.129   1.749  52.620  1.00  0.00     0.025 A 
HETATM    8  C10 UNL     1      22.706   1.392  52.432  1.00  0.00    -0.048 A 
HETATM    9  C11 UNL     1      22.117   0.756  53.436  1.00  0.00     0.028 C 
HETATM   10  C12 UNL     1      20.863   0.154  53.895  1.00  0.00     0.139 C 
HETATM   11  N4  UNL     1      19.742   0.059  53.338  1.00  0.00    -0.192 NA
HETATM   12  N5  UNL     1      18.577  -0.512  53.783  1.00  0.00    -0.314 N 
HETATM   13  C13 UNL     1      18.255  -1.246  52.604  1.00  0.00     0.143 C 
HETATM   14  C14 UNL     1      17.508  -0.448  51.599  1.00  0.00     0.051 C 
HETATM   15  C15 UNL     1      17.997   0.936  51.385  1.00  0.00     0.271 C 
HETATM   16  N6  UNL     1      19.368   1.119  51.171  1.00  0.00     0.083 N 
HETATM   17  C16 UNL     1      20.052   0.713  50.026  1.00  0.00     0.270 C 
HETATM   18  C17 UNL     1      21.524   0.531  50.436  1.00  0.00     0.043 C 
HETATM   19  C18 UNL     1      22.018   1.740  51.129  1.00  0.00     0.045 A 
HETATM   20  C19 UNL     1      22.980   2.414  50.199  1.00  0.00     0.015 A 
HETATM   21  H8  UNL     1      18.089  -0.431  54.699  1.00  0.00     0.182 HD
HETATM   22  H15 UNL     1      19.491   2.206  51.216  1.00  0.00     0.315 HD
ENDROOT
BRANCH   1  23
HETATM   23  N1  UNL     1      26.870   2.386  52.994  1.00  0.00    -0.340 N 
HETATM   24  H3  UNL     1      26.960   2.942  53.858  1.00  0.00     0.167 HD
BRANCH  23  25
HETATM   25  C4  UNL     1      27.665   1.218  53.121  1.00  0.00     0.035 A 
HETATM   26  C3  UNL     1      28.975   1.277  53.587  1.00  0.00     0.032 A 
HETATM   27  C2  UNL     1      29.812   0.169  53.754  1.00  0.00     0.046 A 
HETATM   28  C1  UNL     1      29.301  -1.068  53.433  1.00  0.00     0.138 A 
HETATM   29  F1  UNL     1      30.109  -2.152  53.593  1.00  0.00    -0.204 F 
HETATM   30  C21 UNL     1      28.010  -1.190  52.966  1.00  0.00     0.074 A 
HETATM   31  C20 UNL     1      27.228  -0.072  52.820  1.00  0.00     0.056 A 
HETATM   32 CL1  UNL     1      27.430  -2.804  52.577  1.00  0.00    -0.081 Cl
ENDBRANCH  23  25
ENDBRANCH   1  23
TORSDOF 2
ENDMDL
MODEL 2
REMARK VINA RESULT:      -9.9      4.397      8.871
REMARK  2 active torsions:
REMARK  status: ('A' for Active; 'I' for Inactive)
REMARK    1  A    between atoms: C4_5  and  N1_6 
REMARK    2  A    between atoms: N1_6  and  C5_7 
ROOT
HETATM    1  C5  UNL     1      18.452  -0.213  52.193  1.00  0.00     0.142 A 
HETATM    2  N2  UNL     1      17.750   0.258  51.180  1.00  0.00    -0.224 NA
HETATM    3  C6  UNL     1      18.201   0.901  50.099  1.00  0.00     0.235 A 
HETATM    4  N3  UNL     1      19.528   1.078  50.060  1.00  0.00    -0.241 NA
HETATM    5  C7  UNL     1      20.316   0.622  51.064  1.00  0.00     0.069 A 
HETATM    6  C8  UNL     1      19.810  -0.036  52.162  1.00  0.00     0.039 A 
HETATM    7  C9  UNL     1      20.542  -0.492  53.158  1.00  0.00     0.025 A 
HETATM    8  C10 UNL     1      22.009  -0.303  53.139  1.00  0.00    -0.048 A 
HETATM    9  C11 UNL     1      22.678  -0.753  54.191  1.00  0.00     0.028 C 
HETATM   10  C12 UNL     1      24.009  -0.889  54.790  1.00  0.00     0.139 C 
HETATM   11  N4  UNL     1      25.140  -0.540  54.373  1.00  0.00    -0.192 NA
HETATM   12  N5  UNL     1      26.378  -0.672  54.950  1.00  0.00    -0.314 N 
HETATM   13  C13 UNL     1      26.845   0.655  54.719  1.00  0.00     0.143 C 
HETATM   14  C14 UNL     1      27.462   0.838  53.382  1.00  0.00     0.051 C 
HETATM   15  C15 UNL     1      26.746   0.200  52.250  1.00  0.00     0.271 C 
HETATM   16  N6  UNL     1      25.368   0.422  52.141  1.00  0.00     0.083 N 
HETATM   17  C16 UNL     1      24.788   1.644  51.804  1.00  0.00     0.270 C 
HETATM   18  C17 UNL     1      23.361   1.626  52.381  1.00  0.00     0.043 C 
HETATM   19  C18 UNL     1      22.652   0.399  51.961  1.00  0.00     0.045 A 
HETATM   20  C19 UNL     1      21.606   0.816  50.973  1.00  0.00     0.015 A 
HETATM   21  H8  UNL     1      26.826  -1.490  55.412  1.00  0.00     0.182 HD
HETATM   22  H15 UNL     1      25.058  -0.275  51.356  1.00  0.00     0.315 HD
ENDROOT
BRANCH   1  23
HETATM   23  N1  UNL     1      17.725  -0.834  53.243  1.00  0.00    -0.340 N 
HETATM   24  H3  UNL     1      17.599  -0.515  54.215  1.00  0.00     0.167 HD
BRANCH  23  25
HETATM   25  C4  UNL     1      17.033  -2.062  53.075  1.00  0.00     0.035 A 
HETATM   26  C3  UNL     1      17.541  -3.257  53.575  1.00  0.00     0.032 A 
HETATM   27  C2  UNL     1      16.910  -4.500  53.463  1.00  0.00     0.046 A 
HETATM   28  C1  UNL     1      15.699  -4.541  52.810  1.00  0.00     0.138 A 
HETATM   29  F1  UNL     1      15.077  -5.748  52.697  1.00  0.00    -0.204 F 
HETATM   30  C21 UNL     1      15.145  -3.390  52.294  1.00  0.00     0.074 A 
HETATM   31  C20 UNL     1      15.804  -2.194  52.430  1.00  0.00     0.056 A 
HETATM   32 CL1  UNL     1      13.595  -3.525  51.474  1.00  0.00    -0.081 Cl
ENDBRANCH  23  25
ENDBRANCH   1  23
TORSDOF 2
ENDMDL
MODEL 3
REMARK VINA RESULT:      -9.5      2.159      3.782
REMARK  2 active torsions:
REMARK  status: ('A' for Active; 'I' for Inactive)
REMARK    1  A    between atoms: C4_5  and  N1_6 
REMARK    2  A    between atoms: N1_6  and  C5_7 
ROOT
HETATM    1  C5  UNL     1      24.346   0.085  53.806  1.00  0.00     0.142 A 
HETATM    2  N2  UNL     1      24.570  -0.630  54.891  1.00  0.00    -0.224 NA
HETATM    3  C6  UNL     1      23.707  -1.407  55.553  1.00  0.00     0.235 A 
HETATM    4  N3  UNL     1      22.474  -1.451  55.034  1.00  0.00    -0.241 NA
HETATM    5  C7  UNL     1      22.167  -0.743  53.920  1.00  0.00     0.069 A 
HETATM    6  C8  UNL     1      23.086   0.047  53.268  1.00  0.00     0.039 A 
HETATM    7  C9  UNL     1      22.826   0.751  52.185  1.00  0.00     0.025 A 
HETATM    8  C10 UNL     1      21.468   0.722  51.598  1.00  0.00    -0.048 A 
HETATM    9  C11 UNL     1      21.268   1.484  50.531  1.00  0.00     0.028 C 
HETATM   10  C12 UNL     1      20.278   1.910  49.538  1.00  0.00     0.139 C 
HETATM   11  N4  UNL     1      19.073   1.594  49.388  1.00  0.00    -0.192 NA
HETATM   12  N5  UNL     1      18.158   2.006  48.452  1.00  0.00    -0.314 N 
HETATM   13  C13 UNL     1      17.075   2.273  49.341  1.00  0.00     0.143 C 
HETATM   14  C14 UNL     1      16.256   1.075  49.648  1.00  0.00     0.051 C 
HETATM   15  C15 UNL     1      17.015  -0.173  49.912  1.00  0.00     0.271 C 
HETATM   16  N6  UNL     1      18.076  -0.111  50.823  1.00  0.00     0.083 N 
HETATM   17  C16 UNL     1      17.930   0.078  52.197  1.00  0.00     0.270 C 
HETATM   18  C17 UNL     1      19.253   0.684  52.699  1.00  0.00     0.043 C 
HETATM   19  C18 UNL     1      20.398  -0.132  52.244  1.00  0.00     0.045 A 
HETATM   20  C19 UNL     1      20.948  -0.826  53.452  1.00  0.00     0.015 A 
HETATM   21  H8  UNL     1      18.239   2.095  47.418  1.00  0.00     0.182 HD
HETATM   22  H15 UNL     1      18.565  -1.083  50.711  1.00  0.00     0.315 HD
ENDROOT
BRANCH   1  23
HETATM   23  N1  UNL     1      25.430   0.857  53.311  1.00  0.00    -0.340 N 
HETATM   24  H3  UNL     1      25.404   1.771  52.833  1.00  0.00     0.167 HD
BRANCH  23  25
HETATM   25  C4  UNL     1      26.782   0.439  53.417  1.00  0.00     0.035 A 
HETATM   26  C3  UNL     1      27.793   1.330  53.764  1.00  0.00     0.032 A 
HETATM   27  C2  UNL     1      29.142   0.988  53.902  1.00  0.00     0.046 A 
HETATM   28  C1  UNL     1      29.492  -0.324  53.680  1.00  0.00     0.138 A 
HETATM   29  F1  UNL     1      30.804  -0.665  53.814  1.00  0.00    -0.204 F 
HETATM   30  C21 UNL     1      28.534  -1.252  53.334  1.00  0.00     0.074 A 
HETATM   31  C20 UNL     1      27.223  -0.868  53.211  1.00  0.00     0.056 A 
HETATM   32 CL1  UNL     1      29.061  -2.909  53.066  1.00  0.00    -0.081 Cl
ENDBRANCH  23  25
ENDBRANCH   1  23
TORSDOF 2
ENDMDL
MODEL 4
REMARK VINA RESULT:      -9.4      3.521      5.308
REMARK  2 active torsions:
REMARK  status: ('A' for Active; 'I' for Inactive)
REMARK    1  A    between atoms: C4_5  and  N1_6 
REMARK    2  A    between atoms: N1_6  and  C5_7 
ROOT
HETATM    1  C5  UNL     1      26.239   2.581  50.801  1.00  0.00     0.142 A 
HETATM    2  N2  UNL     1      27.161   2.529  51.742  1.00  0.00    -0.224 NA
HETATM    3  C6  UNL     1      27.028   2.083  52.996  1.00  0.00     0.235 A 
HETATM    4  N3  UNL     1      25.803   1.642  53.311  1.00  0.00    -0.241 NA
HETATM    5  C7  UNL     1      24.804   1.664  52.396  1.00  0.00     0.069 A 
HETATM    6  C8  UNL     1      24.983   2.132  51.114  1.00  0.00     0.039 A 
HETATM    7  C9  UNL     1      24.037   2.172  50.198  1.00  0.00     0.025 A 
HETATM    8  C10 UNL     1      22.676   1.694  50.527  1.00  0.00    -0.048 A 
HETATM    9  C11 UNL     1      21.765   1.798  49.569  1.00  0.00     0.028 C 
HETATM   10  C12 UNL     1      20.361   1.555  49.226  1.00  0.00     0.139 C 
HETATM   11  N4  UNL     1      19.421   1.065  49.899  1.00  0.00    -0.192 NA
HETATM   12  N5  UNL     1      18.109   0.848  49.562  1.00  0.00    -0.314 N 
HETATM   13  C13 UNL     1      17.512   1.388  50.740  1.00  0.00     0.143 C 
HETATM   14  C14 UNL     1      17.414   0.410  51.852  1.00  0.00     0.051 C 
HETATM   15  C15 UNL     1      18.609  -0.443  52.066  1.00  0.00     0.271 C 
HETATM   16  N6  UNL     1      19.857   0.188  52.135  1.00  0.00     0.083 N 
HETATM   17  C16 UNL     1      20.271   1.012  53.181  1.00  0.00     0.270 C 
HETATM   18  C17 UNL     1      21.355   1.940  52.604  1.00  0.00     0.043 C 
HETATM   19  C18 UNL     1      22.394   1.150  51.911  1.00  0.00     0.045 A 
HETATM   20  C19 UNL     1      23.629   1.215  52.756  1.00  0.00     0.015 A 
HETATM   21  H8  UNL     1      17.690   0.423  48.710  1.00  0.00     0.182 HD
HETATM   22  H15 UNL     1      20.565  -0.646  52.122  1.00  0.00     0.315 HD
ENDROOT
BRANCH   1  23
HETATM   23  N1  UNL     1      26.629   3.131  49.551  1.00  0.00    -0.340 N 
HETATM   24  H3  UNL     1      26.881   2.637  48.681  1.00  0.00     0.167 HD
BRANCH  23  25
HETATM   25  C4  UNL     1      26.731   4.528  49.325  1.00  0.00     0.035 A 
HETATM   26  C3  UNL     1      27.765   5.068  48.568  1.00  0.00     0.032 A 
HETATM   27  C2  UNL     1      27.922   6.430  48.290  1.00  0.00     0.046 A 
HETATM   28  C1  UNL     1      26.985   7.296  48.805  1.00  0.00     0.138 A 
HETATM   29  F1  UNL     1      27.130   8.624  48.539  1.00  0.00    -0.204 F 
HETATM   30  C21 UNL     1      25.938   6.820  49.563  1.00  0.00     0.074 A 
HETATM   31  C20 UNL     1      25.827   5.474  49.807  1.00  0.00     0.056 A 
HETATM   32 CL1  UNL     1      24.781   7.990  50.187  1.00  0.00    -0.081 Cl
ENDBRANCH  23  25
ENDBRANCH   1  23
TORSDOF 2
ENDMDL
MODEL 5
REMARK VINA RESULT:      -9.3      2.000      2.848
REMARK  2 active torsions:
REMARK  status: ('A' for Active; 'I' for Inactive)
REMARK    1  A    between atoms: C4_5  and  N1_6 
REMARK    2  A    between atoms: N1_6  and  C5_7 
ROOT
HETATM    1  C5  UNL     1      23.796   1.062  53.007  1.00  0.00     0.142 A 
HETATM    2  N2  UNL     1      24.533   2.042  52.522  1.00  0.00    -0.224 NA
HETATM    3  C6  UNL     1      24.137   3.067  51.762  1.00  0.00     0.235 A 
HETATM    4  N3  UNL     1      22.830   3.080  51.470  1.00  0.00    -0.241 NA
HETATM    5  C7  UNL     1      22.008   2.107  51.932  1.00  0.00     0.069 A 
HETATM    6  C8  UNL     1      22.458   1.067  52.713  1.00  0.00     0.039 A 
HETATM    7  C9  UNL     1      21.692   0.102  53.179  1.00  0.00     0.025 A 
HETATM    8  C10 UNL     1      20.246   0.095  52.864  1.00  0.00    -0.048 A 
HETATM    9  C11 UNL     1      19.543  -0.926  53.335  1.00  0.00     0.028 C 
HETATM   10  C12 UNL     1      18.207  -1.525  53.401  1.00  0.00     0.139 C 
HETATM   11  N4  UNL     1      17.108  -1.145  52.926  1.00  0.00    -0.192 NA
HETATM   12  N5  UNL     1      15.866  -1.722  52.996  1.00  0.00    -0.314 N 
HETATM   13  C13 UNL     1      15.514  -1.596  51.620  1.00  0.00     0.143 C 
HETATM   14  C14 UNL     1      14.912  -0.283  51.283  1.00  0.00     0.051 C 
HETATM   15  C15 UNL     1      15.568   0.901  51.891  1.00  0.00     0.271 C 
HETATM   16  N6  UNL     1      16.960   1.005  51.780  1.00  0.00     0.083 N 
HETATM   17  C16 UNL     1      17.642   1.253  50.590  1.00  0.00     0.270 C 
HETATM   18  C17 UNL     1      19.063   0.691  50.775  1.00  0.00     0.043 C 
HETATM   19  C18 UNL     1      19.664   1.209  52.022  1.00  0.00     0.045 A 
HETATM   20  C19 UNL     1      20.739   2.172  51.621  1.00  0.00     0.015 A 
HETATM   21  H8  UNL     1      15.350  -2.124  53.806  1.00  0.00     0.182 HD
HETATM   22  H15 UNL     1      17.207   1.843  52.439  1.00  0.00     0.315 HD
ENDROOT
BRANCH   1  23
HETATM   23  N1  UNL     1      24.468   0.069  53.767  1.00  0.00    -0.340 N 
HETATM   24  H3  UNL     1      24.078  -0.578  54.470  1.00  0.00     0.167 HD
BRANCH  23  25
HETATM   25  C4  UNL     1      25.861  -0.176  53.649  1.00  0.00     0.035 A 
HETATM   26  C3  UNL     1      26.348  -1.299  52.987  1.00  0.00     0.032 A 
HETATM   27  C2  UNL     1      27.704  -1.598  52.818  1.00  0.00     0.046 A 
HETATM   28  C1  UNL     1      28.620  -0.717  53.345  1.00  0.00     0.138 A 
HETATM   29  F1  UNL     1      29.942  -1.001  53.184  1.00  0.00    -0.204 F 
HETATM   30  C21 UNL     1      28.198   0.412  54.012  1.00  0.00     0.074 A 
HETATM   31  C20 UNL     1      26.856   0.662  54.152  1.00  0.00     0.056 A 
HETATM   32 CL1  UNL     1      29.430   1.489  54.658  1.00  0.00    -0.081 Cl
ENDBRANCH  23  25
ENDBRANCH   1  23
TORSDOF 2
ENDMDL
MODEL 6
REMARK VINA RESULT:      -9.3      4.823      9.644
REMARK  2 active torsions:
REMARK  status: ('A' for Active; 'I' for Inactive)
REMARK    1  A    between atoms: C4_5  and  N1_6 
REMARK    2  A    between atoms: N1_6  and  C5_7 
ROOT
HETATM    1  C5  UNL     1      25.374   4.257  49.395  1.00  0.00     0.142 A 
HETATM    2  N2  UNL     1      24.128   4.642  49.594  1.00  0.00    -0.224 NA
HETATM    3  C6  UNL     1      23.604   5.856  49.395  1.00  0.00     0.235 A 
HETATM    4  N3  UNL     1      24.465   6.774  48.939  1.00  0.00    -0.241 NA
HETATM    5  C7  UNL     1      25.762   6.454  48.711  1.00  0.00     0.069 A 
HETATM    6  C8  UNL     1      26.262   5.191  48.930  1.00  0.00     0.039 A 
HETATM    7  C9  UNL     1      27.515   4.840  48.723  1.00  0.00     0.025 A 
HETATM    8  C10 UNL     1      28.484   5.841  48.225  1.00  0.00    -0.048 A 
HETATM    9  C11 UNL     1      29.736   5.430  48.074  1.00  0.00     0.028 C 
HETATM   10  C12 UNL     1      31.085   5.836  47.671  1.00  0.00     0.139 C 
HETATM   11  N4  UNL     1      31.526   6.936  47.257  1.00  0.00    -0.192 NA
HETATM   12  N5  UNL     1      32.796   7.299  46.887  1.00  0.00    -0.314 N 
HETATM   13  C13 UNL     1      32.865   8.530  47.604  1.00  0.00     0.143 C 
HETATM   14  C14 UNL     1      32.293   9.679  46.859  1.00  0.00     0.051 C 
HETATM   15  C15 UNL     1      31.016   9.415  46.151  1.00  0.00     0.271 C 
HETATM   16  N6  UNL     1      29.988   8.791  46.869  1.00  0.00     0.083 N 
HETATM   17  C16 UNL     1      29.276   9.386  47.909  1.00  0.00     0.270 C 
HETATM   18  C17 UNL     1      28.732   8.239  48.780  1.00  0.00     0.043 C 
HETATM   19  C18 UNL     1      28.016   7.253  47.944  1.00  0.00     0.045 A 
HETATM   20  C19 UNL     1      26.559   7.389  48.260  1.00  0.00     0.015 A 
HETATM   21  H8  UNL     1      33.487   6.819  46.275  1.00  0.00     0.182 HD
HETATM   22  H15 UNL     1      29.245   8.559  46.100  1.00  0.00     0.315 HD
ENDROOT
BRANCH   1  23
HETATM   23  N1  UNL     1      25.687   2.910  49.716  1.00  0.00    -0.340 N 
HETATM   24  H3  UNL     1      25.809   2.108  49.078  1.00  0.00     0.167 HD
BRANCH  23  25
HETATM   25  C4  UNL     1      25.884   2.463  51.048  1.00  0.00     0.035 A 
HETATM   26  C3  UNL     1      24.854   1.881  51.780  1.00  0.00     0.032 A 
HETATM   27  C2  UNL     1      24.977   1.405  53.089  1.00  0.00     0.046 A 
HETATM   28  C1  UNL     1      26.207   1.520  53.694  1.00  0.00     0.138 A 
HETATM   29  F1  UNL     1      26.336   1.058  54.969  1.00  0.00    -0.204 F 
HETATM   30  C21 UNL     1      27.266   2.087  53.020  1.00  0.00     0.074 A 
HETATM   31  C20 UNL     1      27.095   2.540  51.736  1.00  0.00     0.056 A 
HETATM   32 CL1  UNL     1      28.807   2.200  53.862  1.00  0.00    -0.081 Cl
ENDBRANCH  23  25
ENDBRANCH   1  23
TORSDOF 2
ENDMDL
MODEL 7
REMARK VINA RESULT:      -9.2      3.818      7.889
REMARK  2 active torsions:
REMARK  status: ('A' for Active; 'I' for Inactive)
REMARK    1  A    between atoms: C4_5  and  N1_6 
REMARK    2  A    between atoms: N1_6  and  C5_7 
ROOT
HETATM    1  C5  UNL     1      23.624   3.066  51.336  1.00  0.00     0.142 A 
HETATM    2  N2  UNL     1      22.478   3.195  51.976  1.00  0.00    -0.224 NA
HETATM    3  C6  UNL     1      21.747   4.303  52.132  1.00  0.00     0.235 A 
HETATM    4  N3  UNL     1      22.258   5.402  51.562  1.00  0.00    -0.241 NA
HETATM    5  C7  UNL     1      23.432   5.348  50.888  1.00  0.00     0.069 A 
HETATM    6  C8  UNL     1      24.155   4.185  50.750  1.00  0.00     0.039 A 
HETATM    7  C9  UNL     1      25.300   4.093  50.105  1.00  0.00     0.025 A 
HETATM    8  C10 UNL     1      25.886   5.296  49.473  1.00  0.00    -0.048 A 
HETATM    9  C11 UNL     1      27.058   5.139  48.873  1.00  0.00     0.028 C 
HETATM   10  C12 UNL     1      28.116   5.821  48.123  1.00  0.00     0.139 C 
HETATM   11  N4  UNL     1      28.224   7.016  47.753  1.00  0.00    -0.192 NA
HETATM   12  N5  UNL     1      29.225   7.639  47.052  1.00  0.00    -0.314 N 
HETATM   13  C13 UNL     1      29.354   8.794  47.879  1.00  0.00     0.143 C 
HETATM   14  C14 UNL     1      28.402   9.878  47.530  1.00  0.00     0.051 C 
HETATM   15  C15 UNL     1      27.013   9.444  47.237  1.00  0.00     0.271 C 
HETATM   16  N6  UNL     1      26.393   8.581  48.148  1.00  0.00     0.083 N 
HETATM   17  C16 UNL     1      25.997   8.940  49.436  1.00  0.00     0.270 C 
HETATM   18  C17 UNL     1      25.955   7.641  50.260  1.00  0.00     0.043 C 
HETATM   19  C18 UNL     1      25.150   6.616  49.564  1.00  0.00     0.045 A 
HETATM   20  C19 UNL     1      23.883   6.450  50.346  1.00  0.00     0.015 A 
HETATM   21  H8  UNL     1      29.729   7.351  46.189  1.00  0.00     0.182 HD
HETATM   22  H15 UNL     1      25.475   8.282  47.632  1.00  0.00     0.315 HD
ENDROOT
BRANCH   1  23
HETATM   23  N1  UNL     1      24.221   1.778  51.341  1.00  0.00    -0.340 N 
HETATM   24  H3  UNL     1      24.089   1.004  50.671  1.00  0.00     0.167 HD
BRANCH  23  25
HETATM   25  C4  UNL     1      25.137   1.360  52.341  1.00  0.00     0.035 A 
HETATM   26  C3  UNL     1      24.870   0.269  53.162  1.00  0.00     0.032 A 
HETATM   27  C2  UNL     1      25.730  -0.210  54.156  1.00  0.00     0.046 A 
HETATM   28  C1  UNL     1      26.926   0.448  54.332  1.00  0.00     0.138 A 
HETATM   29  F1  UNL     1      27.770  -0.012  55.297  1.00  0.00    -0.204 F 
HETATM   30  C21 UNL     1      27.246   1.535  53.549  1.00  0.00     0.074 A 
HETATM   31  C20 UNL     1      26.369   1.966  52.587  1.00  0.00     0.056 A 
HETATM   32 CL1  UNL     1      28.793   2.322  53.836  1.00  0.00    -0.081 Cl
ENDBRANCH  23  25
ENDBRANCH   1  23
TORSDOF 2
ENDMDL
MODEL 8
REMARK VINA RESULT:      -9.1      3.659      8.077
REMARK  2 active torsions:
REMARK  status: ('A' for Active; 'I' for Inactive)
REMARK    1  A    between atoms: C4_5  and  N1_6 
REMARK    2  A    between atoms: N1_6  and  C5_7 
ROOT
HETATM    1  C5  UNL     1      22.683   2.953  50.691  1.00  0.00     0.142 A 
HETATM    2  N2  UNL     1      21.470   3.217  51.135  1.00  0.00    -0.224 NA
HETATM    3  C6  UNL     1      20.877   4.410  51.239  1.00  0.00     0.235 A 
HETATM    4  N3  UNL     1      21.623   5.448  50.839  1.00  0.00    -0.241 NA
HETATM    5  C7  UNL     1      22.880   5.255  50.370  1.00  0.00     0.069 A 
HETATM    6  C8  UNL     1      23.454   4.008  50.280  1.00  0.00     0.039 A 
HETATM    7  C9  UNL     1      24.673   3.781  49.833  1.00  0.00     0.025 A 
HETATM    8  C10 UNL     1      25.516   4.913  49.391  1.00  0.00    -0.048 A 
HETATM    9  C11 UNL     1      26.744   4.615  48.988  1.00  0.00     0.028 C 
HETATM   10  C12 UNL     1      27.999   5.170  48.475  1.00  0.00     0.139 C 
HETATM   11  N4  UNL     1      28.330   6.352  48.209  1.00  0.00    -0.192 NA
HETATM   12  N5  UNL     1      29.513   6.855  47.731  1.00  0.00    -0.314 N 
HETATM   13  C13 UNL     1      29.647   7.943  48.643  1.00  0.00     0.143 C 
HETATM   14  C14 UNL     1      28.925   9.166  48.211  1.00  0.00     0.051 C 
HETATM   15  C15 UNL     1      27.564   8.948  47.660  1.00  0.00     0.271 C 
HETATM   16  N6  UNL     1      26.683   8.145  48.393  1.00  0.00     0.083 N 
HETATM   17  C16 UNL     1      26.118   8.502  49.616  1.00  0.00     0.270 C 
HETATM   18  C17 UNL     1      25.758   7.188  50.333  1.00  0.00     0.043 C 
HETATM   19  C18 UNL     1      24.958   6.319  49.443  1.00  0.00     0.045 A 
HETATM   20  C19 UNL     1      23.563   6.304  49.987  1.00  0.00     0.015 A 
HETATM   21  H8  UNL     1      30.119   6.534  46.948  1.00  0.00     0.182 HD
HETATM   22  H15 UNL     1      25.839   8.003  47.710  1.00  0.00     0.315 HD
ENDROOT
BRANCH   1  23
HETATM   23  N1  UNL     1      23.092   1.593  50.711  1.00  0.00    -0.340 N 
HETATM   24  H3  UNL     1      23.380   0.995  49.921  1.00  0.00     0.167 HD
BRANCH  23  25
HETATM   25  C4  UNL     1      23.158   0.828  51.905  1.00  0.00     0.035 A 
HETATM   26  C3  UNL     1      22.046   0.152  52.397  1.00  0.00     0.032 A 
HETATM   27  C2  UNL     1      22.039  -0.632  53.556  1.00  0.00     0.046 A 
HETATM   28  C1  UNL     1      23.218  -0.740  54.257  1.00  0.00     0.138 A 
HETATM   29  F1  UNL     1      23.220  -1.502  55.387  1.00  0.00    -0.204 F 
HETATM   30  C21 UNL     1      24.352  -0.093  53.819  1.00  0.00     0.074 A 
HETATM   31  C20 UNL     1      24.308   0.665  52.676  1.00  0.00     0.056 A 
HETATM   32 CL1  UNL     1      25.820  -0.279  54.771  1.00  0.00    -0.081 Cl
ENDBRANCH  23  25
ENDBRANCH   1  23
TORSDOF 2
ENDMDL
MODEL 9
REMARK VINA RESULT:      -9.0      5.508     10.470
REMARK  2 active torsions:
REMARK  status: ('A' for Active; 'I' for Inactive)
REMARK    1  A    between atoms: C4_5  and  N1_6 
REMARK    2  A    between atoms: N1_6  and  C5_7 
ROOT
HETATM    1  C5  UNL     1      26.141   5.335  49.040  1.00  0.00     0.142 A 
HETATM    2  N2  UNL     1      25.112   6.094  49.361  1.00  0.00    -0.224 NA
HETATM    3  C6  UNL     1      25.065   7.429  49.420  1.00  0.00     0.235 A 
HETATM    4  N3  UNL     1      26.212   8.048  49.114  1.00  0.00    -0.241 NA
HETATM    5  C7  UNL     1      27.313   7.335  48.774  1.00  0.00     0.069 A 
HETATM    6  C8  UNL     1      27.319   5.960  48.726  1.00  0.00     0.039 A 
HETATM    7  C9  UNL     1      28.369   5.232  48.403  1.00  0.00     0.025 A 
HETATM    8  C10 UNL     1      29.648   5.895  48.067  1.00  0.00    -0.048 A 
HETATM    9  C11 UNL     1      30.672   5.101  47.788  1.00  0.00     0.028 C 
HETATM   10  C12 UNL     1      32.089   5.066  47.415  1.00  0.00     0.139 C 
HETATM   11  N4  UNL     1      32.908   5.994  47.201  1.00  0.00    -0.192 NA
HETATM   12  N5  UNL     1      34.234   5.942  46.855  1.00  0.00    -0.314 N 
HETATM   13  C13 UNL     1      34.718   6.903  47.791  1.00  0.00     0.143 C 
HETATM   14  C14 UNL     1      34.620   8.301  47.304  1.00  0.00     0.051 C 
HETATM   15  C15 UNL     1      33.356   8.655  46.613  1.00  0.00     0.271 C 
HETATM   16  N6  UNL     1      32.151   8.314  47.240  1.00  0.00     0.083 N 
HETATM   17  C16 UNL     1      31.668   8.911  48.404  1.00  0.00     0.270 C 
HETATM   18  C17 UNL     1      30.723   7.889  49.060  1.00  0.00     0.043 C 
HETATM   19  C18 UNL     1      29.727   7.407  48.081  1.00  0.00     0.045 A 
HETATM   20  C19 UNL     1      28.406   7.991  48.478  1.00  0.00     0.015 A 
HETATM   21  H8  UNL     1      34.724   5.375  46.134  1.00  0.00     0.182 HD
HETATM   22  H15 UNL     1      31.398   8.517  46.473  1.00  0.00     0.315 HD
ENDROOT
BRANCH   1  23
HETATM   23  N1  UNL     1      25.940   3.930  49.083  1.00  0.00    -0.340 N 
HETATM   24  H3  UNL     1      25.901   3.261  48.299  1.00  0.00     0.167 HD
BRANCH  23  25
HETATM   25  C4  UNL     1      25.751   3.218  50.296  1.00  0.00     0.035 A 
HETATM   26  C3  UNL     1      26.830   2.787  51.061  1.00  0.00     0.032 A 
HETATM   27  C2  UNL     1      26.721   2.095  52.272  1.00  0.00     0.046 A 
HETATM   28  C1  UNL     1      25.456   1.822  52.737  1.00  0.00     0.138 A 
HETATM   29  F1  UNL     1      25.341   1.149  53.916  1.00  0.00    -0.204 F 
HETATM   30  C21 UNL     1      24.348   2.224  52.023  1.00  0.00     0.074 A 
HETATM   31  C20 UNL     1      24.507   2.901  50.840  1.00  0.00     0.056 A 
HETATM   32 CL1  UNL     1      22.764   1.838  52.684  1.00  0.00    -0.081 Cl
ENDBRANCH  23  25
ENDBRANCH   1  23
TORSDOF 2
ENDMDL
