MODEL 1
REMARK VINA RESULT:      -9.5      0.000      0.000
REMARK  2 active torsions:
REMARK  status: ('A' for Active; 'I' for Inactive)
REMARK    1  A    between atoms: C2_2  and  C3_3 
REMARK    2  A    between atoms: C18_21  and  C19_22 
REMARK       I    between atoms: C19_22  and  N3_23 
ROOT
HETATM    1  C3  UNL     1      20.543   1.270  52.885  1.00  0.00     0.113 C 
HETATM    2  C4  UNL     1      20.032   2.578  52.365  1.00  0.00     0.074 C 
HETATM    3  C5  UNL     1      20.474   2.936  51.010  1.00  0.00     0.092 C 
HETATM    4  N1  UNL     1      21.231   2.480  50.074  1.00  0.00    -0.262 NA
HETATM    5  C6  UNL     1      21.451   3.112  48.820  1.00  0.00     0.089 A 
HETATM    6  C7  UNL     1      20.956   2.785  47.578  1.00  0.00     0.034 A 
HETATM    7  C8  UNL     1      21.282   3.519  46.460  1.00  0.00     0.002 A 
HETATM    8  C9  UNL     1      22.118   4.611  46.549  1.00  0.00     0.003 A 
HETATM    9  C10 UNL     1      22.626   4.959  47.783  1.00  0.00     0.040 A 
HETATM   10  C11 UNL     1      22.302   4.221  48.916  1.00  0.00     0.105 A 
HETATM   11  O1  UNL     1      22.884   4.693  50.060  1.00  0.00    -0.302 OA
HETATM   12  C12 UNL     1      24.159   5.194  50.197  1.00  0.00     0.258 C 
HETATM   13  N2  UNL     1      24.396   4.768  51.413  1.00  0.00    -0.248 NA
HETATM   14  C13 UNL     1      23.436   4.028  52.139  1.00  0.00     0.128 C 
HETATM   15  C14 UNL     1      23.607   2.734  52.327  1.00  0.00    -0.009 C 
HETATM   16  C15 UNL     1      24.877   2.415  51.658  1.00  0.00     0.047 C 
HETATM   17  C16 UNL     1      25.947   2.074  52.701  1.00  0.00     0.048 C 
HETATM   18  C17 UNL     1      25.465   0.863  53.467  1.00  0.00     0.009 A 
HETATM   19  C18 UNL     1      26.188  -0.081  54.102  1.00  0.00     0.153 A 
HETATM   20  N4  UNL     1      25.261  -0.933  54.562  1.00  0.00    -0.166 NA
HETATM   21  N5  UNL     1      24.055  -0.514  54.219  1.00  0.00    -0.271 N 
HETATM   22  C20 UNL     1      22.857  -1.218  54.578  1.00  0.00     0.180 C 
HETATM   23  C21 UNL     1      24.082   0.645  53.506  1.00  0.00     0.090 A 
HETATM   24  C22 UNL     1      23.016   1.519  52.954  1.00  0.00     0.088 C 
HETATM   25  N6  UNL     1      21.876   1.065  53.102  1.00  0.00    -0.281 NA
ENDROOT
BRANCH  19  26
HETATM   26  C19 UNL     1      27.629  -0.128  54.233  1.00  0.00     0.270 C 
HETATM   27  N3  UNL     1      28.320   0.891  54.938  1.00  0.00    -0.365 N 
HETATM   28  H20 UNL     1      28.824   1.384  54.162  1.00  0.00     0.159 HD
HETATM   29  H21 UNL     1      28.343   1.120  55.966  1.00  0.00     0.159 HD
HETATM   30  O2  UNL     1      28.227  -1.112  53.693  1.00  0.00    -0.266 OA
ENDBRANCH  19  26
BRANCH   1  31
HETATM   31  C2  UNL     1      20.017   0.224  51.878  1.00  0.00     0.023 C 
HETATM   32  C1  UNL     1      18.593  -0.146  52.128  1.00  0.00     0.007 C 
ENDBRANCH   1  31
TORSDOF 2
ENDMDL
MODEL 2
REMARK VINA RESULT:      -8.7      2.419      5.390
REMARK  2 active torsions:
REMARK  status: ('A' for Active; 'I' for Inactive)
REMARK    1  A    between atoms: C2_2  and  C3_3 
REMARK    2  A    between atoms: C18_21  and  C19_22 
REMARK       I    between atoms: C19_22  and  N3_23 
ROOT
HETATM    1  C3  UNL     1      25.161   1.087  52.439  1.00  0.00     0.113 C 
HETATM    2  C4  UNL     1      25.628   1.784  51.199  1.00  0.00     0.074 C 
HETATM    3  C5  UNL     1      25.024   3.100  50.947  1.00  0.00     0.092 C 
HETATM    4  N1  UNL     1      24.146   3.889  51.460  1.00  0.00    -0.262 NA
HETATM    5  C6  UNL     1      23.781   5.158  50.934  1.00  0.00     0.089 A 
HETATM    6  C7  UNL     1      24.108   6.417  51.384  1.00  0.00     0.034 A 
HETATM    7  C8  UNL     1      23.658   7.548  50.741  1.00  0.00     0.002 A 
HETATM    8  C9  UNL     1      22.862   7.455  49.620  1.00  0.00     0.003 A 
HETATM    9  C10 UNL     1      22.521   6.205  49.149  1.00  0.00     0.040 A 
HETATM   10  C11 UNL     1      22.972   5.058  49.795  1.00  0.00     0.105 A 
HETATM   11  O1  UNL     1      22.549   3.899  49.206  1.00  0.00    -0.302 OA
HETATM   12  C12 UNL     1      21.312   3.649  48.656  1.00  0.00     0.258 C 
HETATM   13  N2  UNL     1      21.223   2.380  48.965  1.00  0.00    -0.248 NA
HETATM   14  C13 UNL     1      22.252   1.714  49.668  1.00  0.00     0.128 C 
HETATM   15  C14 UNL     1      22.081   1.390  50.935  1.00  0.00    -0.009 C 
HETATM   16  C15 UNL     1      20.731   1.863  51.271  1.00  0.00     0.047 C 
HETATM   17  C16 UNL     1      19.795   0.668  51.485  1.00  0.00     0.048 C 
HETATM   18  C17 UNL     1      20.345  -0.139  52.639  1.00  0.00     0.009 A 
HETATM   19  C18 UNL     1      19.690  -0.942  53.501  1.00  0.00     0.153 A 
HETATM   20  N4  UNL     1      20.652  -1.358  54.337  1.00  0.00    -0.166 NA
HETATM   21  N5  UNL     1      21.812  -0.831  53.988  1.00  0.00    -0.271 N 
HETATM   22  C20 UNL     1      23.031  -1.101  54.695  1.00  0.00     0.180 C 
HETATM   23  C21 UNL     1      21.718  -0.025  52.896  1.00  0.00     0.090 A 
HETATM   24  C22 UNL     1      22.723   0.734  52.107  1.00  0.00     0.088 C 
HETATM   25  N6  UNL     1      23.863   0.688  52.582  1.00  0.00    -0.281 NA
ENDROOT
BRANCH  19  26
HETATM   26  C19 UNL     1      18.278  -1.256  53.491  1.00  0.00     0.270 C 
HETATM   27  N3  UNL     1      17.822  -2.533  53.907  1.00  0.00    -0.365 N 
HETATM   28  H20 UNL     1      17.495  -2.949  53.001  1.00  0.00     0.159 HD
HETATM   29  H21 UNL     1      17.802  -2.978  54.861  1.00  0.00     0.159 HD
HETATM   30  O2  UNL     1      17.485  -0.342  53.097  1.00  0.00    -0.266 OA
ENDBRANCH  19  26
BRANCH   1  31
HETATM   31  C2  UNL     1      25.534   2.052  53.586  1.00  0.00     0.023 C 
HETATM   32  C1  UNL     1      27.007   2.128  53.814  1.00  0.00     0.007 C 
ENDBRANCH   1  31
TORSDOF 2
ENDMDL
MODEL 3
REMARK VINA RESULT:      -8.5      2.826      7.489
REMARK  2 active torsions:
REMARK  status: ('A' for Active; 'I' for Inactive)
REMARK    1  A    between atoms: C2_2  and  C3_3 
REMARK    2  A    between atoms: C18_21  and  C19_22 
REMARK       I    between atoms: C19_22  and  N3_23 
ROOT
HETATM    1  C3  UNL     1      21.718   4.546  51.504  1.00  0.00     0.113 C 
HETATM    2  C4  UNL     1      22.612   4.373  52.693  1.00  0.00     0.074 C 
HETATM    3  C5  UNL     1      23.495   3.198  52.656  1.00  0.00     0.092 C 
HETATM    4  N1  UNL     1      23.745   2.186  51.902  1.00  0.00    -0.262 NA
HETATM    5  C6  UNL     1      24.713   1.182  52.178  1.00  0.00     0.089 A 
HETATM    6  C7  UNL     1      25.953   0.984  51.613  1.00  0.00     0.034 A 
HETATM    7  C8  UNL     1      26.764  -0.055  52.009  1.00  0.00     0.002 A 
HETATM    8  C9  UNL     1      26.360  -0.935  52.989  1.00  0.00     0.003 A 
HETATM    9  C10 UNL     1      25.122  -0.757  53.571  1.00  0.00     0.040 A 
HETATM   10  C11 UNL     1      24.297   0.290  53.175  1.00  0.00     0.105 A 
HETATM   11  O1  UNL     1      23.106   0.330  53.846  1.00  0.00    -0.302 OA
HETATM   12  C12 UNL     1      22.326  -0.742  54.220  1.00  0.00     0.258 C 
HETATM   13  N2  UNL     1      21.154  -0.175  54.082  1.00  0.00    -0.248 NA
HETATM   14  C13 UNL     1      21.023   1.165  53.655  1.00  0.00     0.128 C 
HETATM   15  C14 UNL     1      20.595   1.428  52.436  1.00  0.00    -0.009 C 
HETATM   16  C15 UNL     1      20.353   0.115  51.823  1.00  0.00     0.047 C 
HETATM   17  C16 UNL     1      18.848  -0.105  51.633  1.00  0.00     0.048 C 
HETATM   18  C17 UNL     1      18.344   0.979  50.708  1.00  0.00     0.009 A 
HETATM   19  C18 UNL     1      17.285   0.958  49.874  1.00  0.00     0.153 A 
HETATM   20  N4  UNL     1      17.335   2.154  49.271  1.00  0.00    -0.166 NA
HETATM   21  N5  UNL     1      18.366   2.845  49.723  1.00  0.00    -0.271 N 
HETATM   22  C20 UNL     1      18.673   4.170  49.267  1.00  0.00     0.180 C 
HETATM   23  C21 UNL     1      19.084   2.168  50.661  1.00  0.00     0.090 A 
HETATM   24  C22 UNL     1      20.265   2.528  51.486  1.00  0.00     0.088 C 
HETATM   25  N6  UNL     1      20.743   3.634  51.212  1.00  0.00    -0.281 NA
ENDROOT
BRANCH  19  26
HETATM   26  C19 UNL     1      16.339  -0.123  49.702  1.00  0.00     0.270 C 
HETATM   27  N3  UNL     1      16.308  -0.865  48.493  1.00  0.00    -0.365 N 
HETATM   28  H20 UNL     1      15.396  -0.557  48.076  1.00  0.00     0.159 HD
HETATM   29  H21 UNL     1      16.998  -1.551  48.090  1.00  0.00     0.159 HD
HETATM   30  O2  UNL     1      15.555  -0.366  50.673  1.00  0.00    -0.266 OA
ENDBRANCH  19  26
BRANCH   1  31
HETATM   31  C2  UNL     1      22.687   4.667  50.308  1.00  0.00     0.023 C 
HETATM   32  C1  UNL     1      23.310   6.019  50.211  1.00  0.00     0.007 C 
ENDBRANCH   1  31
TORSDOF 2
ENDMDL
MODEL 4
REMARK VINA RESULT:      -8.3      2.643      4.407
REMARK  2 active torsions:
REMARK  status: ('A' for Active; 'I' for Inactive)
REMARK    1  A    between atoms: C2_2  and  C3_3 
REMARK    2  A    between atoms: C18_21  and  C19_22 
REMARK       I    between atoms: C19_22  and  N3_23 
ROOT
HETATM    1  C3  UNL     1      22.464   0.389  53.806  1.00  0.00     0.113 C 
HETATM    2  C4  UNL     1      21.075   0.796  54.191  1.00  0.00     0.074 C 
HETATM    3  C5  UNL     1      20.110   0.878  53.084  1.00  0.00     0.092 C 
HETATM    4  N1  UNL     1      20.073   0.736  51.805  1.00  0.00    -0.262 NA
HETATM    5  C6  UNL     1      18.914   0.899  51.000  1.00  0.00     0.089 A 
HETATM    6  C7  UNL     1      18.128  -0.057  50.396  1.00  0.00     0.034 A 
HETATM    7  C8  UNL     1      17.030   0.290  49.641  1.00  0.00     0.002 A 
HETATM    8  C9  UNL     1      16.680   1.611  49.465  1.00  0.00     0.003 A 
HETATM    9  C10 UNL     1      17.452   2.587  50.060  1.00  0.00     0.040 A 
HETATM   10  C11 UNL     1      18.563   2.244  50.823  1.00  0.00     0.105 A 
HETATM   11  O1  UNL     1      19.221   3.323  51.345  1.00  0.00    -0.302 OA
HETATM   12  C12 UNL     1      19.454   4.532  50.728  1.00  0.00     0.258 C 
HETATM   13  N2  UNL     1      20.621   4.792  51.262  1.00  0.00    -0.248 NA
HETATM   14  C13 UNL     1      21.231   3.905  52.178  1.00  0.00     0.128 C 
HETATM   15  C14 UNL     1      22.266   3.180  51.802  1.00  0.00    -0.009 C 
HETATM   16  C15 UNL     1      22.503   3.550  50.400  1.00  0.00     0.047 C 
HETATM   17  C16 UNL     1      23.808   4.345  50.282  1.00  0.00     0.048 C 
HETATM   18  C17 UNL     1      24.930   3.452  50.761  1.00  0.00     0.009 A 
HETATM   19  C18 UNL     1      26.233   3.470  50.420  1.00  0.00     0.153 A 
HETATM   20  N4  UNL     1      26.753   2.439  51.101  1.00  0.00    -0.166 NA
HETATM   21  N5  UNL     1      25.808   1.844  51.807  1.00  0.00    -0.271 N 
HETATM   22  C20 UNL     1      26.064   0.708  52.646  1.00  0.00     0.180 C 
HETATM   23  C21 UNL     1      24.588   2.427  51.654  1.00  0.00     0.090 A 
HETATM   24  C22 UNL     1      23.257   2.168  52.261  1.00  0.00     0.088 C 
HETATM   25  N6  UNL     1      23.233   1.172  52.994  1.00  0.00    -0.281 NA
ENDROOT
BRANCH  19  26
HETATM   26  C19 UNL     1      26.882   4.404  49.524  1.00  0.00     0.270 C 
HETATM   27  N3  UNL     1      26.663   5.799  49.658  1.00  0.00    -0.365 N 
HETATM   28  H20 UNL     1      26.099   6.011  48.798  1.00  0.00     0.159 HD
HETATM   29  H21 UNL     1      26.969   6.474  50.406  1.00  0.00     0.159 HD
HETATM   30  O2  UNL     1      27.643   3.914  48.631  1.00  0.00    -0.266 OA
ENDBRANCH  19  26
BRANCH   1  31
HETATM   31  C2  UNL     1      22.293  -1.007  53.168  1.00  0.00     0.023 C 
HETATM   32  C1  UNL     1      21.817  -2.029  54.144  1.00  0.00     0.007 C 
ENDBRANCH   1  31
TORSDOF 2
ENDMDL
MODEL 5
REMARK VINA RESULT:      -8.0      8.413     11.806
REMARK  2 active torsions:
REMARK  status: ('A' for Active; 'I' for Inactive)
REMARK    1  A    between atoms: C2_2  and  C3_3 
REMARK    2  A    between atoms: C18_21  and  C19_22 
REMARK       I    between atoms: C19_22  and  N3_23 
ROOT
HETATM    1  C3  UNL     1      31.527   9.991  47.560  1.00  0.00     0.113 C 
HETATM    2  C4  UNL     1      32.927   9.470  47.674  1.00  0.00     0.074 C 
HETATM    3  C5  UNL     1      33.274   8.381  46.750  1.00  0.00     0.092 C 
HETATM    4  N1  UNL     1      32.724   7.660  45.836  1.00  0.00    -0.262 NA
HETATM    5  C6  UNL     1      33.379   6.637  45.099  1.00  0.00     0.089 A 
HETATM    6  C7  UNL     1      33.826   6.647  43.797  1.00  0.00     0.034 A 
HETATM    7  C8  UNL     1      34.445   5.550  43.243  1.00  0.00     0.002 A 
HETATM    8  C9  UNL     1      34.640   4.400  43.977  1.00  0.00     0.003 A 
HETATM    9  C10 UNL     1      34.202   4.365  45.284  1.00  0.00     0.040 A 
HETATM   10  C11 UNL     1      33.575   5.470  45.850  1.00  0.00     0.105 A 
HETATM   11  O1  UNL     1      33.201   5.278  47.151  1.00  0.00    -0.302 OA
HETATM   12  C12 UNL     1      32.679   4.130  47.705  1.00  0.00     0.258 C 
HETATM   13  N2  UNL     1      31.881   4.691  48.579  1.00  0.00    -0.248 NA
HETATM   14  C13 UNL     1      31.783   6.096  48.699  1.00  0.00     0.128 C 
HETATM   15  C14 UNL     1      30.710   6.721  48.254  1.00  0.00    -0.009 C 
HETATM   16  C15 UNL     1      29.846   5.661  47.714  1.00  0.00     0.047 C 
HETATM   17  C16 UNL     1      28.612   5.487  48.606  1.00  0.00     0.048 C 
HETATM   18  C17 UNL     1      27.860   6.798  48.602  1.00  0.00     0.009 A 
HETATM   19  C18 UNL     1      26.545   7.021  48.796  1.00  0.00     0.153 A 
HETATM   20  N4  UNL     1      26.423   8.347  48.637  1.00  0.00    -0.166 NA
HETATM   21  N5  UNL     1      27.602   8.878  48.365  1.00  0.00    -0.271 N 
HETATM   22  C20 UNL     1      27.789  10.285  48.151  1.00  0.00     0.180 C 
HETATM   23  C21 UNL     1      28.600   7.954  48.321  1.00  0.00     0.090 A 
HETATM   24  C22 UNL     1      30.067   8.056  48.113  1.00  0.00     0.088 C 
HETATM   25  N6  UNL     1      30.451   9.201  47.848  1.00  0.00    -0.281 NA
ENDROOT
BRANCH  19  26
HETATM   26  C19 UNL     1      25.533   6.033  49.103  1.00  0.00     0.270 C 
HETATM   27  N3  UNL     1      25.604   5.280  50.302  1.00  0.00    -0.365 N 
HETATM   28  H20 UNL     1      25.835   4.322  49.941  1.00  0.00     0.159 HD
HETATM   29  H21 UNL     1      25.468   5.570  51.305  1.00  0.00     0.159 HD
HETATM   30  O2  UNL     1      24.597   5.881  48.255  1.00  0.00    -0.266 OA
ENDBRANCH  19  26
BRANCH   1  31
HETATM   31  C2  UNL     1      31.423  10.498  46.105  1.00  0.00     0.023 C 
HETATM   32  C1  UNL     1      32.109  11.807  45.904  1.00  0.00     0.007 C 
ENDBRANCH   1  31
TORSDOF 2
ENDMDL
MODEL 6
REMARK VINA RESULT:      -8.0      2.968      5.821
REMARK  2 active torsions:
REMARK  status: ('A' for Active; 'I' for Inactive)
REMARK    1  A    between atoms: C2_2  and  C3_3 
REMARK    2  A    between atoms: C18_21  and  C19_22 
REMARK       I    between atoms: C19_22  and  N3_23 
ROOT
HETATM    1  C3  UNL     1      23.680   1.366  51.915  1.00  0.00     0.113 C 
HETATM    2  C4  UNL     1      24.086   2.092  50.669  1.00  0.00     0.074 C 
HETATM    3  C5  UNL     1      23.407   3.374  50.434  1.00  0.00     0.092 C 
HETATM    4  N1  UNL     1      22.497   4.112  50.967  1.00  0.00    -0.262 NA
HETATM    5  C6  UNL     1      22.055   5.361  50.453  1.00  0.00     0.089 A 
HETATM    6  C7  UNL     1      22.320   6.635  50.903  1.00  0.00     0.034 A 
HETATM    7  C8  UNL     1      21.798   7.742  50.273  1.00  0.00     0.002 A 
HETATM    8  C9  UNL     1      20.988   7.610  49.166  1.00  0.00     0.003 A 
HETATM    9  C10 UNL     1      20.707   6.344  48.695  1.00  0.00     0.040 A 
HETATM   10  C11 UNL     1      21.231   5.222  49.327  1.00  0.00     0.105 A 
HETATM   11  O1  UNL     1      20.861   4.043  48.741  1.00  0.00    -0.302 OA
HETATM   12  C12 UNL     1      19.630   3.729  48.212  1.00  0.00     0.258 C 
HETATM   13  N2  UNL     1      19.615   2.455  48.517  1.00  0.00    -0.248 NA
HETATM   14  C13 UNL     1      20.692   1.844  49.199  1.00  0.00     0.128 C 
HETATM   15  C14 UNL     1      20.561   1.507  50.467  1.00  0.00    -0.009 C 
HETATM   16  C15 UNL     1      19.194   1.904  50.830  1.00  0.00     0.047 C 
HETATM   17  C16 UNL     1      18.329   0.659  51.055  1.00  0.00     0.048 C 
HETATM   18  C17 UNL     1      18.943  -0.121  52.194  1.00  0.00     0.009 A 
HETATM   19  C18 UNL     1      18.348  -0.961  53.064  1.00  0.00     0.153 A 
HETATM   20  N4  UNL     1      19.346  -1.328  53.882  1.00  0.00    -0.166 NA
HETATM   21  N5  UNL     1      20.469  -0.737  53.515  1.00  0.00    -0.271 N 
HETATM   22  C20 UNL     1      21.714  -0.942  54.198  1.00  0.00     0.180 C 
HETATM   23  C21 UNL     1      20.312   0.067  52.428  1.00  0.00     0.090 A 
HETATM   24  C22 UNL     1      21.259   0.882  51.625  1.00  0.00     0.088 C 
HETATM   25  N6  UNL     1      22.409   0.896  52.079  1.00  0.00    -0.281 NA
ENDROOT
BRANCH  19  26
HETATM   26  C19 UNL     1      16.954  -1.351  53.078  1.00  0.00     0.270 C 
HETATM   27  N3  UNL     1      16.592  -2.722  53.105  1.00  0.00    -0.365 N 
HETATM   28  H20 UNL     1      16.188  -2.856  52.145  1.00  0.00     0.159 HD
HETATM   29  H21 UNL     1      16.688  -3.444  53.865  1.00  0.00     0.159 HD
HETATM   30  O2  UNL     1      16.092  -0.416  53.066  1.00  0.00    -0.266 OA
ENDBRANCH  19  26
BRANCH   1  31
HETATM   31  C2  UNL     1      24.021   2.346  53.058  1.00  0.00     0.023 C 
HETATM   32  C1  UNL     1      25.469   2.326  53.418  1.00  0.00     0.007 C 
ENDBRANCH   1  31
TORSDOF 2
ENDMDL
MODEL 7
REMARK VINA RESULT:      -7.6      3.090      8.590
REMARK  2 active torsions:
REMARK  status: ('A' for Active; 'I' for Inactive)
REMARK    1  A    between atoms: C2_2  and  C3_3 
REMARK    2  A    between atoms: C18_21  and  C19_22 
REMARK       I    between atoms: C19_22  and  N3_23 
ROOT
HETATM    1  C3  UNL     1      24.541   7.035  48.968  1.00  0.00     0.113 C 
HETATM    2  C4  UNL     1      24.462   6.700  50.425  1.00  0.00     0.074 C 
HETATM    3  C5  UNL     1      24.795   5.311  50.774  1.00  0.00     0.092 C 
HETATM    4  N1  UNL     1      25.123   4.208  50.196  1.00  0.00    -0.262 NA
HETATM    5  C6  UNL     1      25.387   2.983  50.867  1.00  0.00     0.089 A 
HETATM    6  C7  UNL     1      26.591   2.363  51.112  1.00  0.00     0.034 A 
HETATM    7  C8  UNL     1      26.656   1.163  51.784  1.00  0.00     0.002 A 
HETATM    8  C9  UNL     1      25.512   0.540  52.234  1.00  0.00     0.003 A 
HETATM    9  C10 UNL     1      24.293   1.142  52.000  1.00  0.00     0.040 A 
HETATM   10  C11 UNL     1      24.220   2.354  51.322  1.00  0.00     0.105 A 
HETATM   11  O1  UNL     1      22.943   2.819  51.171  1.00  0.00    -0.302 OA
HETATM   12  C12 UNL     1      21.817   2.078  50.893  1.00  0.00     0.258 C 
HETATM   13  N2  UNL     1      21.186   2.965  50.164  1.00  0.00    -0.248 NA
HETATM   14  C13 UNL     1      21.741   4.237  49.900  1.00  0.00     0.128 C 
HETATM   15  C14 UNL     1      22.216   4.512  48.700  1.00  0.00    -0.009 C 
HETATM   16  C15 UNL     1      22.001   3.289  47.914  1.00  0.00     0.047 C 
HETATM   17  C16 UNL     1      20.917   3.529  46.858  1.00  0.00     0.048 C 
HETATM   18  C17 UNL     1      21.406   4.631  45.946  1.00  0.00     0.009 A 
HETATM   19  C18 UNL     1      21.095   4.865  44.656  1.00  0.00     0.153 A 
HETATM   20  N4  UNL     1      21.846   5.929  44.338  1.00  0.00    -0.166 NA
HETATM   21  N5  UNL     1      22.561   6.304  45.384  1.00  0.00    -0.271 N 
HETATM   22  C20 UNL     1      23.458   7.424  45.350  1.00  0.00     0.180 C 
HETATM   23  C21 UNL     1      22.346   5.524  46.478  1.00  0.00     0.090 A 
HETATM   24  C22 UNL     1      22.856   5.571  47.872  1.00  0.00     0.088 C 
HETATM   25  N6  UNL     1      23.708   6.448  48.059  1.00  0.00    -0.281 NA
ENDROOT
BRANCH  19  26
HETATM   26  C19 UNL     1      20.162   4.118  43.840  1.00  0.00     0.270 C 
HETATM   27  N3  UNL     1      18.764   4.259  44.034  1.00  0.00    -0.365 N 
HETATM   28  H20 UNL     1      18.509   3.327  44.441  1.00  0.00     0.159 HD
HETATM   29  H21 UNL     1      18.122   5.069  43.835  1.00  0.00     0.159 HD
HETATM   30  O2  UNL     1      20.656   3.345  42.958  1.00  0.00    -0.266 OA
ENDBRANCH  19  26
BRANCH   1  31
HETATM   31  C2  UNL     1      26.009   6.746  48.585  1.00  0.00     0.023 C 
HETATM   32  C1  UNL     1      26.558   7.744  47.622  1.00  0.00     0.007 C 
ENDBRANCH   1  31
TORSDOF 2
ENDMDL
MODEL 8
REMARK VINA RESULT:      -7.5      2.284      3.271
REMARK  2 active torsions:
REMARK  status: ('A' for Active; 'I' for Inactive)
REMARK    1  A    between atoms: C2_2  and  C3_3 
REMARK    2  A    between atoms: C18_21  and  C19_22 
REMARK       I    between atoms: C19_22  and  N3_23 
ROOT
HETATM    1  C3  UNL     1      17.587   2.131  51.017  1.00  0.00     0.113 C 
HETATM    2  C4  UNL     1      17.621   3.547  50.531  1.00  0.00     0.074 C 
HETATM    3  C5  UNL     1      18.635   3.841  49.509  1.00  0.00     0.092 C 
HETATM    4  N1  UNL     1      19.587   3.250  48.874  1.00  0.00    -0.262 NA
HETATM    5  C6  UNL     1      20.420   3.860  47.899  1.00  0.00     0.089 A 
HETATM    6  C7  UNL     1      20.408   3.724  46.529  1.00  0.00     0.034 A 
HETATM    7  C8  UNL     1      21.303   4.400  45.733  1.00  0.00     0.002 A 
HETATM    8  C9  UNL     1      22.246   5.241  46.283  1.00  0.00     0.003 A 
HETATM    9  C10 UNL     1      22.279   5.395  47.653  1.00  0.00     0.040 A 
HETATM   10  C11 UNL     1      21.377   4.714  48.464  1.00  0.00     0.105 A 
HETATM   11  O1  UNL     1      21.539   4.973  49.797  1.00  0.00    -0.302 OA
HETATM   12  C12 UNL     1      22.727   5.129  50.475  1.00  0.00     0.258 C 
HETATM   13  N2  UNL     1      22.359   4.605  51.617  1.00  0.00    -0.248 NA
HETATM   14  C13 UNL     1      21.054   4.099  51.815  1.00  0.00     0.128 C 
HETATM   15  C14 UNL     1      20.854   2.797  51.870  1.00  0.00    -0.009 C 
HETATM   16  C15 UNL     1      22.184   2.198  51.694  1.00  0.00     0.047 C 
HETATM   17  C16 UNL     1      22.646   1.553  53.005  1.00  0.00     0.048 C 
HETATM   18  C17 UNL     1      21.651   0.470  53.354  1.00  0.00     0.009 A 
HETATM   19  C18 UNL     1      21.838  -0.653  54.075  1.00  0.00     0.153 A 
HETATM   20  N4  UNL     1      20.645  -1.262  54.026  1.00  0.00    -0.166 NA
HETATM   21  N5  UNL     1      19.799  -0.539  53.315  1.00  0.00    -0.271 N 
HETATM   22  C20 UNL     1      18.437  -0.933  53.092  1.00  0.00     0.180 C 
HETATM   23  C21 UNL     1      20.357   0.606  52.836  1.00  0.00     0.090 A 
HETATM   24  C22 UNL     1      19.816   1.745  52.050  1.00  0.00     0.088 C 
HETATM   25  N6  UNL     1      18.643   1.587  51.691  1.00  0.00    -0.281 NA
ENDROOT
BRANCH  19  26
HETATM   26  C19 UNL     1      23.058  -1.067  54.734  1.00  0.00     0.270 C 
HETATM   27  N3  UNL     1      24.321  -0.799  54.144  1.00  0.00    -0.365 N 
HETATM   28  H20 UNL     1      24.636  -1.761  53.868  1.00  0.00     0.159 HD
HETATM   29  H21 UNL     1      24.834   0.109  54.004  1.00  0.00     0.159 HD
HETATM   30  O2  UNL     1      22.938  -1.672  55.846  1.00  0.00    -0.266 OA
ENDBRANCH  19  26
BRANCH   1  31
HETATM   31  C2  UNL     1      17.298   1.296  49.750  1.00  0.00     0.023 C 
HETATM   32  C1  UNL     1      15.838   1.113  49.506  1.00  0.00     0.007 C 
ENDBRANCH   1  31
TORSDOF 2
ENDMDL
MODEL 9
REMARK VINA RESULT:      -7.4      2.896      5.848
REMARK  2 active torsions:
REMARK  status: ('A' for Active; 'I' for Inactive)
REMARK    1  A    between atoms: C2_2  and  C3_3 
REMARK    2  A    between atoms: C18_21  and  C19_22 
REMARK       I    between atoms: C19_22  and  N3_23 
ROOT
HETATM    1  C3  UNL     1      25.161   1.812  51.359  1.00  0.00     0.113 C 
HETATM    2  C4  UNL     1      25.944   2.527  50.302  1.00  0.00     0.074 C 
HETATM    3  C5  UNL     1      25.582   3.936  50.090  1.00  0.00     0.092 C 
HETATM    4  N1  UNL     1      24.736   4.806  50.522  1.00  0.00    -0.262 NA
HETATM    5  C6  UNL     1      24.653   6.153  50.080  1.00  0.00     0.089 A 
HETATM    6  C7  UNL     1      25.055   7.308  50.712  1.00  0.00     0.034 A 
HETATM    7  C8  UNL     1      24.892   8.542  50.125  1.00  0.00     0.002 A 
HETATM    8  C9  UNL     1      24.318   8.663  48.878  1.00  0.00     0.003 A 
HETATM    9  C10 UNL     1      23.907   7.520  48.223  1.00  0.00     0.040 A 
HETATM   10  C11 UNL     1      24.068   6.270  48.811  1.00  0.00     0.105 A 
HETATM   11  O1  UNL     1      23.612   5.240  48.037  1.00  0.00    -0.302 OA
HETATM   12  C12 UNL     1      22.479   5.227  47.254  1.00  0.00     0.258 C 
HETATM   13  N2  UNL     1      22.163   3.965  47.405  1.00  0.00    -0.248 NA
HETATM   14  C13 UNL     1      22.941   3.096  48.203  1.00  0.00     0.128 C 
HETATM   15  C14 UNL     1      22.490   2.701  49.378  1.00  0.00    -0.009 C 
HETATM   16  C15 UNL     1      21.178   3.346  49.520  1.00  0.00     0.047 C 
HETATM   17  C16 UNL     1      20.066   2.294  49.437  1.00  0.00     0.048 C 
HETATM   18  C17 UNL     1      20.274   1.322  50.576  1.00  0.00     0.009 A 
HETATM   19  C18 UNL     1      19.365   0.562  51.219  1.00  0.00     0.153 A 
HETATM   20  N4  UNL     1      20.085  -0.062  52.162  1.00  0.00    -0.166 NA
HETATM   21  N5  UNL     1      21.351   0.308  52.081  1.00  0.00    -0.271 N 
HETATM   22  C20 UNL     1      22.367  -0.200  52.958  1.00  0.00     0.180 C 
HETATM   23  C21 UNL     1      21.575   1.205  51.082  1.00  0.00     0.090 A 
HETATM   24  C22 UNL     1      22.804   1.862  50.568  1.00  0.00     0.088 C 
HETATM   25  N6  UNL     1      23.817   1.605  51.228  1.00  0.00    -0.281 NA
ENDROOT
BRANCH  19  26
HETATM   26  C19 UNL     1      17.951   0.469  50.927  1.00  0.00     0.270 C 
HETATM   27  N3  UNL     1      17.502  -0.154  49.734  1.00  0.00    -0.365 N 
HETATM   28  H20 UNL     1      17.135   0.665  49.190  1.00  0.00     0.159 HD
HETATM   29  H21 UNL     1      17.518  -1.164  49.438  1.00  0.00     0.159 HD
HETATM   30  O2  UNL     1      17.150   0.965  51.782  1.00  0.00    -0.266 OA
ENDBRANCH  19  26
BRANCH   1  31
HETATM   31  C2  UNL     1      25.436   2.614  52.650  1.00  0.00     0.023 C 
HETATM   32  C1  UNL     1      24.184   3.007  53.359  1.00  0.00     0.007 C 
ENDBRANCH   1  31
TORSDOF 2
ENDMDL
