MODEL 1
REMARK VINA RESULT:      -9.8      0.000      0.000
REMARK  2 active torsions:
REMARK  status: ('A' for Active; 'I' for Inactive)
REMARK    1  A    between atoms: C4_6  and  N3_7 
REMARK    2  A    between atoms: N3_7  and  C5_8 
ROOT
HETATM    1  N1  UNL     1      19.163   1.055  51.325  1.00  0.00    -0.096 N 
HETATM    2  C1  UNL     1      19.915   1.987  51.417  1.00  0.00     0.022 C 
HETATM    3  C2  UNL     1      20.817   3.097  51.503  1.00  0.00     0.059 A 
HETATM    4  C3  UNL     1      20.391   4.380  51.109  1.00  0.00     0.141 A 
HETATM    5  N2  UNL     1      21.271   5.413  51.226  1.00  0.00    -0.241 NA
HETATM    6  C4  UNL     1      22.510   5.196  51.706  1.00  0.00     0.139 A 
HETATM    7  C11 UNL     1      22.871   3.929  52.072  1.00  0.00     0.024 A 
HETATM    8  C12 UNL     1      24.127   3.725  52.578  1.00  0.00     0.046 A 
HETATM    9  C13 UNL     1      24.413   2.443  52.943  1.00  0.00     0.042 A 
HETATM   10  C14 UNL     1      23.729   1.274  52.927  1.00  0.00    -0.030 A 
HETATM   11  C15 UNL     1      22.515   1.589  52.410  1.00  0.00     0.023 A 
HETATM   12  C16 UNL     1      22.070   2.824  51.996  1.00  0.00    -0.000 A 
HETATM   13  C17 UNL     1      23.800  -0.156  53.296  1.00  0.00     0.048 C 
HETATM   14  C18 UNL     1      24.961  -0.446  54.166  1.00  0.00     0.088 C 
HETATM   15  C19 UNL     1      25.338  -0.684  55.393  1.00  0.00     0.105 C 
HETATM   16  O1  UNL     1      26.632  -0.760  54.892  1.00  0.00    -0.381 OA
HETATM   17  C20 UNL     1      27.445   0.344  54.687  1.00  0.00     0.270 C 
HETATM   18  C21 UNL     1      26.726   1.428  54.030  1.00  0.00     0.245 C 
HETATM   19  O2  UNL     1      27.601   2.340  53.917  1.00  0.00    -0.271 OA
HETATM   20  N4  UNL     1      25.568   1.927  53.489  1.00  0.00    -0.325 N 
HETATM   21  H15 UNL     1      26.092   2.756  53.142  1.00  0.00     0.169 HD
ENDROOT
BRANCH   6  22
HETATM   22  N3  UNL     1      23.394   6.311  51.842  1.00  0.00    -0.340 N 
HETATM   23  H2  UNL     1      23.542   6.749  52.793  1.00  0.00     0.167 HD
BRANCH  22  24
HETATM   24  C5  UNL     1      24.148   6.973  50.831  1.00  0.00     0.035 A 
HETATM   25  C6  UNL     1      23.904   8.254  50.314  1.00  0.00     0.029 A 
HETATM   26  C7  UNL     1      24.709   8.733  49.298  1.00  0.00     0.004 A 
HETATM   27  C8  UNL     1      25.737   7.958  48.803  1.00  0.00     0.019 A 
HETATM   28  C9  UNL     1      26.025   6.697  49.270  1.00  0.00     0.013 A 
HETATM   29 BR1  UNL     1      27.438   5.628  48.575  1.00  0.00    -0.051 Br
HETATM   30  C10 UNL     1      25.193   6.271  50.283  1.00  0.00     0.048 A 
ENDBRANCH  22  24
ENDBRANCH   6  22
TORSDOF 2
ENDMDL
MODEL 2
REMARK VINA RESULT:      -9.5      3.607      6.196
REMARK  2 active torsions:
REMARK  status: ('A' for Active; 'I' for Inactive)
REMARK    1  A    between atoms: C4_6  and  N3_7 
REMARK    2  A    between atoms: N3_7  and  C5_8 
ROOT
HETATM    1  N1  UNL     1      22.236   3.627  47.259  1.00  0.00    -0.096 N 
HETATM    2  C1  UNL     1      22.832   3.425  48.281  1.00  0.00     0.022 C 
HETATM    3  C2  UNL     1      23.559   3.168  49.489  1.00  0.00     0.059 A 
HETATM    4  C3  UNL     1      24.798   3.798  49.710  1.00  0.00     0.141 A 
HETATM    5  N2  UNL     1      25.448   3.545  50.881  1.00  0.00    -0.241 NA
HETATM    6  C4  UNL     1      24.907   2.712  51.789  1.00  0.00     0.139 A 
HETATM    7  C11 UNL     1      23.701   2.126  51.521  1.00  0.00     0.024 A 
HETATM    8  C12 UNL     1      23.150   1.297  52.462  1.00  0.00     0.046 A 
HETATM    9  C13 UNL     1      21.937   0.765  52.140  1.00  0.00     0.042 A 
HETATM   10  C14 UNL     1      21.109   0.860  51.072  1.00  0.00    -0.030 A 
HETATM   11  C15 UNL     1      21.748   1.692  50.211  1.00  0.00     0.023 A 
HETATM   12  C16 UNL     1      22.966   2.310  50.383  1.00  0.00    -0.000 A 
HETATM   13  C17 UNL     1      19.794   0.445  50.540  1.00  0.00     0.048 C 
HETATM   14  C18 UNL     1      18.942  -0.166  51.584  1.00  0.00     0.088 C 
HETATM   15  C19 UNL     1      17.931   0.036  52.384  1.00  0.00     0.105 C 
HETATM   16  O1  UNL     1      18.144  -1.259  52.843  1.00  0.00    -0.381 OA
HETATM   17  C20 UNL     1      19.063  -1.587  53.827  1.00  0.00     0.270 C 
HETATM   18  C21 UNL     1      20.343  -0.927  53.610  1.00  0.00     0.245 C 
HETATM   19  O2  UNL     1      21.056  -1.332  54.579  1.00  0.00    -0.271 OA
HETATM   20  N4  UNL     1      21.132  -0.081  52.871  1.00  0.00    -0.325 N 
HETATM   21  H15 UNL     1      21.956  -0.353  53.447  1.00  0.00     0.169 HD
ENDROOT
BRANCH   6  22
HETATM   22  N3  UNL     1      25.604   2.495  53.018  1.00  0.00    -0.340 N 
HETATM   23  H2  UNL     1      25.229   2.913  53.914  1.00  0.00     0.167 HD
BRANCH  22  24
HETATM   24  C5  UNL     1      26.807   1.766  53.237  1.00  0.00     0.035 A 
HETATM   25  C6  UNL     1      28.045   2.298  53.627  1.00  0.00     0.029 A 
HETATM   26  C7  UNL     1      29.131   1.452  53.753  1.00  0.00     0.004 A 
HETATM   27  C8  UNL     1      28.994   0.104  53.498  1.00  0.00     0.019 A 
HETATM   28  C9  UNL     1      27.807  -0.476  53.113  1.00  0.00     0.013 A 
HETATM   29 BR1  UNL     1      27.626  -2.335  52.751  1.00  0.00    -0.051 Br
HETATM   30  C10 UNL     1      26.759   0.413  53.006  1.00  0.00     0.048 A 
ENDBRANCH  22  24
ENDBRANCH   6  22
TORSDOF 2
ENDMDL
MODEL 3
REMARK VINA RESULT:      -9.4      3.996      7.635
REMARK  2 active torsions:
REMARK  status: ('A' for Active; 'I' for Inactive)
REMARK    1  A    between atoms: C4_6  and  N3_7 
REMARK    2  A    between atoms: N3_7  and  C5_8 
ROOT
HETATM    1  N1  UNL     1      27.680  -0.683  52.892  1.00  0.00    -0.096 N 
HETATM    2  C1  UNL     1      26.524  -0.371  52.980  1.00  0.00     0.022 C 
HETATM    3  C2  UNL     1      25.138  -0.017  53.072  1.00  0.00     0.059 A 
HETATM    4  C3  UNL     1      24.291  -0.721  53.949  1.00  0.00     0.141 A 
HETATM    5  N2  UNL     1      22.984  -0.340  54.023  1.00  0.00    -0.241 NA
HETATM    6  C4  UNL     1      22.533   0.681  53.271  1.00  0.00     0.139 A 
HETATM    7  C11 UNL     1      23.400   1.329  52.436  1.00  0.00     0.024 A 
HETATM    8  C12 UNL     1      22.934   2.380  51.692  1.00  0.00     0.046 A 
HETATM    9  C13 UNL     1      23.856   2.993  50.897  1.00  0.00     0.042 A 
HETATM   10  C14 UNL     1      25.176   2.809  50.654  1.00  0.00    -0.030 A 
HETATM   11  C15 UNL     1      25.528   1.754  51.431  1.00  0.00     0.023 A 
HETATM   12  C16 UNL     1      24.726   1.030  52.284  1.00  0.00    -0.000 A 
HETATM   13  C17 UNL     1      26.341   3.345  49.919  1.00  0.00     0.048 C 
HETATM   14  C18 UNL     1      26.067   4.683  49.348  1.00  0.00     0.088 C 
HETATM   15  C19 UNL     1      26.274   5.963  49.492  1.00  0.00     0.105 C 
HETATM   16  O1  UNL     1      25.491   6.132  48.357  1.00  0.00    -0.381 OA
HETATM   17  C20 UNL     1      24.105   6.190  48.377  1.00  0.00     0.270 C 
HETATM   18  C21 UNL     1      23.535   5.145  49.216  1.00  0.00     0.245 C 
HETATM   19  O2  UNL     1      22.284   5.336  49.121  1.00  0.00    -0.271 OA
HETATM   20  N4  UNL     1      23.704   4.072  50.054  1.00  0.00    -0.325 N 
HETATM   21  H15 UNL     1      22.676   3.906  50.042  1.00  0.00     0.169 HD
ENDROOT
BRANCH   6  22
HETATM   22  N3  UNL     1      21.164   1.070  53.400  1.00  0.00    -0.340 N 
HETATM   23  H2  UNL     1      20.899   1.839  54.076  1.00  0.00     0.167 HD
BRANCH  22  24
HETATM   24  C5  UNL     1      20.026   0.545  52.724  1.00  0.00     0.035 A 
HETATM   25  C6  UNL     1      19.411   1.085  51.584  1.00  0.00     0.029 A 
HETATM   26  C7  UNL     1      18.281   0.472  51.076  1.00  0.00     0.004 A 
HETATM   27  C8  UNL     1      17.769  -0.654  51.684  1.00  0.00     0.019 A 
HETATM   28  C9  UNL     1      18.328  -1.230  52.801  1.00  0.00     0.013 A 
HETATM   29 BR1  UNL     1      17.612  -2.779  53.643  1.00  0.00    -0.051 Br
HETATM   30  C10 UNL     1      19.452  -0.580  53.263  1.00  0.00     0.048 A 
ENDBRANCH  22  24
ENDBRANCH   6  22
TORSDOF 2
ENDMDL
MODEL 4
REMARK VINA RESULT:      -9.4      3.149      5.411
REMARK  2 active torsions:
REMARK  status: ('A' for Active; 'I' for Inactive)
REMARK    1  A    between atoms: C4_6  and  N3_7 
REMARK    2  A    between atoms: N3_7  and  C5_8 
ROOT
HETATM    1  N1  UNL     1      26.063  -0.150  55.396  1.00  0.00    -0.096 N 
HETATM    2  C1  UNL     1      26.068   0.448  54.354  1.00  0.00     0.022 C 
HETATM    3  C2  UNL     1      26.077   1.183  53.124  1.00  0.00     0.059 A 
HETATM    4  C3  UNL     1      27.302   1.573  52.549  1.00  0.00     0.141 A 
HETATM    5  N2  UNL     1      27.270   2.251  51.368  1.00  0.00    -0.241 NA
HETATM    6  C4  UNL     1      26.092   2.534  50.781  1.00  0.00     0.139 A 
HETATM    7  C11 UNL     1      24.933   2.133  51.385  1.00  0.00     0.024 A 
HETATM    8  C12 UNL     1      23.742   2.407  50.768  1.00  0.00     0.046 A 
HETATM    9  C13 UNL     1      22.627   1.960  51.413  1.00  0.00     0.042 A 
HETATM   10  C14 UNL     1      22.402   1.280  52.564  1.00  0.00    -0.030 A 
HETATM   11  C15 UNL     1      23.635   1.066  53.087  1.00  0.00     0.023 A 
HETATM   12  C16 UNL     1      24.850   1.449  52.566  1.00  0.00    -0.000 A 
HETATM   13  C17 UNL     1      21.350   0.668  53.401  1.00  0.00     0.048 C 
HETATM   14  C18 UNL     1      20.055   0.583  52.690  1.00  0.00     0.088 C 
HETATM   15  C19 UNL     1      19.238  -0.216  52.060  1.00  0.00     0.105 C 
HETATM   16  O1  UNL     1      18.428   0.897  51.872  1.00  0.00    -0.381 OA
HETATM   17  C20 UNL     1      18.592   1.805  50.838  1.00  0.00     0.270 C 
HETATM   18  C21 UNL     1      19.989   2.181  50.669  1.00  0.00     0.245 C 
HETATM   19  O2  UNL     1      19.962   3.005  49.704  1.00  0.00    -0.271 OA
HETATM   20  N4  UNL     1      21.304   2.065  51.046  1.00  0.00    -0.325 N 
HETATM   21  H15 UNL     1      21.552   2.848  50.408  1.00  0.00     0.169 HD
ENDROOT
BRANCH   6  22
HETATM   22  N3  UNL     1      26.101   3.220  49.527  1.00  0.00    -0.340 N 
HETATM   23  H2  UNL     1      25.840   2.701  48.644  1.00  0.00     0.167 HD
BRANCH  22  24
HETATM   24  C5  UNL     1      26.437   4.579  49.264  1.00  0.00     0.035 A 
HETATM   25  C6  UNL     1      27.578   5.039  48.590  1.00  0.00     0.029 A 
HETATM   26  C7  UNL     1      27.776   6.400  48.457  1.00  0.00     0.004 A 
HETATM   27  C8  UNL     1      26.863   7.290  48.981  1.00  0.00     0.019 A 
HETATM   28  C9  UNL     1      25.726   6.899  49.650  1.00  0.00     0.013 A 
HETATM   29 BR1  UNL     1      24.473   8.131  50.382  1.00  0.00    -0.051 Br
HETATM   30  C10 UNL     1      25.578   5.533  49.751  1.00  0.00     0.048 A 
ENDBRANCH  22  24
ENDBRANCH   6  22
TORSDOF 2
ENDMDL
MODEL 5
REMARK VINA RESULT:      -9.2      5.243      8.314
REMARK  2 active torsions:
REMARK  status: ('A' for Active; 'I' for Inactive)
REMARK    1  A    between atoms: C4_6  and  N3_7 
REMARK    2  A    between atoms: N3_7  and  C5_8 
ROOT
HETATM    1  N1  UNL     1      20.944   2.339  48.302  1.00  0.00    -0.096 N 
HETATM    2  C1  UNL     1      20.363   1.747  49.170  1.00  0.00     0.022 C 
HETATM    3  C2  UNL     1      19.662   1.063  50.215  1.00  0.00     0.059 A 
HETATM    4  C3  UNL     1      18.273   0.855  50.109  1.00  0.00     0.141 A 
HETATM    5  N2  UNL     1      17.646   0.180  51.113  1.00  0.00    -0.241 NA
HETATM    6  C4  UNL     1      18.349  -0.267  52.171  1.00  0.00     0.139 A 
HETATM    7  C11 UNL     1      19.695  -0.035  52.222  1.00  0.00     0.024 A 
HETATM    8  C12 UNL     1      20.403  -0.513  53.293  1.00  0.00     0.046 A 
HETATM    9  C13 UNL     1      21.743  -0.266  53.270  1.00  0.00     0.042 A 
HETATM   10  C14 UNL     1      22.581   0.363  52.410  1.00  0.00    -0.030 A 
HETATM   11  C15 UNL     1      21.782   0.794  51.402  1.00  0.00     0.023 A 
HETATM   12  C16 UNL     1      20.422   0.628  51.273  1.00  0.00    -0.000 A 
HETATM   13  C17 UNL     1      23.997   0.696  52.153  1.00  0.00     0.048 C 
HETATM   14  C18 UNL     1      24.913  -0.052  53.043  1.00  0.00     0.088 C 
HETATM   15  C19 UNL     1      25.742  -1.057  53.113  1.00  0.00     0.105 C 
HETATM   16  O1  UNL     1      25.913  -0.714  54.449  1.00  0.00    -0.381 OA
HETATM   17  C20 UNL     1      25.069  -1.132  55.466  1.00  0.00     0.270 C 
HETATM   18  C21 UNL     1      23.668  -0.986  55.098  1.00  0.00     0.245 C 
HETATM   19  O2  UNL     1      23.045  -1.400  56.122  1.00  0.00    -0.271 OA
HETATM   20  N4  UNL     1      22.713  -0.624  54.180  1.00  0.00    -0.325 N 
HETATM   21  H15 UNL     1      21.975  -0.759  54.901  1.00  0.00     0.169 HD
ENDROOT
BRANCH   6  22
HETATM   22  N3  UNL     1      17.660  -0.996  53.189  1.00  0.00    -0.340 N 
HETATM   23  H2  UNL     1      17.562  -0.581  54.156  1.00  0.00     0.167 HD
BRANCH  22  24
HETATM   24  C5  UNL     1      17.055  -2.282  53.101  1.00  0.00     0.035 A 
HETATM   25  C6  UNL     1      17.543  -3.473  53.659  1.00  0.00     0.029 A 
HETATM   26  C7  UNL     1      16.853  -4.650  53.441  1.00  0.00     0.004 A 
HETATM   27  C8  UNL     1      15.700  -4.649  52.685  1.00  0.00     0.019 A 
HETATM   28  C9  UNL     1      15.172  -3.515  52.113  1.00  0.00     0.013 A 
HETATM   29 BR1  UNL     1      13.586  -3.520  51.061  1.00  0.00    -0.051 Br
HETATM   30  C10 UNL     1      15.899  -2.371  52.365  1.00  0.00     0.048 A 
ENDBRANCH  22  24
ENDBRANCH   6  22
TORSDOF 2
ENDMDL
MODEL 6
REMARK VINA RESULT:      -9.1      4.499      8.277
REMARK  2 active torsions:
REMARK  status: ('A' for Active; 'I' for Inactive)
REMARK    1  A    between atoms: C4_6  and  N3_7 
REMARK    2  A    between atoms: N3_7  and  C5_8 
ROOT
HETATM    1  N1  UNL     1      24.347   9.238  47.939  1.00  0.00    -0.096 N 
HETATM    2  C1  UNL     1      24.654   8.128  48.277  1.00  0.00     0.022 C 
HETATM    3  C2  UNL     1      25.021   6.810  48.705  1.00  0.00     0.059 A 
HETATM    4  C3  UNL     1      24.046   5.952  49.249  1.00  0.00     0.141 A 
HETATM    5  N2  UNL     1      24.430   4.700  49.624  1.00  0.00    -0.241 NA
HETATM    6  C4  UNL     1      25.710   4.311  49.474  1.00  0.00     0.139 A 
HETATM    7  C11 UNL     1      26.616   5.186  48.941  1.00  0.00     0.024 A 
HETATM    8  C12 UNL     1      27.910   4.772  48.774  1.00  0.00     0.046 A 
HETATM    9  C13 UNL     1      28.754   5.687  48.218  1.00  0.00     0.042 A 
HETATM   10  C14 UNL     1      28.618   6.959  47.773  1.00  0.00    -0.030 A 
HETATM   11  C15 UNL     1      27.314   7.265  47.987  1.00  0.00     0.023 A 
HETATM   12  C16 UNL     1      26.338   6.461  48.533  1.00  0.00    -0.000 A 
HETATM   13  C17 UNL     1      29.330   8.077  47.118  1.00  0.00     0.048 C 
HETATM   14  C18 UNL     1      30.636   7.654  46.565  1.00  0.00     0.088 C 
HETATM   15  C19 UNL     1      31.276   7.341  45.473  1.00  0.00     0.105 C 
HETATM   16  O1  UNL     1      32.383   7.122  46.284  1.00  0.00    -0.381 OA
HETATM   17  C20 UNL     1      32.625   5.934  46.956  1.00  0.00     0.270 C 
HETATM   18  C21 UNL     1      31.425   5.437  47.617  1.00  0.00     0.245 C 
HETATM   19  O2  UNL     1      31.816   4.367  48.178  1.00  0.00    -0.271 OA
HETATM   20  N4  UNL     1      30.092   5.569  47.913  1.00  0.00    -0.325 N 
HETATM   21  H15 UNL     1      30.163   4.769  48.574  1.00  0.00     0.169 HD
ENDROOT
BRANCH   6  22
HETATM   22  N3  UNL     1      26.068   2.979  49.850  1.00  0.00    -0.340 N 
HETATM   23  H2  UNL     1      26.355   2.283  49.107  1.00  0.00     0.167 HD
BRANCH  22  24
HETATM   24  C5  UNL     1      26.090   2.402  51.152  1.00  0.00     0.035 A 
HETATM   25  C6  UNL     1      27.174   2.397  52.043  1.00  0.00     0.029 A 
HETATM   26  C7  UNL     1      27.042   1.751  53.258  1.00  0.00     0.004 A 
HETATM   27  C8  UNL     1      25.860   1.122  53.585  1.00  0.00     0.019 A 
HETATM   28  C9  UNL     1      24.763   1.094  52.755  1.00  0.00     0.013 A 
HETATM   29 BR1  UNL     1      23.137   0.214  53.207  1.00  0.00    -0.051 Br
HETATM   30  C10 UNL     1      24.949   1.754  51.559  1.00  0.00     0.048 A 
ENDBRANCH  22  24
ENDBRANCH   6  22
TORSDOF 2
ENDMDL
MODEL 7
REMARK VINA RESULT:      -9.0      2.335      2.734
REMARK  2 active torsions:
REMARK  status: ('A' for Active; 'I' for Inactive)
REMARK    1  A    between atoms: C4_6  and  N3_7 
REMARK    2  A    between atoms: N3_7  and  C5_8 
ROOT
HETATM    1  N1  UNL     1      21.182   0.815  49.590  1.00  0.00    -0.096 N 
HETATM    2  C1  UNL     1      21.938   1.748  49.619  1.00  0.00     0.022 C 
HETATM    3  C2  UNL     1      22.849   2.854  49.632  1.00  0.00     0.059 A 
HETATM    4  C3  UNL     1      22.553   4.016  48.892  1.00  0.00     0.141 A 
HETATM    5  N2  UNL     1      23.433   5.054  48.947  1.00  0.00    -0.241 NA
HETATM    6  C4  UNL     1      24.551   4.955  49.692  1.00  0.00     0.139 A 
HETATM    7  C11 UNL     1      24.788   3.803  50.389  1.00  0.00     0.024 A 
HETATM    8  C12 UNL     1      25.918   3.723  51.159  1.00  0.00     0.046 A 
HETATM    9  C13 UNL     1      26.081   2.556  51.844  1.00  0.00     0.042 A 
HETATM   10  C14 UNL     1      25.369   1.408  51.953  1.00  0.00    -0.030 A 
HETATM   11  C15 UNL     1      24.287   1.594  51.156  1.00  0.00     0.023 A 
HETATM   12  C16 UNL     1      23.975   2.705  50.404  1.00  0.00    -0.000 A 
HETATM   13  C17 UNL     1      25.315   0.097  52.633  1.00  0.00     0.048 C 
HETATM   14  C18 UNL     1      26.280   0.013  53.752  1.00  0.00     0.088 C 
HETATM   15  C19 UNL     1      26.409   0.055  55.049  1.00  0.00     0.105 C 
HETATM   16  O1  UNL     1      27.770  -0.123  54.836  1.00  0.00    -0.381 OA
HETATM   17  C20 UNL     1      28.648   0.913  54.555  1.00  0.00     0.270 C 
HETATM   18  C21 UNL     1      28.107   1.820  53.551  1.00  0.00     0.245 C 
HETATM   19  O2  UNL     1      29.021   2.689  53.411  1.00  0.00    -0.271 OA
HETATM   20  N4  UNL     1      27.091   2.180  52.702  1.00  0.00    -0.325 N 
HETATM   21  H15 UNL     1      27.703   2.914  52.289  1.00  0.00     0.169 HD
ENDROOT
BRANCH   6  22
HETATM   22  N3  UNL     1      25.434   6.078  49.749  1.00  0.00    -0.340 N 
HETATM   23  H2  UNL     1      25.424   6.710  50.596  1.00  0.00     0.167 HD
BRANCH  22  24
HETATM   24  C5  UNL     1      26.380   6.510  48.776  1.00  0.00     0.035 A 
HETATM   25  C6  UNL     1      27.692   6.038  48.622  1.00  0.00     0.029 A 
HETATM   26  C7  UNL     1      28.499   6.600  47.650  1.00  0.00     0.004 A 
HETATM   27  C8  UNL     1      28.016   7.610  46.846  1.00  0.00     0.019 A 
HETATM   28  C9  UNL     1      26.740   8.113  46.949  1.00  0.00     0.013 A 
HETATM   29 BR1  UNL     1      26.082   9.515  45.843  1.00  0.00    -0.051 Br
HETATM   30  C10 UNL     1      25.980   7.516  47.931  1.00  0.00     0.048 A 
ENDBRANCH  22  24
ENDBRANCH   6  22
TORSDOF 2
ENDMDL
MODEL 8
REMARK VINA RESULT:      -9.0      2.895      3.672
REMARK  2 active torsions:
REMARK  status: ('A' for Active; 'I' for Inactive)
REMARK    1  A    between atoms: C4_6  and  N3_7 
REMARK    2  A    between atoms: N3_7  and  C5_8 
ROOT
HETATM    1  N1  UNL     1      19.609   3.180  46.799  1.00  0.00    -0.096 N 
HETATM    2  C1  UNL     1      20.613   3.621  47.287  1.00  0.00     0.022 C 
HETATM    3  C2  UNL     1      21.825   4.139  47.851  1.00  0.00     0.059 A 
HETATM    4  C3  UNL     1      22.389   5.322  47.336  1.00  0.00     0.141 A 
HETATM    5  N2  UNL     1      23.529   5.794  47.913  1.00  0.00    -0.241 NA
HETATM    6  C4  UNL     1      24.089   5.135  48.945  1.00  0.00     0.139 A 
HETATM    7  C11 UNL     1      23.499   3.990  49.404  1.00  0.00     0.024 A 
HETATM    8  C12 UNL     1      24.065   3.340  50.468  1.00  0.00     0.046 A 
HETATM    9  C13 UNL     1      23.414   2.219  50.887  1.00  0.00     0.042 A 
HETATM   10  C14 UNL     1      22.296   1.563  50.492  1.00  0.00    -0.030 A 
HETATM   11  C15 UNL     1      21.824   2.283  49.443  1.00  0.00     0.023 A 
HETATM   12  C16 UNL     1      22.358   3.430  48.900  1.00  0.00    -0.000 A 
HETATM   13  C17 UNL     1      21.408   0.423  50.802  1.00  0.00     0.048 C 
HETATM   14  C18 UNL     1      21.701  -0.162  52.129  1.00  0.00     0.088 C 
HETATM   15  C19 UNL     1      21.303  -0.235  53.370  1.00  0.00     0.105 C 
HETATM   16  O1  UNL     1      22.409  -1.048  53.588  1.00  0.00    -0.381 OA
HETATM   17  C20 UNL     1      23.680  -0.565  53.856  1.00  0.00     0.270 C 
HETATM   18  C21 UNL     1      24.042   0.525  52.961  1.00  0.00     0.245 C 
HETATM   19  O2  UNL     1      25.214   0.840  53.333  1.00  0.00    -0.271 OA
HETATM   20  N4  UNL     1      23.721   1.367  51.925  1.00  0.00    -0.325 N 
HETATM   21  H15 UNL     1      24.699   1.721  51.916  1.00  0.00     0.169 HD
ENDROOT
BRANCH   6  22
HETATM   22  N3  UNL     1      25.268   5.679  49.544  1.00  0.00    -0.340 N 
HETATM   23  H2  UNL     1      25.236   6.025  50.543  1.00  0.00     0.167 HD
BRANCH  22  24
HETATM   24  C5  UNL     1      26.558   5.846  48.966  1.00  0.00     0.035 A 
HETATM   25  C6  UNL     1      27.512   4.840  48.752  1.00  0.00     0.029 A 
HETATM   26  C7  UNL     1      28.740   5.181  48.218  1.00  0.00     0.004 A 
HETATM   27  C8  UNL     1      29.019   6.494  47.901  1.00  0.00     0.019 A 
HETATM   28  C9  UNL     1      28.125   7.522  48.086  1.00  0.00     0.013 A 
HETATM   29 BR1  UNL     1      28.519   9.334  47.657  1.00  0.00    -0.051 Br
HETATM   30  C10 UNL     1      26.917   7.125  48.619  1.00  0.00     0.048 A 
ENDBRANCH  22  24
ENDBRANCH   6  22
TORSDOF 2
ENDMDL
MODEL 9
REMARK VINA RESULT:      -8.9      2.465      3.086
REMARK  2 active torsions:
REMARK  status: ('A' for Active; 'I' for Inactive)
REMARK    1  A    between atoms: C4_6  and  N3_7 
REMARK    2  A    between atoms: N3_7  and  C5_8 
ROOT
HETATM    1  N1  UNL     1      20.567  -1.642  54.160  1.00  0.00    -0.096 N 
HETATM    2  C1  UNL     1      20.874  -0.568  53.719  1.00  0.00     0.022 C 
HETATM    3  C2  UNL     1      21.236   0.705  53.170  1.00  0.00     0.059 A 
HETATM    4  C3  UNL     1      20.231   1.610  52.774  1.00  0.00     0.141 A 
HETATM    5  N2  UNL     1      20.615   2.818  52.277  1.00  0.00    -0.241 NA
HETATM    6  C4  UNL     1      21.923   3.123  52.172  1.00  0.00     0.139 A 
HETATM    7  C11 UNL     1      22.855   2.206  52.571  1.00  0.00     0.024 A 
HETATM    8  C12 UNL     1      24.181   2.536  52.480  1.00  0.00     0.046 A 
HETATM    9  C13 UNL     1      25.055   1.585  52.914  1.00  0.00     0.042 A 
HETATM   10  C14 UNL     1      24.927   0.341  53.436  1.00  0.00    -0.030 A 
HETATM   11  C15 UNL     1      23.589   0.119  53.478  1.00  0.00     0.023 A 
HETATM   12  C16 UNL     1      22.581   0.968  53.082  1.00  0.00    -0.000 A 
HETATM   13  C17 UNL     1      25.678  -0.800  54.001  1.00  0.00     0.048 C 
HETATM   14  C18 UNL     1      27.087  -0.449  54.286  1.00  0.00     0.088 C 
HETATM   15  C19 UNL     1      27.937  -0.143  55.227  1.00  0.00     0.105 C 
HETATM   16  O1  UNL     1      28.886  -0.030  54.218  1.00  0.00    -0.381 OA
HETATM   17  C20 UNL     1      29.071   1.115  53.458  1.00  0.00     0.270 C 
HETATM   18  C21 UNL     1      27.803   1.670  53.005  1.00  0.00     0.245 C 
HETATM   19  O2  UNL     1      28.147   2.690  52.333  1.00  0.00    -0.271 OA
HETATM   20  N4  UNL     1      26.431   1.621  52.964  1.00  0.00    -0.325 N 
HETATM   21  H15 UNL     1      26.428   2.391  52.264  1.00  0.00     0.169 HD
ENDROOT
BRANCH   6  22
HETATM   22  N3  UNL     1      22.285   4.413  51.675  1.00  0.00    -0.340 N 
HETATM   23  H2  UNL     1      22.623   5.158  52.346  1.00  0.00     0.167 HD
BRANCH  22  24
HETATM   24  C5  UNL     1      22.251   4.886  50.332  1.00  0.00     0.035 A 
HETATM   25  C6  UNL     1      22.738   4.216  49.200  1.00  0.00     0.029 A 
HETATM   26  C7  UNL     1      22.667   4.838  47.968  1.00  0.00     0.004 A 
HETATM   27  C8  UNL     1      22.124   6.101  47.858  1.00  0.00     0.019 A 
HETATM   28  C9  UNL     1      21.630   6.807  48.931  1.00  0.00     0.013 A 
HETATM   29 BR1  UNL     1      20.891   8.554  48.776  1.00  0.00    -0.051 Br
HETATM   30  C10 UNL     1      21.724   6.138  50.132  1.00  0.00     0.048 A 
ENDBRANCH  22  24
ENDBRANCH   6  22
TORSDOF 2
ENDMDL
