MODEL 1
REMARK VINA RESULT:      -8.9      0.000      0.000
REMARK  3 active torsions:
REMARK  status: ('A' for Active; 'I' for Inactive)
REMARK    1  A    between atoms: C3_3  and  C4_4 
REMARK    2  A    between atoms: C7_7  and  C8_8 
REMARK    3  A    between atoms: C9_9  and  C10_10 
ROOT
HETATM    1  C1  UNL     1      28.509   5.506  48.206  1.00  0.00     0.011 C 
HETATM    2  C2  UNL     1      27.601   4.784  48.782  1.00  0.00    -0.010 C 
HETATM    3  C3  UNL     1      26.618   3.930  49.323  1.00  0.00     0.010 C 
ENDROOT
BRANCH   3   4
HETATM    4  C4  UNL     1      25.815   3.762  50.355  1.00  0.00    -0.008 A 
HETATM    5  C5  UNL     1      26.530   2.778  51.165  1.00  0.00     0.114 A 
HETATM    6  C6  UNL     1      26.892   1.732  51.958  1.00  0.00     0.024 C 
HETATM    7  N1  UNL     1      25.375   2.878  52.219  1.00  0.00    -0.337 N 
HETATM    8  C7  UNL     1      26.313   0.550  52.661  1.00  0.00    -0.037 C 
HETATM    9  C12 UNL     1      24.969   0.257  52.675  1.00  0.00     0.011 C 
HETATM   10  C13 UNL     1      23.541   0.364  52.402  1.00  0.00    -0.003 C 
HETATM   11  C14 UNL     1      22.584   1.052  51.732  1.00  0.00    -0.027 C 
HETATM   12  C15 UNL     1      21.617   1.854  50.968  1.00  0.00     0.027 C 
HETATM   13  C16 UNL     1      22.084   2.745  49.922  1.00  0.00     0.004 C 
HETATM   14  C17 UNL     1      21.421   4.074  49.614  1.00  0.00     0.004 C 
HETATM   15  C18 UNL     1      22.248   5.253  50.358  1.00  0.00     0.028 C 
HETATM   16  C19 UNL     1      23.646   4.744  50.060  1.00  0.00    -0.009 C 
HETATM   17  C20 UNL     1      24.592   4.218  50.856  1.00  0.00     0.037 A 
HETATM   18  C21 UNL     1      24.156   3.740  52.102  1.00  0.00     0.253 A 
HETATM   19  O1  UNL     1      23.104   4.106  52.627  1.00  0.00    -0.268 OA
HETATM   20  H25 UNL     1      25.064   2.551  53.269  1.00  0.00     0.164 HD
BRANCH   8  21
HETATM   21  C8  UNL     1      27.253  -0.312  53.218  1.00  0.00     0.007 C 
HETATM   22  C9  UNL     1      28.446   0.198  53.352  1.00  0.00    -0.026 C 
BRANCH  22  23
HETATM   23  C10 UNL     1      29.512  -0.635  53.925  1.00  0.00     0.022 C 
HETATM   24  C11 UNL     1      29.407  -2.047  53.338  1.00  0.00     0.009 C 
ENDBRANCH  22  23
ENDBRANCH   8  21
ENDBRANCH   3   4
TORSDOF 3
ENDMDL
MODEL 2
REMARK VINA RESULT:      -8.8      1.219      1.502
REMARK  3 active torsions:
REMARK  status: ('A' for Active; 'I' for Inactive)
REMARK    1  A    between atoms: C3_3  and  C4_4 
REMARK    2  A    between atoms: C7_7  and  C8_8 
REMARK    3  A    between atoms: C9_9  and  C10_10 
ROOT
HETATM    1  C1  UNL     1      27.543   4.937  48.701  1.00  0.00     0.011 C 
HETATM    2  C2  UNL     1      26.541   4.241  49.136  1.00  0.00    -0.010 C 
HETATM    3  C3  UNL     1      25.455   3.425  49.518  1.00  0.00     0.010 C 
ENDROOT
BRANCH   3   4
HETATM    4  C4  UNL     1      24.578   3.214  50.478  1.00  0.00    -0.008 A 
HETATM    5  C5  UNL     1      25.402   2.682  51.561  1.00  0.00     0.114 A 
HETATM    6  C6  UNL     1      25.914   1.978  52.606  1.00  0.00     0.024 C 
HETATM    7  N1  UNL     1      24.111   2.613  52.444  1.00  0.00    -0.337 N 
HETATM    8  C7  UNL     1      25.592   0.832  53.507  1.00  0.00    -0.037 C 
HETATM    9  C12 UNL     1      24.406   0.138  53.459  1.00  0.00     0.011 C 
HETATM   10  C13 UNL     1      23.073  -0.267  53.031  1.00  0.00    -0.003 C 
HETATM   11  C14 UNL     1      22.082  -0.060  52.130  1.00  0.00    -0.027 C 
HETATM   12  C15 UNL     1      21.063   0.232  51.110  1.00  0.00     0.027 C 
HETATM   13  C16 UNL     1      21.419   1.006  49.935  1.00  0.00     0.004 C 
HETATM   14  C17 UNL     1      20.462   1.972  49.263  1.00  0.00     0.004 C 
HETATM   15  C18 UNL     1      20.782   3.472  49.787  1.00  0.00     0.028 C 
HETATM   16  C19 UNL     1      22.297   3.383  49.753  1.00  0.00    -0.009 C 
HETATM   17  C20 UNL     1      23.210   3.347  50.738  1.00  0.00     0.037 A 
HETATM   18  C21 UNL     1      22.732   3.006  52.013  1.00  0.00     0.253 A 
HETATM   19  O1  UNL     1      21.548   3.115  52.333  1.00  0.00    -0.268 OA
HETATM   20  H25 UNL     1      23.740   2.413  53.507  1.00  0.00     0.164 HD
BRANCH   8  21
HETATM   21  C8  UNL     1      26.636   0.436  54.338  1.00  0.00     0.007 C 
HETATM   22  C9  UNL     1      27.819   0.490  53.789  1.00  0.00    -0.026 C 
BRANCH  22  23
HETATM   23  C10 UNL     1      28.986   0.085  54.583  1.00  0.00     0.022 C 
HETATM   24  C11 UNL     1      29.832  -0.892  53.760  1.00  0.00     0.009 C 
ENDBRANCH  22  23
ENDBRANCH   8  21
ENDBRANCH   3   4
TORSDOF 3
ENDMDL
MODEL 3
REMARK VINA RESULT:      -8.2      2.742      5.211
REMARK  3 active torsions:
REMARK  status: ('A' for Active; 'I' for Inactive)
REMARK    1  A    between atoms: C3_3  and  C4_4 
REMARK    2  A    between atoms: C7_7  and  C8_8 
REMARK    3  A    between atoms: C9_9  and  C10_10 
ROOT
HETATM    1  C1  UNL     1      18.189  -1.962  53.713  1.00  0.00     0.011 C 
HETATM    2  C2  UNL     1      19.339  -1.393  53.536  1.00  0.00    -0.010 C 
HETATM    3  C3  UNL     1      20.620  -0.810  53.441  1.00  0.00     0.010 C 
ENDROOT
BRANCH   3   4
HETATM    4  C4  UNL     1      21.400  -0.092  52.658  1.00  0.00    -0.008 A 
HETATM    5  C5  UNL     1      22.738  -0.408  53.154  1.00  0.00     0.114 A 
HETATM    6  C6  UNL     1      24.032  -0.376  53.574  1.00  0.00     0.024 C 
HETATM    7  N1  UNL     1      23.319   0.520  52.034  1.00  0.00    -0.337 N 
HETATM    8  C7  UNL     1      25.160   0.575  53.796  1.00  0.00    -0.037 C 
HETATM    9  C12 UNL     1      25.093   1.916  53.500  1.00  0.00     0.011 C 
HETATM   10  C13 UNL     1      24.553   3.195  53.054  1.00  0.00    -0.003 C 
HETATM   11  C14 UNL     1      23.452   3.840  52.599  1.00  0.00    -0.027 C 
HETATM   12  C15 UNL     1      22.208   4.457  52.112  1.00  0.00     0.027 C 
HETATM   13  C16 UNL     1      20.947   3.753  52.260  1.00  0.00     0.004 C 
HETATM   14  C17 UNL     1      19.829   3.841  51.239  1.00  0.00     0.004 C 
HETATM   15  C18 UNL     1      19.912   2.552  50.261  1.00  0.00     0.028 C 
HETATM   16  C19 UNL     1      20.214   1.508  51.321  1.00  0.00    -0.009 C 
HETATM   17  C20 UNL     1      21.324   0.797  51.582  1.00  0.00     0.037 A 
HETATM   18  C21 UNL     1      22.517   1.290  51.031  1.00  0.00     0.253 A 
HETATM   19  O1  UNL     1      22.542   2.058  50.069  1.00  0.00    -0.268 OA
HETATM   20  H25 UNL     1      24.293   0.853  51.537  1.00  0.00     0.164 HD
BRANCH   8  21
HETATM   21  C8  UNL     1      26.266   0.024  54.437  1.00  0.00     0.007 C 
HETATM   22  C9  UNL     1      27.414   0.524  54.068  1.00  0.00    -0.026 C 
BRANCH  22  23
HETATM   23  C10 UNL     1      28.642   0.004  54.682  1.00  0.00     0.022 C 
HETATM   24  C11 UNL     1      29.436  -0.771  53.625  1.00  0.00     0.009 C 
ENDBRANCH  22  23
ENDBRANCH   8  21
ENDBRANCH   3   4
TORSDOF 3
ENDMDL
MODEL 4
REMARK VINA RESULT:      -8.2      2.845      3.659
REMARK  3 active torsions:
REMARK  status: ('A' for Active; 'I' for Inactive)
REMARK    1  A    between atoms: C3_3  and  C4_4 
REMARK    2  A    between atoms: C7_7  and  C8_8 
REMARK    3  A    between atoms: C9_9  and  C10_10 
ROOT
HETATM    1  C1  UNL     1      27.990   4.996  48.605  1.00  0.00     0.011 C 
HETATM    2  C2  UNL     1      26.938   4.460  49.136  1.00  0.00    -0.010 C 
HETATM    3  C3  UNL     1      25.856   3.797  49.753  1.00  0.00     0.010 C 
ENDROOT
BRANCH   3   4
HETATM    4  C4  UNL     1      24.555   3.854  49.950  1.00  0.00    -0.008 A 
HETATM    5  C5  UNL     1      24.353   2.923  51.058  1.00  0.00     0.114 A 
HETATM    6  C6  UNL     1      23.900   1.965  51.913  1.00  0.00     0.024 C 
HETATM    7  N1  UNL     1      22.829   3.283  51.018  1.00  0.00    -0.337 N 
HETATM    8  C7  UNL     1      22.811   0.955  52.056  1.00  0.00    -0.037 C 
HETATM    9  C12 UNL     1      21.790   0.803  51.147  1.00  0.00     0.011 C 
HETATM   10  C13 UNL     1      20.971   1.014  49.961  1.00  0.00    -0.003 C 
HETATM   11  C14 UNL     1      20.854   1.696  48.795  1.00  0.00    -0.027 C 
HETATM   12  C15 UNL     1      20.813   2.479  47.550  1.00  0.00     0.027 C 
HETATM   13  C16 UNL     1      22.006   3.166  47.090  1.00  0.00     0.004 C 
HETATM   14  C17 UNL     1      21.962   4.500  46.370  1.00  0.00     0.004 C 
HETATM   15  C18 UNL     1      22.248   5.681  47.443  1.00  0.00     0.028 C 
HETATM   16  C19 UNL     1      23.366   4.998  48.208  1.00  0.00    -0.009 C 
HETATM   17  C20 UNL     1      23.415   4.494  49.453  1.00  0.00     0.037 A 
HETATM   18  C21 UNL     1      22.179   4.238  50.066  1.00  0.00     0.253 A 
HETATM   19  O1  UNL     1      21.131   4.777  49.708  1.00  0.00    -0.268 OA
HETATM   20  H25 UNL     1      21.840   3.136  51.572  1.00  0.00     0.164 HD
BRANCH   8  21
HETATM   21  C8  UNL     1      22.963   0.088  53.135  1.00  0.00     0.007 C 
HETATM   22  C9  UNL     1      21.917  -0.649  53.392  1.00  0.00    -0.026 C 
BRANCH  22  23
HETATM   23  C10 UNL     1      21.975  -1.592  54.516  1.00  0.00     0.022 C 
HETATM   24  C11 UNL     1      23.220  -1.288  55.356  1.00  0.00     0.009 C 
ENDBRANCH  22  23
ENDBRANCH   8  21
ENDBRANCH   3   4
TORSDOF 3
ENDMDL
MODEL 5
REMARK VINA RESULT:      -8.2      1.832      5.280
REMARK  3 active torsions:
REMARK  status: ('A' for Active; 'I' for Inactive)
REMARK    1  A    between atoms: C3_3  and  C4_4 
REMARK    2  A    between atoms: C7_7  and  C8_8 
REMARK    3  A    between atoms: C9_9  and  C10_10 
ROOT
HETATM    1  C1  UNL     1      26.897   0.201  54.922  1.00  0.00     0.011 C 
HETATM    2  C2  UNL     1      26.176   0.967  54.166  1.00  0.00    -0.010 C 
HETATM    3  C3  UNL     1      25.399   1.878  53.420  1.00  0.00     0.010 C 
ENDROOT
BRANCH   3   4
HETATM    4  C4  UNL     1      24.744   2.029  52.287  1.00  0.00    -0.008 A 
HETATM    5  C5  UNL     1      25.768   2.552  51.386  1.00  0.00     0.114 A 
HETATM    6  C6  UNL     1      26.476   3.237  50.447  1.00  0.00     0.024 C 
HETATM    7  N1  UNL     1      24.696   2.549  50.244  1.00  0.00    -0.337 N 
HETATM    8  C7  UNL     1      26.327   4.341  49.454  1.00  0.00    -0.037 C 
HETATM    9  C12 UNL     1      25.142   4.997  49.220  1.00  0.00     0.011 C 
HETATM   10  C13 UNL     1      23.738   5.373  49.335  1.00  0.00    -0.003 C 
HETATM   11  C14 UNL     1      22.582   5.163  50.011  1.00  0.00    -0.027 C 
HETATM   12  C15 UNL     1      21.375   4.872  50.800  1.00  0.00     0.027 C 
HETATM   13  C16 UNL     1      21.489   4.149  52.053  1.00  0.00     0.004 C 
HETATM   14  C17 UNL     1      20.434   3.176  52.543  1.00  0.00     0.004 C 
HETATM   15  C18 UNL     1      20.896   1.670  52.158  1.00  0.00     0.028 C 
HETATM   16  C19 UNL     1      22.366   1.809  52.513  1.00  0.00    -0.009 C 
HETATM   17  C20 UNL     1      23.468   1.842  51.746  1.00  0.00     0.037 A 
HETATM   18  C21 UNL     1      23.267   2.126  50.386  1.00  0.00     0.253 A 
HETATM   19  O1  UNL     1      22.183   1.968  49.824  1.00  0.00    -0.268 OA
HETATM   20  H25 UNL     1      24.557   2.701  49.120  1.00  0.00     0.164 HD
BRANCH   8  21
HETATM   21  C8  UNL     1      27.516   4.743  48.851  1.00  0.00     0.007 C 
HETATM   22  C9  UNL     1      27.526   5.982  48.443  1.00  0.00    -0.026 C 
BRANCH  22  23
HETATM   23  C10 UNL     1      28.734   6.501  47.787  1.00  0.00     0.022 C 
HETATM   24  C11 UNL     1      29.867   5.484  47.957  1.00  0.00     0.009 C 
ENDBRANCH  22  23
ENDBRANCH   8  21
ENDBRANCH   3   4
TORSDOF 3
ENDMDL
MODEL 6
REMARK VINA RESULT:      -8.1      2.769      3.686
REMARK  3 active torsions:
REMARK  status: ('A' for Active; 'I' for Inactive)
REMARK    1  A    between atoms: C3_3  and  C4_4 
REMARK    2  A    between atoms: C7_7  and  C8_8 
REMARK    3  A    between atoms: C9_9  and  C10_10 
ROOT
HETATM    1  C1  UNL     1      22.058   3.204  46.368  1.00  0.00     0.011 C 
HETATM    2  C2  UNL     1      22.271   2.845  47.594  1.00  0.00    -0.010 C 
HETATM    3  C3  UNL     1      22.595   2.406  48.895  1.00  0.00     0.010 C 
ENDROOT
BRANCH   3   4
HETATM    4  C4  UNL     1      22.180   2.408  50.145  1.00  0.00    -0.008 A 
HETATM    5  C5  UNL     1      23.379   2.025  50.887  1.00  0.00     0.114 A 
HETATM    6  C6  UNL     1      24.282   1.483  51.749  1.00  0.00     0.024 C 
HETATM    7  N1  UNL     1      22.552   2.175  52.208  1.00  0.00    -0.337 N 
HETATM    8  C7  UNL     1      24.371   0.525  52.891  1.00  0.00    -0.037 C 
HETATM    9  C12 UNL     1      23.279  -0.103  53.441  1.00  0.00     0.011 C 
HETATM   10  C13 UNL     1      21.894  -0.504  53.659  1.00  0.00    -0.003 C 
HETATM   11  C14 UNL     1      20.621  -0.401  53.205  1.00  0.00    -0.027 C 
HETATM   12  C15 UNL     1      19.273  -0.233  52.640  1.00  0.00     0.027 C 
HETATM   13  C16 UNL     1      19.113   0.310  51.303  1.00  0.00     0.004 C 
HETATM   14  C17 UNL     1      17.949   1.196  50.908  1.00  0.00     0.004 C 
HETATM   15  C18 UNL     1      18.421   2.744  50.987  1.00  0.00     0.028 C 
HETATM   16  C19 UNL     1      19.797   2.571  50.369  1.00  0.00    -0.009 C 
HETATM   17  C20 UNL     1      21.028   2.655  50.899  1.00  0.00     0.037 A 
HETATM   18  C21 UNL     1      21.108   2.561  52.298  1.00  0.00     0.253 A 
HETATM   19  O1  UNL     1      20.150   2.785  53.038  1.00  0.00    -0.268 OA
HETATM   20  H25 UNL     1      22.641   2.179  53.347  1.00  0.00     0.164 HD
BRANCH   8  21
HETATM   21  C8  UNL     1      25.668   0.222  53.294  1.00  0.00     0.007 C 
HETATM   22  C9  UNL     1      26.239  -0.733  52.614  1.00  0.00    -0.026 C 
BRANCH  22  23
HETATM   23  C10 UNL     1      27.608  -1.132  52.967  1.00  0.00     0.022 C 
HETATM   24  C11 UNL     1      28.232  -0.043  53.847  1.00  0.00     0.009 C 
ENDBRANCH  22  23
ENDBRANCH   8  21
ENDBRANCH   3   4
TORSDOF 3
ENDMDL
MODEL 7
REMARK VINA RESULT:      -8.1      3.583      6.633
REMARK  3 active torsions:
REMARK  status: ('A' for Active; 'I' for Inactive)
REMARK    1  A    between atoms: C3_3  and  C4_4 
REMARK    2  A    between atoms: C7_7  and  C8_8 
REMARK    3  A    between atoms: C9_9  and  C10_10 
ROOT
HETATM    1  C1  UNL     1      26.235  -0.890  53.086  1.00  0.00     0.011 C 
HETATM    2  C2  UNL     1      24.994  -0.526  53.151  1.00  0.00    -0.010 C 
HETATM    3  C3  UNL     1      23.624  -0.217  53.286  1.00  0.00     0.010 C 
ENDROOT
BRANCH   3   4
HETATM    4  C4  UNL     1      22.695   0.645  52.927  1.00  0.00    -0.008 A 
HETATM    5  C5  UNL     1      21.465   0.014  53.403  1.00  0.00     0.114 A 
HETATM    6  C6  UNL     1      20.202  -0.469  53.555  1.00  0.00     0.024 C 
HETATM    7  N1  UNL     1      20.678   1.260  52.872  1.00  0.00    -0.337 N 
HETATM    8  C7  UNL     1      18.898  -0.564  52.835  1.00  0.00    -0.037 C 
HETATM    9  C12 UNL     1      18.669  -0.001  51.602  1.00  0.00     0.011 C 
HETATM   10  C13 UNL     1      18.911   0.724  50.360  1.00  0.00    -0.003 C 
HETATM   11  C14 UNL     1      19.838   1.367  49.610  1.00  0.00    -0.027 C 
HETATM   12  C15 UNL     1      20.911   2.042  48.863  1.00  0.00     0.027 C 
HETATM   13  C16 UNL     1      22.296   1.834  49.242  1.00  0.00     0.004 C 
HETATM   14  C17 UNL     1      23.352   2.917  49.138  1.00  0.00     0.004 C 
HETATM   15  C18 UNL     1      23.534   3.610  50.592  1.00  0.00     0.028 C 
HETATM   16  C19 UNL     1      23.483   2.346  51.430  1.00  0.00    -0.009 C 
HETATM   17  C20 UNL     1      22.558   1.880  52.286  1.00  0.00     0.037 A 
HETATM   18  C21 UNL     1      21.277   2.445  52.179  1.00  0.00     0.253 A 
HETATM   19  O1  UNL     1      21.070   3.538  51.652  1.00  0.00    -0.268 OA
HETATM   20  H25 UNL     1      19.647   1.754  52.861  1.00  0.00     0.164 HD
BRANCH   8  21
HETATM   21  C8  UNL     1      17.949  -1.369  53.458  1.00  0.00     0.007 C 
HETATM   22  C9  UNL     1      18.247  -2.639  53.487  1.00  0.00    -0.026 C 
BRANCH  22  23
HETATM   23  C10 UNL     1      17.305  -3.573  54.117  1.00  0.00     0.022 C 
HETATM   24  C11 UNL     1      16.990  -4.703  53.130  1.00  0.00     0.009 C 
ENDBRANCH  22  23
ENDBRANCH   8  21
ENDBRANCH   3   4
TORSDOF 3
ENDMDL
MODEL 8
REMARK VINA RESULT:      -8.0      2.103      5.270
REMARK  3 active torsions:
REMARK  status: ('A' for Active; 'I' for Inactive)
REMARK    1  A    between atoms: C3_3  and  C4_4 
REMARK    2  A    between atoms: C7_7  and  C8_8 
REMARK    3  A    between atoms: C9_9  and  C10_10 
ROOT
HETATM    1  C1  UNL     1      28.244   2.280  53.589  1.00  0.00     0.011 C 
HETATM    2  C2  UNL     1      27.346   2.143  52.665  1.00  0.00    -0.010 C 
HETATM    3  C3  UNL     1      26.381   1.886  51.668  1.00  0.00     0.010 C 
ENDROOT
BRANCH   3   4
HETATM    4  C4  UNL     1      25.550   2.467  50.827  1.00  0.00    -0.008 A 
HETATM    5  C5  UNL     1      26.442   3.262  49.986  1.00  0.00     0.114 A 
HETATM    6  C6  UNL     1      27.033   4.230  49.234  1.00  0.00     0.024 C 
HETATM    7  N1  UNL     1      25.186   3.715  49.167  1.00  0.00    -0.337 N 
HETATM    8  C7  UNL     1      26.819   5.629  48.761  1.00  0.00    -0.037 C 
HETATM    9  C12 UNL     1      25.684   6.357  49.029  1.00  0.00     0.011 C 
HETATM   10  C13 UNL     1      24.369   6.698  49.558  1.00  0.00    -0.003 C 
HETATM   11  C14 UNL     1      23.339   6.281  50.334  1.00  0.00    -0.027 C 
HETATM   12  C15 UNL     1      22.272   5.748  51.195  1.00  0.00     0.027 C 
HETATM   13  C16 UNL     1      22.537   4.606  52.050  1.00  0.00     0.004 C 
HETATM   14  C17 UNL     1      21.496   3.548  52.360  1.00  0.00     0.004 C 
HETATM   15  C18 UNL     1      21.727   2.284  51.371  1.00  0.00     0.028 C 
HETATM   16  C19 UNL     1      23.242   2.242  51.442  1.00  0.00    -0.009 C 
HETATM   17  C20 UNL     1      24.185   2.530  50.530  1.00  0.00     0.037 A 
HETATM   18  C21 UNL     1      23.771   3.308  49.436  1.00  0.00     0.253 A 
HETATM   19  O1  UNL     1      22.592   3.400  49.091  1.00  0.00    -0.268 OA
HETATM   20  H25 UNL     1      24.862   4.281  48.228  1.00  0.00     0.164 HD
BRANCH   8  21
HETATM   21  C8  UNL     1      27.913   6.197  48.113  1.00  0.00     0.007 C 
HETATM   22  C9  UNL     1      29.057   5.629  48.380  1.00  0.00    -0.026 C 
BRANCH  22  23
HETATM   23  C10 UNL     1      30.274   6.160  47.751  1.00  0.00     0.022 C 
HETATM   24  C11 UNL     1      31.272   5.013  47.555  1.00  0.00     0.009 C 
ENDBRANCH  22  23
ENDBRANCH   8  21
ENDBRANCH   3   4
TORSDOF 3
ENDMDL
MODEL 9
REMARK VINA RESULT:      -7.9      1.845      5.317
REMARK  3 active torsions:
REMARK  status: ('A' for Active; 'I' for Inactive)
REMARK    1  A    between atoms: C3_3  and  C4_4 
REMARK    2  A    between atoms: C7_7  and  C8_8 
REMARK    3  A    between atoms: C9_9  and  C10_10 
ROOT
HETATM    1  C1  UNL     1      20.875   2.868  46.898  1.00  0.00     0.011 C 
HETATM    2  C2  UNL     1      21.310   2.481  48.055  1.00  0.00    -0.010 C 
HETATM    3  C3  UNL     1      21.723   1.968  49.303  1.00  0.00     0.010 C 
ENDROOT
BRANCH   3   4
HETATM    4  C4  UNL     1      22.472   2.226  50.356  1.00  0.00    -0.008 A 
HETATM    5  C5  UNL     1      23.581   2.990  49.787  1.00  0.00     0.114 A 
HETATM    6  C6  UNL     1      24.794   3.514  49.462  1.00  0.00     0.024 C 
HETATM    7  N1  UNL     1      24.164   3.129  51.234  1.00  0.00    -0.337 N 
HETATM    8  C7  UNL     1      26.245   3.375  49.783  1.00  0.00    -0.037 C 
HETATM    9  C12 UNL     1      26.734   2.508  50.732  1.00  0.00     0.011 C 
HETATM   10  C13 UNL     1      26.757   1.484  51.769  1.00  0.00    -0.003 C 
HETATM   11  C14 UNL     1      26.012   0.601  52.478  1.00  0.00    -0.027 C 
HETATM   12  C15 UNL     1      25.126  -0.329  53.197  1.00  0.00     0.027 C 
HETATM   13  C16 UNL     1      23.794  -0.596  52.687  1.00  0.00     0.004 C 
HETATM   14  C17 UNL     1      22.603  -0.853  53.589  1.00  0.00     0.004 C 
HETATM   15  C18 UNL     1      21.768   0.526  53.756  1.00  0.00     0.028 C 
HETATM   16  C19 UNL     1      21.844   0.989  52.312  1.00  0.00    -0.009 C 
HETATM   17  C20 UNL     1      22.505   2.006  51.736  1.00  0.00     0.037 A 
HETATM   18  C21 UNL     1      23.561   2.557  52.480  1.00  0.00     0.253 A 
HETATM   19  O1  UNL     1      23.655   2.432  53.701  1.00  0.00    -0.268 OA
HETATM   20  H25 UNL     1      24.977   3.648  51.845  1.00  0.00     0.164 HD
BRANCH   8  21
HETATM   21  C8  UNL     1      27.094   4.115  48.965  1.00  0.00     0.007 C 
HETATM   22  C9  UNL     1      26.863   5.399  48.962  1.00  0.00    -0.026 C 
BRANCH  22  23
HETATM   23  C10 UNL     1      27.701   6.266  48.124  1.00  0.00     0.022 C 
HETATM   24  C11 UNL     1      29.149   5.768  48.186  1.00  0.00     0.009 C 
ENDBRANCH  22  23
ENDBRANCH   8  21
ENDBRANCH   3   4
TORSDOF 3
ENDMDL
