MODEL 1
REMARK VINA RESULT:      -8.0      0.000      0.000
REMARK  4 active torsions:
REMARK  status: ('A' for Active; 'I' for Inactive)
REMARK    1  A    between atoms: C7_7  and  O1_8 
REMARK    2  A    between atoms: O1_8  and  C8_9 
REMARK    3  A    between atoms: C11_12  and  N1_13 
REMARK    4  A    between atoms: N1_13  and  C12_14 
ROOT
HETATM    1  C8  UNL     1      23.139  -0.309  53.369  1.00  0.00     0.091 A 
HETATM    2  C9  UNL     1      22.405   0.210  52.323  1.00  0.00     0.041 A 
HETATM    3  C10 UNL     1      21.043   0.138  52.443  1.00  0.00     0.032 A 
HETATM    4  C11 UNL     1      20.314  -0.392  53.486  1.00  0.00     0.035 A 
HETATM    5  C16 UNL     1      21.132  -0.893  54.500  1.00  0.00     0.056 A 
HETATM    6  C17 UNL     1      22.499  -0.861  54.460  1.00  0.00     0.069 A 
HETATM    7 CL1  UNL     1      23.368  -1.547  55.831  1.00  0.00    -0.081 Cl
ENDROOT
BRANCH   1   8
HETATM    8  O1  UNL     1      24.500  -0.339  53.448  1.00  0.00    -0.340 OA
BRANCH   8   9
HETATM    9  C7  UNL     1      25.417   0.304  52.585  1.00  0.00     0.161 A 
HETATM   10  C2  UNL     1      26.710  -0.391  52.715  1.00  0.00    -0.054 A 
HETATM   11  C1  UNL     1      26.711  -1.817  52.299  1.00  0.00     0.046 C 
HETATM   12  C3  UNL     1      27.924  -0.017  53.133  1.00  0.00     0.005 A 
HETATM   13  C4  UNL     1      28.089   1.362  53.577  1.00  0.00    -0.004 A 
HETATM   14  C5  UNL     1      26.948   2.025  53.483  1.00  0.00    -0.024 A 
HETATM   15  C6  UNL     1      25.571   1.733  53.050  1.00  0.00     0.064 A 
ENDBRANCH   8   9
ENDBRANCH   1   8
BRANCH   4  16
HETATM   16  N1  UNL     1      18.921  -0.478  53.584  1.00  0.00    -0.341 N 
HETATM   17  H12 UNL     1      18.505   0.457  53.885  1.00  0.00     0.167 HD
BRANCH  16  18
HETATM   18  C12 UNL     1      17.978  -1.507  53.373  1.00  0.00     0.130 A 
HETATM   19  C13 UNL     1      18.045  -2.806  53.801  1.00  0.00     0.070 A 
HETATM   20  C14 UNL     1      17.112  -3.783  53.559  1.00  0.00     0.122 A 
HETATM   21  N2  UNL     1      16.017  -3.431  52.824  1.00  0.00    -0.254 NA
HETATM   22  C15 UNL     1      15.933  -2.155  52.394  1.00  0.00     0.234 A 
HETATM   23  N3  UNL     1      16.867  -1.255  52.660  1.00  0.00    -0.225 NA
ENDBRANCH  16  18
ENDBRANCH   4  16
TORSDOF 4
ENDMDL
MODEL 2
REMARK VINA RESULT:      -7.9      2.581      3.154
REMARK  4 active torsions:
REMARK  status: ('A' for Active; 'I' for Inactive)
REMARK    1  A    between atoms: C7_7  and  O1_8 
REMARK    2  A    between atoms: O1_8  and  C8_9 
REMARK    3  A    between atoms: C11_12  and  N1_13 
REMARK    4  A    between atoms: N1_13  and  C12_14 
ROOT
HETATM    1  C8  UNL     1      24.734   0.365  53.273  1.00  0.00     0.091 A 
HETATM    2  C9  UNL     1      24.195   1.070  52.216  1.00  0.00     0.041 A 
HETATM    3  C10 UNL     1      22.846   0.940  52.025  1.00  0.00     0.032 A 
HETATM    4  C11 UNL     1      21.957   0.188  52.762  1.00  0.00     0.035 A 
HETATM    5  C16 UNL     1      22.583  -0.491  53.810  1.00  0.00     0.056 A 
HETATM    6  C17 UNL     1      23.923  -0.416  54.071  1.00  0.00     0.069 A 
HETATM    7 CL1  UNL     1      24.539  -1.347  55.435  1.00  0.00    -0.081 Cl
ENDROOT
BRANCH   1   8
HETATM    8  O1  UNL     1      26.048   0.355  53.635  1.00  0.00    -0.340 OA
BRANCH   8   9
HETATM    9  C7  UNL     1      27.168   0.307  52.774  1.00  0.00     0.161 A 
HETATM   10  C2  UNL     1      27.760  -1.037  52.890  1.00  0.00    -0.054 A 
HETATM   11  C1  UNL     1      26.885  -2.158  52.460  1.00  0.00     0.046 C 
HETATM   12  C3  UNL     1      28.947  -1.493  53.305  1.00  0.00     0.005 A 
HETATM   13  C4  UNL     1      29.924  -0.512  53.762  1.00  0.00    -0.004 A 
HETATM   14  C5  UNL     1      29.432   0.714  53.680  1.00  0.00    -0.024 A 
HETATM   15  C6  UNL     1      28.167   1.334  53.251  1.00  0.00     0.064 A 
ENDBRANCH   8   9
ENDBRANCH   1   8
BRANCH   4  16
HETATM   16  N1  UNL     1      20.582   0.047  52.541  1.00  0.00    -0.341 N 
HETATM   17  H12 UNL     1      20.214  -0.841  53.001  1.00  0.00     0.167 HD
BRANCH  16  18
HETATM   18  C12 UNL     1      19.609   0.811  51.860  1.00  0.00     0.130 A 
HETATM   19  C13 UNL     1      18.740   0.388  50.890  1.00  0.00     0.070 A 
HETATM   20  C14 UNL     1      17.818   1.168  50.239  1.00  0.00     0.122 A 
HETATM   21  N2  UNL     1      17.760   2.487  50.589  1.00  0.00    -0.254 NA
HETATM   22  C15 UNL     1      18.608   2.922  51.543  1.00  0.00     0.234 A 
HETATM   23  N3  UNL     1      19.478   2.119  52.137  1.00  0.00    -0.225 NA
ENDBRANCH  16  18
ENDBRANCH   4  16
TORSDOF 4
ENDMDL
MODEL 3
REMARK VINA RESULT:      -7.8      5.801      9.453
REMARK  4 active torsions:
REMARK  status: ('A' for Active; 'I' for Inactive)
REMARK    1  A    between atoms: C7_7  and  O1_8 
REMARK    2  A    between atoms: O1_8  and  C8_9 
REMARK    3  A    between atoms: C11_12  and  N1_13 
REMARK    4  A    between atoms: N1_13  and  C12_14 
ROOT
HETATM    1  C8  UNL     1      24.141   2.365  51.582  1.00  0.00     0.091 A 
HETATM    2  C9  UNL     1      23.789   2.797  50.320  1.00  0.00     0.041 A 
HETATM    3  C10 UNL     1      24.810   3.244  49.524  1.00  0.00     0.032 A 
HETATM    4  C11 UNL     1      26.152   3.314  49.831  1.00  0.00     0.035 A 
HETATM    5  C16 UNL     1      26.421   2.857  51.123  1.00  0.00     0.056 A 
HETATM    6  C17 UNL     1      25.462   2.395  51.981  1.00  0.00     0.069 A 
HETATM    7 CL1  UNL     1      25.988   1.862  53.577  1.00  0.00    -0.081 Cl
ENDROOT
BRANCH   1   8
HETATM    8  O1  UNL     1      23.284   1.885  52.526  1.00  0.00    -0.340 OA
BRANCH   8   9
HETATM    9  C7  UNL     1      22.511   0.703  52.453  1.00  0.00     0.161 A 
HETATM   10  C2  UNL     1      21.280   0.929  53.230  1.00  0.00    -0.054 A 
HETATM   11  C1  UNL     1      20.396   2.010  52.724  1.00  0.00     0.046 C 
HETATM   12  C3  UNL     1      20.758   0.362  54.324  1.00  0.00     0.005 A 
HETATM   13  C4  UNL     1      21.510  -0.722  54.945  1.00  0.00    -0.004 A 
HETATM   14  C5  UNL     1      22.630  -0.957  54.280  1.00  0.00    -0.024 A 
HETATM   15  C6  UNL     1      23.305  -0.413  53.090  1.00  0.00     0.064 A 
ENDBRANCH   8   9
ENDBRANCH   1   8
BRANCH   4  16
HETATM   16  N1  UNL     1      27.181   3.793  49.014  1.00  0.00    -0.341 N 
HETATM   17  H12 UNL     1      27.725   2.986  48.579  1.00  0.00     0.167 HD
BRANCH  16  18
HETATM   18  C12 UNL     1      27.636   5.080  48.653  1.00  0.00     0.130 A 
HETATM   19  C13 UNL     1      26.897   6.226  48.526  1.00  0.00     0.070 A 
HETATM   20  C14 UNL     1      27.376   7.457  48.155  1.00  0.00     0.122 A 
HETATM   21  N2  UNL     1      28.712   7.550  47.887  1.00  0.00    -0.254 NA
HETATM   22  C15 UNL     1      29.457   6.433  48.007  1.00  0.00     0.234 A 
HETATM   23  N3  UNL     1      28.936   5.270  48.371  1.00  0.00    -0.225 NA
ENDBRANCH  16  18
ENDBRANCH   4  16
TORSDOF 4
ENDMDL
MODEL 4
REMARK VINA RESULT:      -7.8      3.768      8.235
REMARK  4 active torsions:
REMARK  status: ('A' for Active; 'I' for Inactive)
REMARK    1  A    between atoms: C7_7  and  O1_8 
REMARK    2  A    between atoms: O1_8  and  C8_9 
REMARK    3  A    between atoms: C11_12  and  N1_13 
REMARK    4  A    between atoms: N1_13  and  C12_14 
ROOT
HETATM    1  C8  UNL     1      21.565   0.144  52.170  1.00  0.00     0.091 A 
HETATM    2  C9  UNL     1      22.228   1.108  51.439  1.00  0.00     0.041 A 
HETATM    3  C10 UNL     1      23.494   1.421  51.854  1.00  0.00     0.032 A 
HETATM    4  C11 UNL     1      24.191   0.886  52.917  1.00  0.00     0.035 A 
HETATM    5  C16 UNL     1      23.450  -0.080  53.600  1.00  0.00     0.056 A 
HETATM    6  C17 UNL     1      22.181  -0.451  53.253  1.00  0.00     0.069 A 
HETATM    7 CL1  UNL     1      21.398  -1.687  54.236  1.00  0.00    -0.081 Cl
ENDROOT
BRANCH   1   8
HETATM    8  O1  UNL     1      20.303  -0.311  51.928  1.00  0.00    -0.340 OA
BRANCH   8   9
HETATM    9  C7  UNL     1      19.107   0.441  51.957  1.00  0.00     0.161 A 
HETATM   10  C2  UNL     1      17.989  -0.507  52.101  1.00  0.00    -0.054 A 
HETATM   11  C1  UNL     1      17.985  -1.302  53.356  1.00  0.00     0.046 C 
HETATM   12  C3  UNL     1      16.940  -0.825  51.334  1.00  0.00     0.005 A 
HETATM   13  C4  UNL     1      16.800  -0.129  50.060  1.00  0.00    -0.004 A 
HETATM   14  C5  UNL     1      17.789   0.733  49.886  1.00  0.00    -0.024 A 
HETATM   15  C6  UNL     1      18.980   1.165  50.638  1.00  0.00     0.064 A 
ENDBRANCH   8   9
ENDBRANCH   1   8
BRANCH   4  16
HETATM   16  N1  UNL     1      25.478   1.232  53.342  1.00  0.00    -0.341 N 
HETATM   17  H12 UNL     1      25.547   2.280  53.525  1.00  0.00     0.167 HD
BRANCH  16  18
HETATM   18  C12 UNL     1      26.668   0.510  53.574  1.00  0.00     0.130 A 
HETATM   19  C13 UNL     1      27.165  -0.543  52.853  1.00  0.00     0.070 A 
HETATM   20  C14 UNL     1      28.320  -1.232  53.123  1.00  0.00     0.122 A 
HETATM   21  N2  UNL     1      29.044  -0.833  54.210  1.00  0.00    -0.254 NA
HETATM   22  C15 UNL     1      28.571   0.203  54.933  1.00  0.00     0.234 A 
HETATM   23  N3  UNL     1      27.446   0.830  54.622  1.00  0.00    -0.225 NA
ENDBRANCH  16  18
ENDBRANCH   4  16
TORSDOF 4
ENDMDL
MODEL 5
REMARK VINA RESULT:      -7.8      4.015      8.372
REMARK  4 active torsions:
REMARK  status: ('A' for Active; 'I' for Inactive)
REMARK    1  A    between atoms: C7_7  and  O1_8 
REMARK    2  A    between atoms: O1_8  and  C8_9 
REMARK    3  A    between atoms: C11_12  and  N1_13 
REMARK    4  A    between atoms: N1_13  and  C12_14 
ROOT
HETATM    1  C8  UNL     1      22.255  -0.252  53.015  1.00  0.00     0.091 A 
HETATM    2  C9  UNL     1      22.388  -1.028  54.148  1.00  0.00     0.041 A 
HETATM    3  C10 UNL     1      23.627  -1.045  54.731  1.00  0.00     0.032 A 
HETATM    4  C11 UNL     1      24.762  -0.378  54.322  1.00  0.00     0.035 A 
HETATM    5  C16 UNL     1      24.540   0.383  53.172  1.00  0.00     0.056 A 
HETATM    6  C17 UNL     1      23.336   0.455  52.528  1.00  0.00     0.069 A 
HETATM    7 CL1  UNL     1      23.245   1.464  51.086  1.00  0.00    -0.081 Cl
ENDROOT
BRANCH   1   8
HETATM    8  O1  UNL     1      21.115  -0.098  52.285  1.00  0.00    -0.340 OA
BRANCH   8   9
HETATM    9  C7  UNL     1      19.952   0.612  52.662  1.00  0.00     0.161 A 
HETATM   10  C2  UNL     1      18.807  -0.304  52.523  1.00  0.00    -0.054 A 
HETATM   11  C1  UNL     1      18.838  -1.501  53.401  1.00  0.00     0.046 C 
HETATM   12  C3  UNL     1      17.707  -0.301  51.761  1.00  0.00     0.005 A 
HETATM   13  C4  UNL     1      17.527   0.814  50.839  1.00  0.00    -0.004 A 
HETATM   14  C5  UNL     1      18.539   1.663  50.927  1.00  0.00    -0.024 A 
HETATM   15  C6  UNL     1      19.784   1.770  51.707  1.00  0.00     0.064 A 
ENDBRANCH   8   9
ENDBRANCH   1   8
BRANCH   4  16
HETATM   16  N1  UNL     1      26.027  -0.422  54.916  1.00  0.00    -0.341 N 
HETATM   17  H12 UNL     1      25.950  -0.661  55.953  1.00  0.00     0.167 HD
BRANCH  16  18
HETATM   18  C12 UNL     1      27.345  -0.226  54.449  1.00  0.00     0.130 A 
HETATM   19  C13 UNL     1      28.082   0.927  54.477  1.00  0.00     0.070 A 
HETATM   20  C14 UNL     1      29.358   1.081  53.996  1.00  0.00     0.122 A 
HETATM   21  N2  UNL     1      29.948  -0.015  53.435  1.00  0.00    -0.254 NA
HETATM   22  C15 UNL     1      29.238  -1.161  53.398  1.00  0.00     0.234 A 
HETATM   23  N3  UNL     1      28.007  -1.248  53.881  1.00  0.00    -0.225 NA
ENDBRANCH  16  18
ENDBRANCH   4  16
TORSDOF 4
ENDMDL
MODEL 6
REMARK VINA RESULT:      -7.6      1.511      2.244
REMARK  4 active torsions:
REMARK  status: ('A' for Active; 'I' for Inactive)
REMARK    1  A    between atoms: C7_7  and  O1_8 
REMARK    2  A    between atoms: O1_8  and  C8_9 
REMARK    3  A    between atoms: C11_12  and  N1_13 
REMARK    4  A    between atoms: N1_13  and  C12_14 
ROOT
HETATM    1  C8  UNL     1      24.218   0.884  52.499  1.00  0.00     0.091 A 
HETATM    2  C9  UNL     1      23.871   1.662  51.414  1.00  0.00     0.041 A 
HETATM    3  C10 UNL     1      22.562   1.600  51.016  1.00  0.00     0.032 A 
HETATM    4  C11 UNL     1      21.546   0.851  51.570  1.00  0.00     0.035 A 
HETATM    5  C16 UNL     1      21.981   0.095  52.661  1.00  0.00     0.056 A 
HETATM    6  C17 UNL     1      23.268   0.100  53.123  1.00  0.00     0.069 A 
HETATM    7 CL1  UNL     1      23.637  -0.923  54.510  1.00  0.00    -0.081 Cl
ENDROOT
BRANCH   1   8
HETATM    8  O1  UNL     1      25.461   0.799  53.052  1.00  0.00    -0.340 OA
BRANCH   8   9
HETATM    9  C7  UNL     1      26.697   0.767  52.368  1.00  0.00     0.161 A 
HETATM   10  C2  UNL     1      27.425  -0.431  52.822  1.00  0.00    -0.054 A 
HETATM   11  C1  UNL     1      26.771  -1.728  52.515  1.00  0.00     0.046 C 
HETATM   12  C3  UNL     1      28.581  -0.622  53.468  1.00  0.00     0.005 A 
HETATM   13  C4  UNL     1      29.348   0.561  53.843  1.00  0.00    -0.004 A 
HETATM   14  C5  UNL     1      28.727   1.664  53.457  1.00  0.00    -0.024 A 
HETATM   15  C6  UNL     1      27.476   2.001  52.756  1.00  0.00     0.064 A 
ENDBRANCH   8   9
ENDBRANCH   1   8
BRANCH   4  16
HETATM   16  N1  UNL     1      20.217   0.781  51.138  1.00  0.00    -0.341 N 
HETATM   17  H12 UNL     1      20.068   1.390  50.275  1.00  0.00     0.167 HD
BRANCH  16  18
HETATM   18  C12 UNL     1      19.068   0.095  51.587  1.00  0.00     0.130 A 
HETATM   19  C13 UNL     1      17.868  -0.044  50.941  1.00  0.00     0.070 A 
HETATM   20  C14 UNL     1      16.767  -0.707  51.420  1.00  0.00     0.122 A 
HETATM   21  N2  UNL     1      16.873  -1.280  52.654  1.00  0.00    -0.254 NA
HETATM   22  C15 UNL     1      18.047  -1.154  53.306  1.00  0.00     0.234 A 
HETATM   23  N3  UNL     1      19.078  -0.502  52.790  1.00  0.00    -0.225 NA
ENDBRANCH  16  18
ENDBRANCH   4  16
TORSDOF 4
ENDMDL
MODEL 7
REMARK VINA RESULT:      -7.5      5.907      9.417
REMARK  4 active torsions:
REMARK  status: ('A' for Active; 'I' for Inactive)
REMARK    1  A    between atoms: C7_7  and  O1_8 
REMARK    2  A    between atoms: O1_8  and  C8_9 
REMARK    3  A    between atoms: C11_12  and  N1_13 
REMARK    4  A    between atoms: N1_13  and  C12_14 
ROOT
HETATM    1  C8  UNL     1      24.992   2.370  51.991  1.00  0.00     0.091 A 
HETATM    2  C9  UNL     1      26.184   2.157  51.330  1.00  0.00     0.041 A 
HETATM    3  C10 UNL     1      26.509   3.062  50.356  1.00  0.00     0.032 A 
HETATM    4  C11 UNL     1      25.787   4.166  49.954  1.00  0.00     0.035 A 
HETATM    5  C16 UNL     1      24.598   4.309  50.673  1.00  0.00     0.056 A 
HETATM    6  C17 UNL     1      24.199   3.451  51.660  1.00  0.00     0.069 A 
HETATM    7 CL1  UNL     1      22.663   3.787  52.456  1.00  0.00    -0.081 Cl
ENDROOT
BRANCH   1   8
HETATM    8  O1  UNL     1      24.484   1.592  52.988  1.00  0.00    -0.340 OA
BRANCH   8   9
HETATM    9  C7  UNL     1      24.407   0.181  53.010  1.00  0.00     0.161 A 
HETATM   10  C2  UNL     1      23.004  -0.183  53.279  1.00  0.00    -0.054 A 
HETATM   11  C1  UNL     1      22.025   0.249  52.249  1.00  0.00     0.046 C 
HETATM   12  C3  UNL     1      22.392  -0.838  54.272  1.00  0.00     0.005 A 
HETATM   13  C4  UNL     1      23.219  -1.329  55.367  1.00  0.00    -0.004 A 
HETATM   14  C5  UNL     1      24.491  -1.020  55.169  1.00  0.00    -0.024 A 
HETATM   15  C6  UNL     1      25.276  -0.316  54.141  1.00  0.00     0.064 A 
ENDBRANCH   8   9
ENDBRANCH   1   8
BRANCH   4  16
HETATM   16  N1  UNL     1      26.122   5.071  48.941  1.00  0.00    -0.341 N 
HETATM   17  H12 UNL     1      25.260   5.342  48.377  1.00  0.00     0.167 HD
BRANCH  16  18
HETATM   18  C12 UNL     1      27.323   5.683  48.522  1.00  0.00     0.130 A 
HETATM   19  C13 UNL     1      27.500   6.967  48.079  1.00  0.00     0.070 A 
HETATM   20  C14 UNL     1      28.685   7.520  47.664  1.00  0.00     0.122 A 
HETATM   21  N2  UNL     1      29.790   6.719  47.693  1.00  0.00    -0.254 NA
HETATM   22  C15 UNL     1      29.636   5.451  48.126  1.00  0.00     0.234 A 
HETATM   23  N3  UNL     1      28.464   4.973  48.516  1.00  0.00    -0.225 NA
ENDBRANCH  16  18
ENDBRANCH   4  16
TORSDOF 4
ENDMDL
MODEL 8
REMARK VINA RESULT:      -7.4      3.647      8.285
REMARK  4 active torsions:
REMARK  status: ('A' for Active; 'I' for Inactive)
REMARK    1  A    between atoms: C7_7  and  O1_8 
REMARK    2  A    between atoms: O1_8  and  C8_9 
REMARK    3  A    between atoms: C11_12  and  N1_13 
REMARK    4  A    between atoms: N1_13  and  C12_14 
ROOT
HETATM    1  C8  UNL     1      20.534  -0.233  53.373  1.00  0.00     0.091 A 
HETATM    2  C9  UNL     1      20.757  -1.374  54.117  1.00  0.00     0.041 A 
HETATM    3  C10 UNL     1      22.039  -1.574  54.554  1.00  0.00     0.032 A 
HETATM    4  C11 UNL     1      23.139  -0.770  54.341  1.00  0.00     0.035 A 
HETATM    5  C16 UNL     1      22.827   0.360  53.582  1.00  0.00     0.056 A 
HETATM    6  C17 UNL     1      21.574   0.635  53.108  1.00  0.00     0.069 A 
HETATM    7 CL1  UNL     1      21.368   2.109  52.163  1.00  0.00    -0.081 Cl
ENDROOT
BRANCH   1   8
HETATM    8  O1  UNL     1      19.338   0.152  52.845  1.00  0.00    -0.340 OA
BRANCH   8   9
HETATM    9  C7  UNL     1      18.457  -0.636  52.070  1.00  0.00     0.161 A 
HETATM   10  C2  UNL     1      17.835   0.249  51.069  1.00  0.00    -0.054 A 
HETATM   11  C1  UNL     1      18.771   0.867  50.095  1.00  0.00     0.046 C 
HETATM   12  C3  UNL     1      16.576   0.632  50.828  1.00  0.00     0.005 A 
HETATM   13  C4  UNL     1      15.533   0.110  51.702  1.00  0.00    -0.004 A 
HETATM   14  C5  UNL     1      16.049  -0.689  52.622  1.00  0.00    -0.024 A 
HETATM   15  C6  UNL     1      17.388  -1.180  52.987  1.00  0.00     0.064 A 
ENDBRANCH   8   9
ENDBRANCH   1   8
BRANCH   4  16
HETATM   16  N1  UNL     1      24.448  -1.000  54.776  1.00  0.00    -0.341 N 
HETATM   17  H12 UNL     1      24.452  -1.555  55.686  1.00  0.00     0.167 HD
BRANCH  16  18
HETATM   18  C12 UNL     1      25.726  -0.664  54.279  1.00  0.00     0.130 A 
HETATM   19  C13 UNL     1      26.222  -0.885  53.022  1.00  0.00     0.070 A 
HETATM   20  C14 UNL     1      27.480  -0.558  52.582  1.00  0.00     0.122 A 
HETATM   21  N2  UNL     1      28.316   0.043  53.479  1.00  0.00    -0.254 NA
HETATM   22  C15 UNL     1      27.846   0.270  54.722  1.00  0.00     0.234 A 
HETATM   23  N3  UNL     1      26.619  -0.069  55.088  1.00  0.00    -0.225 NA
ENDBRANCH  16  18
ENDBRANCH   4  16
TORSDOF 4
ENDMDL
MODEL 9
REMARK VINA RESULT:      -7.3      5.048      8.091
REMARK  4 active torsions:
REMARK  status: ('A' for Active; 'I' for Inactive)
REMARK    1  A    between atoms: C7_7  and  O1_8 
REMARK    2  A    between atoms: O1_8  and  C8_9 
REMARK    3  A    between atoms: C11_12  and  N1_13 
REMARK    4  A    between atoms: N1_13  and  C12_14 
ROOT
HETATM    1  C8  UNL     1      23.771   2.801  51.268  1.00  0.00     0.091 A 
HETATM    2  C9  UNL     1      23.018   2.134  52.211  1.00  0.00     0.041 A 
HETATM    3  C10 UNL     1      23.655   1.142  52.907  1.00  0.00     0.032 A 
HETATM    4  C11 UNL     1      24.964   0.728  52.779  1.00  0.00     0.035 A 
HETATM    5  C16 UNL     1      25.654   1.454  51.805  1.00  0.00     0.056 A 
HETATM    6  C17 UNL     1      25.093   2.459  51.067  1.00  0.00     0.069 A 
HETATM    7 CL1  UNL     1      26.117   3.262  49.878  1.00  0.00    -0.081 Cl
ENDROOT
BRANCH   1   8
HETATM    8  O1  UNL     1      23.331   3.815  50.470  1.00  0.00    -0.340 OA
BRANCH   8   9
HETATM    9  C7  UNL     1      22.436   3.715  49.382  1.00  0.00     0.161 A 
HETATM   10  C2  UNL     1      21.081   3.540  49.936  1.00  0.00    -0.054 A 
HETATM   11  C1  UNL     1      20.578   4.670  50.757  1.00  0.00     0.046 C 
HETATM   12  C3  UNL     1      20.171   2.562  49.863  1.00  0.00     0.005 A 
HETATM   13  C4  UNL     1      20.515   1.376  49.088  1.00  0.00    -0.004 A 
HETATM   14  C5  UNL     1      21.730   1.488  48.574  1.00  0.00    -0.024 A 
HETATM   15  C6  UNL     1      22.809   2.489  48.582  1.00  0.00     0.064 A 
ENDBRANCH   8   9
ENDBRANCH   1   8
BRANCH   4  16
HETATM   16  N1  UNL     1      25.595  -0.304  53.482  1.00  0.00    -0.341 N 
HETATM   17  H12 UNL     1      24.913  -0.779  54.150  1.00  0.00     0.167 HD
BRANCH  16  18
HETATM   18  C12 UNL     1      26.904  -0.834  53.494  1.00  0.00     0.130 A 
HETATM   19  C13 UNL     1      28.049  -0.231  53.940  1.00  0.00     0.070 A 
HETATM   20  C14 UNL     1      29.308  -0.775  53.918  1.00  0.00     0.122 A 
HETATM   21  N2  UNL     1      29.433  -2.034  53.403  1.00  0.00    -0.254 NA
HETATM   22  C15 UNL     1      28.316  -2.644  52.958  1.00  0.00     0.234 A 
HETATM   23  N3  UNL     1      27.126  -2.066  53.007  1.00  0.00    -0.225 NA
ENDBRANCH  16  18
ENDBRANCH   4  16
TORSDOF 4
ENDMDL
