MODEL 1
REMARK VINA RESULT:      -8.3      0.000      0.000
REMARK  6 active torsions:
REMARK  status: ('A' for Active; 'I' for Inactive)
REMARK    1  A    between atoms: N1_5  and  C5_6 
REMARK    2  A    between atoms: C5_6  and  C6_7 
REMARK    3  A    between atoms: C6_7  and  O1_8 
REMARK    4  A    between atoms: C6_7  and  C7_9 
REMARK    5  A    between atoms: C7_9  and  N2_10 
REMARK    6  A    between atoms: C12_16  and  C14_19 
ROOT
HETATM    1  C1  UNL     1      18.356   4.402  50.803  1.00  0.00     0.067 C 
HETATM    2  C2  UNL     1      19.646   3.905  51.271  1.00  0.00     0.001 C 
HETATM    3  C3  UNL     1      20.740   4.601  51.520  1.00  0.00     0.027 C 
HETATM    4  C4  UNL     1      22.078   4.099  52.003  1.00  0.00     0.306 C 
HETATM    5  N1  UNL     1      22.246   2.717  52.049  1.00  0.00     0.131 NA
HETATM    6  C12 UNL     1      21.143   1.862  51.658  1.00  0.00     0.293 C 
HETATM    7  C13 UNL     1      21.578   1.315  50.309  1.00  0.00     0.461 C 
HETATM    8  O3  UNL     1      21.867   0.899  49.185  1.00  0.00    -0.426 OA
HETATM    9  N4  UNL     1      19.878   2.524  51.526  1.00  0.00    -0.353 N 
HETATM   10  H27 UNL     1      19.055   1.884  51.636  1.00  0.00     0.162 HD
ENDROOT
BRANCH   6  11
HETATM   11  C14 UNL     1      21.039   0.725  52.632  1.00  0.00     0.036 A 
HETATM   12  C15 UNL     1      21.828   0.185  53.547  1.00  0.00     0.089 A 
HETATM   13  C16 UNL     1      21.237  -0.944  54.254  1.00  0.00     0.252 A 
HETATM   14  O4  UNL     1      21.823  -1.587  55.151  1.00  0.00    -0.268 OA
HETATM   15  N3  UNL     1      19.944  -1.086  53.690  1.00  0.00    -0.289 N 
HETATM   16  C17 UNL     1      18.936  -2.028  54.003  1.00  0.00     0.099 A 
HETATM   17  C21 UNL     1      19.798  -0.080  52.698  1.00  0.00     0.052 A 
HETATM   18  C18 UNL     1      17.786  -2.013  53.368  1.00  0.00     0.032 A 
HETATM   19  C19 UNL     1      17.481  -1.024  52.303  1.00  0.00     0.219 A 
HETATM   20  F1  UNL     1      16.294  -0.400  52.605  1.00  0.00    -0.241 F 
HETATM   21  C20 UNL     1      18.606  -0.108  52.073  1.00  0.00     0.044 A 
ENDBRANCH   6  11
BRANCH   5  22
HETATM   22  C5  UNL     1      23.482   2.281  51.473  1.00  0.00     0.309 C 
BRANCH  22  23
HETATM   23  C6  UNL     1      24.701   2.233  52.302  1.00  0.00     0.174 C 
BRANCH  23  24
HETATM   24  O1  UNL     1      24.765   3.057  53.395  1.00  0.00    -0.392 OA
HETATM   25  H10 UNL     1      25.680   3.210  53.723  1.00  0.00     0.210 HD
ENDBRANCH  23  24
BRANCH  23  26
HETATM   26  C7  UNL     1      26.025   2.074  51.633  1.00  0.00     0.305 C 
BRANCH  26  27
HETATM   27  N2  UNL     1      26.817   0.953  52.005  1.00  0.00     0.095 N 
HETATM   28  C8  UNL     1      25.973  -0.146  52.511  1.00  0.00     0.298 C 
HETATM   29  C9  UNL     1      26.934  -1.274  52.849  1.00  0.00     0.198 C 
HETATM   30  O2  UNL     1      27.576  -0.927  54.034  1.00  0.00    -0.388 OA
HETATM   31  C10 UNL     1      27.581   0.419  54.275  1.00  0.00     0.198 C 
HETATM   32  C11 UNL     1      27.795   1.282  53.043  1.00  0.00     0.298 C 
ENDBRANCH  26  27
ENDBRANCH  23  26
ENDBRANCH  22  23
ENDBRANCH   5  22
TORSDOF 6
ENDMDL
MODEL 2
REMARK VINA RESULT:      -8.2      5.312      8.317
REMARK  6 active torsions:
REMARK  status: ('A' for Active; 'I' for Inactive)
REMARK    1  A    between atoms: N1_5  and  C5_6 
REMARK    2  A    between atoms: C5_6  and  C6_7 
REMARK    3  A    between atoms: C6_7  and  O1_8 
REMARK    4  A    between atoms: C6_7  and  C7_9 
REMARK    5  A    between atoms: C7_9  and  N2_10 
REMARK    6  A    between atoms: C12_16  and  C14_19 
ROOT
HETATM    1  C1  UNL     1      21.856   6.269  47.021  1.00  0.00     0.067 C 
HETATM    2  C2  UNL     1      22.773   5.446  47.804  1.00  0.00     0.001 C 
HETATM    3  C3  UNL     1      22.595   4.204  48.215  1.00  0.00     0.027 C 
HETATM    4  C4  UNL     1      23.533   3.343  49.023  1.00  0.00     0.306 C 
HETATM    5  N1  UNL     1      24.665   3.970  49.541  1.00  0.00     0.131 NA
HETATM    6  C12 UNL     1      24.879   5.376  49.261  1.00  0.00     0.293 C 
HETATM    7  C13 UNL     1      24.575   6.053  50.587  1.00  0.00     0.461 C 
HETATM    8  O3  UNL     1      24.277   6.644  51.627  1.00  0.00    -0.426 OA
HETATM    9  N4  UNL     1      24.041   5.926  48.235  1.00  0.00    -0.353 N 
HETATM   10  H27 UNL     1      24.444   6.778  47.774  1.00  0.00     0.162 HD
ENDROOT
BRANCH   6  11
HETATM   11  C14 UNL     1      26.326   5.591  48.926  1.00  0.00     0.036 A 
HETATM   12  C15 UNL     1      27.367   4.815  48.675  1.00  0.00     0.089 A 
HETATM   13  C16 UNL     1      28.599   5.540  48.394  1.00  0.00     0.252 A 
HETATM   14  O4  UNL     1      29.688   4.986  48.135  1.00  0.00    -0.268 OA
HETATM   15  N3  UNL     1      28.242   6.909  48.489  1.00  0.00    -0.289 N 
HETATM   16  C17 UNL     1      29.054   8.054  48.311  1.00  0.00     0.099 A 
HETATM   17  C21 UNL     1      26.860   6.967  48.813  1.00  0.00     0.052 A 
HETATM   18  C18 UNL     1      28.549   9.259  48.443  1.00  0.00     0.032 A 
HETATM   19  C19 UNL     1      27.120   9.487  48.782  1.00  0.00     0.219 A 
HETATM   20  F1  UNL     1      26.576  10.343  47.853  1.00  0.00    -0.241 F 
HETATM   21  C20 UNL     1      26.391   8.222  48.942  1.00  0.00     0.044 A 
ENDBRANCH   6  11
BRANCH   5  22
HETATM   22  C5  UNL     1      24.896   3.665  50.920  1.00  0.00     0.309 C 
BRANCH  22  23
HETATM   23  C6  UNL     1      24.905   2.260  51.369  1.00  0.00     0.174 C 
BRANCH  23  24
HETATM   24  O1  UNL     1      23.957   1.874  52.280  1.00  0.00    -0.392 OA
HETATM   25  H10 UNL     1      24.329   1.621  53.156  1.00  0.00     0.210 HD
ENDBRANCH  23  24
BRANCH  23  26
HETATM   26  C7  UNL     1      26.215   1.579  51.588  1.00  0.00     0.305 C 
BRANCH  26  27
HETATM   27  N2  UNL     1      26.319   0.702  52.703  1.00  0.00     0.095 N 
HETATM   28  C8  UNL     1      27.100   1.320  53.791  1.00  0.00     0.298 C 
HETATM   29  C9  UNL     1      27.115   0.296  54.913  1.00  0.00     0.198 C 
HETATM   30  O2  UNL     1      28.008  -0.706  54.544  1.00  0.00    -0.388 OA
HETATM   31  C10 UNL     1      28.208  -0.785  53.194  1.00  0.00     0.198 C 
HETATM   32  C11 UNL     1      26.960  -0.566  52.355  1.00  0.00     0.298 C 
ENDBRANCH  26  27
ENDBRANCH  23  26
ENDBRANCH  22  23
ENDBRANCH   5  22
TORSDOF 6
ENDMDL
MODEL 3
REMARK VINA RESULT:      -8.1      3.357      5.431
REMARK  6 active torsions:
REMARK  status: ('A' for Active; 'I' for Inactive)
REMARK    1  A    between atoms: N1_5  and  C5_6 
REMARK    2  A    between atoms: C5_6  and  C6_7 
REMARK    3  A    between atoms: C6_7  and  O1_8 
REMARK    4  A    between atoms: C6_7  and  C7_9 
REMARK    5  A    between atoms: C7_9  and  N2_10 
REMARK    6  A    between atoms: C12_16  and  C14_19 
ROOT
HETATM    1  C1  UNL     1      19.075   0.263  51.120  1.00  0.00     0.067 C 
HETATM    2  C2  UNL     1      20.034   1.334  51.378  1.00  0.00     0.001 C 
HETATM    3  C3  UNL     1      19.784   2.562  51.793  1.00  0.00     0.027 C 
HETATM    4  C4  UNL     1      20.764   3.676  52.062  1.00  0.00     0.306 C 
HETATM    5  N1  UNL     1      22.086   3.448  51.685  1.00  0.00     0.131 NA
HETATM    6  C12 UNL     1      22.437   2.175  51.087  1.00  0.00     0.293 C 
HETATM    7  C13 UNL     1      22.658   2.517  49.624  1.00  0.00     0.461 C 
HETATM    8  O3  UNL     1      22.786   2.744  48.418  1.00  0.00    -0.426 OA
HETATM    9  N4  UNL     1      21.435   1.155  51.199  1.00  0.00    -0.353 N 
HETATM   10  H27 UNL     1      21.818   0.181  51.135  1.00  0.00     0.162 HD
ENDROOT
BRANCH   6  11
HETATM   11  C14 UNL     1      23.733   1.701  51.677  1.00  0.00     0.036 A 
HETATM   12  C15 UNL     1      25.015   1.955  51.477  1.00  0.00     0.089 A 
HETATM   13  C16 UNL     1      25.916   1.206  52.343  1.00  0.00     0.252 A 
HETATM   14  O4  UNL     1      27.160   1.307  52.306  1.00  0.00    -0.268 OA
HETATM   15  N3  UNL     1      25.062   0.416  53.153  1.00  0.00    -0.289 N 
HETATM   16  C17 UNL     1      25.405  -0.505  54.172  1.00  0.00     0.099 A 
HETATM   17  C21 UNL     1      23.725   0.699  52.766  1.00  0.00     0.052 A 
HETATM   18  C18 UNL     1      24.471  -1.159  54.824  1.00  0.00     0.032 A 
HETATM   19  C19 UNL     1      23.025  -0.974  54.535  1.00  0.00     0.219 A 
HETATM   20  F1  UNL     1      22.373  -0.682  55.710  1.00  0.00    -0.241 F 
HETATM   21  C20 UNL     1      22.805   0.001  53.459  1.00  0.00     0.044 A 
ENDBRANCH   6  11
BRANCH   5  22
HETATM   22  C5  UNL     1      22.663   4.545  50.968  1.00  0.00     0.309 C 
BRANCH  22  23
HETATM   23  C6  UNL     1      23.680   5.393  51.618  1.00  0.00     0.174 C 
BRANCH  23  24
HETATM   24  O1  UNL     1      23.760   5.361  52.986  1.00  0.00    -0.392 OA
HETATM   25  H10 UNL     1      23.616   4.466  53.370  1.00  0.00     0.210 HD
ENDBRANCH  23  24
BRANCH  23  26
HETATM   26  C7  UNL     1      23.950   6.752  51.065  1.00  0.00     0.305 C 
BRANCH  26  27
HETATM   27  N2  UNL     1      25.287   7.049  50.682  1.00  0.00     0.095 N 
HETATM   28  C8  UNL     1      25.375   8.387  50.065  1.00  0.00     0.298 C 
HETATM   29  C9  UNL     1      26.843   8.582  49.726  1.00  0.00     0.198 C 
HETATM   30  O2  UNL     1      27.114   7.805  48.603  1.00  0.00    -0.388 OA
HETATM   31  C10 UNL     1      26.239   6.768  48.438  1.00  0.00     0.198 C 
HETATM   32  C11 UNL     1      25.821   6.079  49.725  1.00  0.00     0.298 C 
ENDBRANCH  26  27
ENDBRANCH  23  26
ENDBRANCH  22  23
ENDBRANCH   5  22
TORSDOF 6
ENDMDL
MODEL 4
REMARK VINA RESULT:      -8.0      2.590      5.732
REMARK  6 active torsions:
REMARK  status: ('A' for Active; 'I' for Inactive)
REMARK    1  A    between atoms: N1_5  and  C5_6 
REMARK    2  A    between atoms: C5_6  and  C6_7 
REMARK    3  A    between atoms: C6_7  and  O1_8 
REMARK    4  A    between atoms: C6_7  and  C7_9 
REMARK    5  A    between atoms: C7_9  and  N2_10 
REMARK    6  A    between atoms: C12_16  and  C14_19 
ROOT
HETATM    1  C1  UNL     1      25.582  -0.760  55.022  1.00  0.00     0.067 C 
HETATM    2  C2  UNL     1      25.599   0.056  53.811  1.00  0.00     0.001 C 
HETATM    3  C3  UNL     1      26.639   0.370  53.061  1.00  0.00     0.027 C 
HETATM    4  C4  UNL     1      26.670   1.212  51.811  1.00  0.00     0.306 C 
HETATM    5  N1  UNL     1      25.491   1.876  51.476  1.00  0.00     0.131 NA
HETATM    6  C12 UNL     1      24.325   1.706  52.321  1.00  0.00     0.293 C 
HETATM    7  C13 UNL     1      24.217   3.035  53.049  1.00  0.00     0.461 C 
HETATM    8  O3  UNL     1      24.132   4.075  53.705  1.00  0.00    -0.426 OA
HETATM    9  N4  UNL     1      24.416   0.638  53.275  1.00  0.00    -0.353 N 
HETATM   10  H27 UNL     1      23.484   0.274  53.588  1.00  0.00     0.162 HD
ENDROOT
BRANCH   6  11
HETATM   11  C14 UNL     1      23.116   1.528  51.452  1.00  0.00     0.036 A 
HETATM   12  C15 UNL     1      22.808   1.783  50.191  1.00  0.00     0.089 A 
HETATM   13  C16 UNL     1      21.450   1.408  49.819  1.00  0.00     0.252 A 
HETATM   14  O4  UNL     1      20.972   1.569  48.676  1.00  0.00    -0.268 OA
HETATM   15  N3  UNL     1      20.889   0.866  51.002  1.00  0.00    -0.289 N 
HETATM   16  C17 UNL     1      19.590   0.344  51.213  1.00  0.00     0.099 A 
HETATM   17  C21 UNL     1      21.885   0.928  52.014  1.00  0.00     0.052 A 
HETATM   18  C18 UNL     1      19.238  -0.119  52.391  1.00  0.00     0.032 A 
HETATM   19  C19 UNL     1      20.166  -0.122  53.550  1.00  0.00     0.219 A 
HETATM   20  F1  UNL     1      20.219  -1.393  54.072  1.00  0.00    -0.241 F 
HETATM   21  C20 UNL     1      21.475   0.446  53.202  1.00  0.00     0.044 A 
ENDBRANCH   6  11
BRANCH   5  22
HETATM   22  C5  UNL     1      25.697   3.250  51.131  1.00  0.00     0.309 C 
BRANCH  22  23
HETATM   23  C6  UNL     1      25.803   3.643  49.714  1.00  0.00     0.174 C 
BRANCH  23  24
HETATM   24  O1  UNL     1      27.055   3.706  49.159  1.00  0.00    -0.392 OA
HETATM   25  H10 UNL     1      27.662   2.996  49.470  1.00  0.00     0.210 HD
ENDBRANCH  23  24
BRANCH  23  26
HETATM   26  C7  UNL     1      24.894   4.701  49.187  1.00  0.00     0.305 C 
BRANCH  26  27
HETATM   27  N2  UNL     1      24.137   5.446  50.134  1.00  0.00     0.095 N 
HETATM   28  C8  UNL     1      22.786   5.739  49.618  1.00  0.00     0.298 C 
HETATM   29  C9  UNL     1      22.088   6.511  50.725  1.00  0.00     0.198 C 
HETATM   30  O2  UNL     1      22.609   7.802  50.718  1.00  0.00    -0.388 OA
HETATM   31  C10 UNL     1      23.851   7.883  50.152  1.00  0.00     0.198 C 
HETATM   32  C11 UNL     1      24.772   6.719  50.475  1.00  0.00     0.298 C 
ENDBRANCH  26  27
ENDBRANCH  23  26
ENDBRANCH  22  23
ENDBRANCH   5  22
TORSDOF 6
ENDMDL
MODEL 5
REMARK VINA RESULT:      -7.8      3.154      6.759
REMARK  6 active torsions:
REMARK  status: ('A' for Active; 'I' for Inactive)
REMARK    1  A    between atoms: N1_5  and  C5_6 
REMARK    2  A    between atoms: C5_6  and  C6_7 
REMARK    3  A    between atoms: C6_7  and  O1_8 
REMARK    4  A    between atoms: C6_7  and  C7_9 
REMARK    5  A    between atoms: C7_9  and  N2_10 
REMARK    6  A    between atoms: C12_16  and  C14_19 
ROOT
HETATM    1  C1  UNL     1      26.734   4.138  49.257  1.00  0.00     0.067 C 
HETATM    2  C2  UNL     1      25.370   3.796  49.650  1.00  0.00     0.001 C 
HETATM    3  C3  UNL     1      24.254   4.014  48.979  1.00  0.00     0.027 C 
HETATM    4  C4  UNL     1      22.841   3.667  49.375  1.00  0.00     0.306 C 
HETATM    5  N1  UNL     1      22.655   3.198  50.673  1.00  0.00     0.131 NA
HETATM    6  C12 UNL     1      23.808   3.055  51.541  1.00  0.00     0.293 C 
HETATM    7  C13 UNL     1      23.656   4.203  52.525  1.00  0.00     0.461 C 
HETATM    8  O3  UNL     1      23.602   5.158  53.302  1.00  0.00    -0.426 OA
HETATM    9  N4  UNL     1      25.078   3.147  50.883  1.00  0.00    -0.353 N 
HETATM   10  H27 UNL     1      25.855   2.669  51.401  1.00  0.00     0.162 HD
ENDROOT
BRANCH   6  11
HETATM   11  C14 UNL     1      23.697   1.758  52.287  1.00  0.00     0.036 A 
HETATM   12  C15 UNL     1      22.762   0.838  52.458  1.00  0.00     0.089 A 
HETATM   13  C16 UNL     1      23.167  -0.275  53.306  1.00  0.00     0.252 A 
HETATM   14  O4  UNL     1      22.425  -1.241  53.587  1.00  0.00    -0.268 OA
HETATM   15  N3  UNL     1      24.502   0.022  53.679  1.00  0.00    -0.289 N 
HETATM   16  C17 UNL     1      25.382  -0.722  54.500  1.00  0.00     0.099 A 
HETATM   17  C21 UNL     1      24.849   1.258  53.071  1.00  0.00     0.052 A 
HETATM   18  C18 UNL     1      26.598  -0.287  54.744  1.00  0.00     0.032 A 
HETATM   19  C19 UNL     1      27.110   0.989  54.182  1.00  0.00     0.219 A 
HETATM   20  F1  UNL     1      28.301   0.743  53.540  1.00  0.00    -0.241 F 
HETATM   21  C20 UNL     1      26.102   1.663  53.354  1.00  0.00     0.044 A 
ENDBRANCH   6  11
BRANCH   5  22
HETATM   22  C5  UNL     1      21.561   3.828  51.347  1.00  0.00     0.309 C 
BRANCH  22  23
HETATM   23  C6  UNL     1      20.180   3.379  51.085  1.00  0.00     0.174 C 
BRANCH  23  24
HETATM   24  O1  UNL     1      19.276   4.312  50.650  1.00  0.00    -0.392 OA
HETATM   25  H10 UNL     1      18.361   3.962  50.556  1.00  0.00     0.210 HD
ENDBRANCH  23  24
BRANCH  23  26
HETATM   26  C7  UNL     1      19.563   2.370  51.995  1.00  0.00     0.305 C 
BRANCH  26  27
HETATM   27  N2  UNL     1      19.032   1.191  51.401  1.00  0.00     0.095 N 
HETATM   28  C8  UNL     1      17.589   1.341  51.127  1.00  0.00     0.298 C 
HETATM   29  C9  UNL     1      17.160   0.034  50.483  1.00  0.00     0.198 C 
HETATM   30  O2  UNL     1      17.093  -0.921  51.495  1.00  0.00    -0.388 OA
HETATM   31  C10 UNL     1      17.863  -0.614  52.582  1.00  0.00     0.198 C 
HETATM   32  C11 UNL     1      19.206   0.013  52.251  1.00  0.00     0.298 C 
ENDBRANCH  26  27
ENDBRANCH  23  26
ENDBRANCH  22  23
ENDBRANCH   5  22
TORSDOF 6
ENDMDL
MODEL 6
REMARK VINA RESULT:      -7.7      5.170      8.254
REMARK  6 active torsions:
REMARK  status: ('A' for Active; 'I' for Inactive)
REMARK    1  A    between atoms: N1_5  and  C5_6 
REMARK    2  A    between atoms: C5_6  and  C6_7 
REMARK    3  A    between atoms: C6_7  and  O1_8 
REMARK    4  A    between atoms: C6_7  and  C7_9 
REMARK    5  A    between atoms: C7_9  and  N2_10 
REMARK    6  A    between atoms: C12_16  and  C14_19 
ROOT
HETATM    1  C1  UNL     1      21.527   5.141  47.187  1.00  0.00     0.067 C 
HETATM    2  C2  UNL     1      22.549   4.584  48.069  1.00  0.00     0.001 C 
HETATM    3  C3  UNL     1      22.515   3.441  48.727  1.00  0.00     0.027 C 
HETATM    4  C4  UNL     1      23.563   2.856  49.640  1.00  0.00     0.306 C 
HETATM    5  N1  UNL     1      24.639   3.679  49.963  1.00  0.00     0.131 NA
HETATM    6  C12 UNL     1      24.697   5.013  49.398  1.00  0.00     0.293 C 
HETATM    7  C13 UNL     1      24.367   5.913  50.577  1.00  0.00     0.461 C 
HETATM    8  O3  UNL     1      24.043   6.672  51.493  1.00  0.00    -0.426 OA
HETATM    9  N4  UNL     1      23.774   5.260  48.328  1.00  0.00    -0.353 N 
HETATM   10  H27 UNL     1      24.071   6.035  47.687  1.00  0.00     0.162 HD
ENDROOT
BRANCH   6  11
HETATM   11  C14 UNL     1      26.102   5.292  48.952  1.00  0.00     0.036 A 
HETATM   12  C15 UNL     1      27.236   4.614  48.910  1.00  0.00     0.089 A 
HETATM   13  C16 UNL     1      28.361   5.363  48.366  1.00  0.00     0.252 A 
HETATM   14  O4  UNL     1      29.514   4.897  48.245  1.00  0.00    -0.268 OA
HETATM   15  N3  UNL     1      27.826   6.637  48.047  1.00  0.00    -0.289 N 
HETATM   16  C17 UNL     1      28.479   7.761  47.488  1.00  0.00     0.099 A 
HETATM   17  C21 UNL     1      26.449   6.620  48.396  1.00  0.00     0.052 A 
HETATM   18  C18 UNL     1      27.818   8.874  47.262  1.00  0.00     0.032 A 
HETATM   19  C19 UNL     1      26.373   9.015  47.573  1.00  0.00     0.219 A 
HETATM   20  F1  UNL     1      25.719   9.462  46.449  1.00  0.00    -0.241 F 
HETATM   21  C20 UNL     1      25.817   7.783  48.149  1.00  0.00     0.044 A 
ENDBRANCH   6  11
BRANCH   5  22
HETATM   22  C5  UNL     1      24.945   3.684  51.361  1.00  0.00     0.309 C 
BRANCH  22  23
HETATM   23  C6  UNL     1      25.730   2.581  51.945  1.00  0.00     0.174 C 
BRANCH  23  24
HETATM   24  O1  UNL     1      26.494   1.822  51.098  1.00  0.00    -0.392 OA
HETATM   25  H10 UNL     1      25.967   1.263  50.482  1.00  0.00     0.210 HD
ENDBRANCH  23  24
BRANCH  23  26
HETATM   26  C7  UNL     1      25.134   1.774  53.050  1.00  0.00     0.305 C 
BRANCH  26  27
HETATM   27  N2  UNL     1      24.254   0.717  52.688  1.00  0.00     0.095 N 
HETATM   28  C8  UNL     1      22.844   1.125  52.847  1.00  0.00     0.298 C 
HETATM   29  C9  UNL     1      22.022  -0.076  52.412  1.00  0.00     0.198 C 
HETATM   30  O2  UNL     1      22.095  -1.017  53.435  1.00  0.00    -0.388 OA
HETATM   31  C10 UNL     1      23.195  -0.868  54.233  1.00  0.00     0.198 C 
HETATM   32  C11 UNL     1      24.466  -0.485  53.494  1.00  0.00     0.298 C 
ENDBRANCH  26  27
ENDBRANCH  23  26
ENDBRANCH  22  23
ENDBRANCH   5  22
TORSDOF 6
ENDMDL
MODEL 7
REMARK VINA RESULT:      -7.7      4.189      6.861
REMARK  6 active torsions:
REMARK  status: ('A' for Active; 'I' for Inactive)
REMARK    1  A    between atoms: N1_5  and  C5_6 
REMARK    2  A    between atoms: C5_6  and  C6_7 
REMARK    3  A    between atoms: C6_7  and  O1_8 
REMARK    4  A    between atoms: C6_7  and  C7_9 
REMARK    5  A    between atoms: C7_9  and  N2_10 
REMARK    6  A    between atoms: C12_16  and  C14_19 
ROOT
HETATM    1  C1  UNL     1      20.263   3.368  46.860  1.00  0.00     0.067 C 
HETATM    2  C2  UNL     1      21.156   3.080  47.979  1.00  0.00     0.001 C 
HETATM    3  C3  UNL     1      21.123   2.042  48.795  1.00  0.00     0.027 C 
HETATM    4  C4  UNL     1      22.037   1.734  49.953  1.00  0.00     0.306 C 
HETATM    5  N1  UNL     1      22.938   2.732  50.320  1.00  0.00     0.131 NA
HETATM    6  C12 UNL     1      22.955   3.972  49.570  1.00  0.00     0.293 C 
HETATM    7  C13 UNL     1      22.315   4.970  50.518  1.00  0.00     0.461 C 
HETATM    8  O3  UNL     1      21.743   5.796  51.235  1.00  0.00    -0.426 OA
HETATM    9  N4  UNL     1      22.229   3.945  48.333  1.00  0.00    -0.353 N 
HETATM   10  H27 UNL     1      22.556   4.659  47.638  1.00  0.00     0.162 HD
ENDROOT
BRANCH   6  11
HETATM   11  C14 UNL     1      24.381   4.376  49.330  1.00  0.00     0.036 A 
HETATM   12  C15 UNL     1      25.566   3.809  49.484  1.00  0.00     0.089 A 
HETATM   13  C16 UNL     1      26.687   4.651  49.089  1.00  0.00     0.252 A 
HETATM   14  O4  UNL     1      27.883   4.296  49.160  1.00  0.00    -0.268 OA
HETATM   15  N3  UNL     1      26.092   5.860  48.648  1.00  0.00    -0.289 N 
HETATM   16  C17 UNL     1      26.716   7.030  48.153  1.00  0.00     0.099 A 
HETATM   17  C21 UNL     1      24.685   5.718  48.785  1.00  0.00     0.052 A 
HETATM   18  C18 UNL     1      25.999   8.068  47.789  1.00  0.00     0.032 A 
HETATM   19  C19 UNL     1      24.516   8.075  47.874  1.00  0.00     0.219 A 
HETATM   20  F1  UNL     1      24.004   8.433  46.649  1.00  0.00    -0.241 F 
HETATM   21  C20 UNL     1      23.995   6.809  48.404  1.00  0.00     0.044 A 
ENDBRANCH   6  11
BRANCH   5  22
HETATM   22  C5  UNL     1      22.973   2.967  51.731  1.00  0.00     0.309 C 
BRANCH  22  23
HETATM   23  C6  UNL     1      24.116   2.484  52.528  1.00  0.00     0.174 C 
BRANCH  23  24
HETATM   24  O1  UNL     1      24.915   3.418  53.133  1.00  0.00    -0.392 OA
HETATM   25  H10 UNL     1      25.688   3.690  52.587  1.00  0.00     0.210 HD
ENDBRANCH  23  24
BRANCH  23  26
HETATM   26  C7  UNL     1      24.888   1.303  52.043  1.00  0.00     0.305 C 
BRANCH  26  27
HETATM   27  N2  UNL     1      25.799   0.697  52.952  1.00  0.00     0.095 N 
HETATM   28  C8  UNL     1      27.185   0.794  52.455  1.00  0.00     0.298 C 
HETATM   29  C9  UNL     1      28.045   0.133  53.520  1.00  0.00     0.198 C 
HETATM   30  O2  UNL     1      27.865  -1.242  53.399  1.00  0.00    -0.388 OA
HETATM   31  C10 UNL     1      26.689  -1.584  52.792  1.00  0.00     0.198 C 
HETATM   32  C11 UNL     1      25.501  -0.718  53.177  1.00  0.00     0.298 C 
ENDBRANCH  26  27
ENDBRANCH  23  26
ENDBRANCH  22  23
ENDBRANCH   5  22
TORSDOF 6
ENDMDL
MODEL 8
REMARK VINA RESULT:      -7.7      3.501      6.937
REMARK  6 active torsions:
REMARK  status: ('A' for Active; 'I' for Inactive)
REMARK    1  A    between atoms: N1_5  and  C5_6 
REMARK    2  A    between atoms: C5_6  and  C6_7 
REMARK    3  A    between atoms: C6_7  and  O1_8 
REMARK    4  A    between atoms: C6_7  and  C7_9 
REMARK    5  A    between atoms: C7_9  and  N2_10 
REMARK    6  A    between atoms: C12_16  and  C14_19 
ROOT
HETATM    1  C1  UNL     1      26.795   4.006  49.322  1.00  0.00     0.067 C 
HETATM    2  C2  UNL     1      25.403   3.767  49.692  1.00  0.00     0.001 C 
HETATM    3  C3  UNL     1      24.317   4.121  49.029  1.00  0.00     0.027 C 
HETATM    4  C4  UNL     1      22.875   3.881  49.401  1.00  0.00     0.306 C 
HETATM    5  N1  UNL     1      22.636   3.362  50.671  1.00  0.00     0.131 NA
HETATM    6  C12 UNL     1      23.764   3.070  51.534  1.00  0.00     0.293 C 
HETATM    7  C13 UNL     1      23.708   4.172  52.578  1.00  0.00     0.461 C 
HETATM    8  O3  UNL     1      23.733   5.086  53.406  1.00  0.00    -0.426 OA
HETATM    9  N4  UNL     1      25.044   3.082  50.887  1.00  0.00    -0.353 N 
HETATM   10  H27 UNL     1      25.770   2.510  51.381  1.00  0.00     0.162 HD
ENDROOT
BRANCH   6  11
HETATM   11  C14 UNL     1      23.532   1.750  52.209  1.00  0.00     0.036 A 
HETATM   12  C15 UNL     1      22.573   0.839  52.206  1.00  0.00     0.089 A 
HETATM   13  C16 UNL     1      22.836  -0.309  53.064  1.00  0.00     0.252 A 
HETATM   14  O4  UNL     1      22.053  -1.272  53.197  1.00  0.00    -0.268 OA
HETATM   15  N3  UNL     1      24.104  -0.044  53.642  1.00  0.00    -0.289 N 
HETATM   16  C17 UNL     1      24.845  -0.828  54.558  1.00  0.00     0.099 A 
HETATM   17  C21 UNL     1      24.550   1.207  53.137  1.00  0.00     0.052 A 
HETATM   18  C18 UNL     1      26.015  -0.419  54.994  1.00  0.00     0.032 A 
HETATM   19  C19 UNL     1      26.617   0.868  54.561  1.00  0.00     0.219 A 
HETATM   20  F1  UNL     1      27.888   0.627  54.095  1.00  0.00    -0.241 F 
HETATM   21  C20 UNL     1      25.750   1.584  53.617  1.00  0.00     0.044 A 
ENDBRANCH   6  11
BRANCH   5  22
HETATM   22  C5  UNL     1      21.597   4.051  51.375  1.00  0.00     0.309 C 
BRANCH  22  23
HETATM   23  C6  UNL     1      20.227   3.506  51.378  1.00  0.00     0.174 C 
BRANCH  23  24
HETATM   24  O1  UNL     1      19.655   3.219  52.590  1.00  0.00    -0.392 OA
HETATM   25  H10 UNL     1      19.625   2.257  52.795  1.00  0.00     0.210 HD
ENDBRANCH  23  24
BRANCH  23  26
HETATM   26  C7  UNL     1      19.834   2.531  50.319  1.00  0.00     0.305 C 
BRANCH  26  27
HETATM   27  N2  UNL     1      19.035   3.016  49.246  1.00  0.00     0.095 N 
HETATM   28  C8  UNL     1      19.718   2.827  47.951  1.00  0.00     0.298 C 
HETATM   29  C9  UNL     1      18.757   3.362  46.903  1.00  0.00     0.198 C 
HETATM   30  O2  UNL     1      18.803   4.752  46.974  1.00  0.00    -0.388 OA
HETATM   31  C10 UNL     1      19.233   5.219  48.185  1.00  0.00     0.198 C 
HETATM   32  C11 UNL     1      18.722   4.439  49.384  1.00  0.00     0.298 C 
ENDBRANCH  26  27
ENDBRANCH  23  26
ENDBRANCH  22  23
ENDBRANCH   5  22
TORSDOF 6
ENDMDL
MODEL 9
REMARK VINA RESULT:      -7.7      3.564      5.277
REMARK  6 active torsions:
REMARK  status: ('A' for Active; 'I' for Inactive)
REMARK    1  A    between atoms: N1_5  and  C5_6 
REMARK    2  A    between atoms: C5_6  and  C6_7 
REMARK    3  A    between atoms: C6_7  and  O1_8 
REMARK    4  A    between atoms: C6_7  and  C7_9 
REMARK    5  A    between atoms: C7_9  and  N2_10 
REMARK    6  A    between atoms: C12_16  and  C14_19 
ROOT
HETATM    1  C1  UNL     1      21.123   1.526  48.235  1.00  0.00     0.067 C 
HETATM    2  C2  UNL     1      21.736   2.167  49.395  1.00  0.00     0.001 C 
HETATM    3  C3  UNL     1      21.379   3.296  49.979  1.00  0.00     0.027 C 
HETATM    4  C4  UNL     1      22.004   3.969  51.175  1.00  0.00     0.306 C 
HETATM    5  N1  UNL     1      23.201   3.428  51.640  1.00  0.00     0.131 NA
HETATM    6  C12 UNL     1      23.752   2.264  50.974  1.00  0.00     0.293 C 
HETATM    7  C13 UNL     1      24.941   2.822  50.210  1.00  0.00     0.461 C 
HETATM    8  O3  UNL     1      25.876   3.247  49.528  1.00  0.00    -0.426 OA
HETATM    9  N4  UNL     1      22.859   1.606  50.065  1.00  0.00    -0.353 N 
HETATM   10  H27 UNL     1      23.096   0.597  49.901  1.00  0.00     0.162 HD
ENDROOT
BRANCH   6  11
HETATM   11  C14 UNL     1      24.249   1.300  52.010  1.00  0.00     0.036 A 
HETATM   12  C15 UNL     1      25.427   0.823  52.374  1.00  0.00     0.089 A 
HETATM   13  C16 UNL     1      25.373  -0.125  53.480  1.00  0.00     0.252 A 
HETATM   14  O4  UNL     1      26.378  -0.684  53.967  1.00  0.00    -0.268 OA
HETATM   15  N3  UNL     1      23.997  -0.217  53.809  1.00  0.00    -0.289 N 
HETATM   16  C17 UNL     1      23.372  -0.996  54.812  1.00  0.00     0.099 A 
HETATM   17  C21 UNL     1      23.289   0.643  52.927  1.00  0.00     0.052 A 
HETATM   18  C18 UNL     1      22.069  -0.958  54.974  1.00  0.00     0.032 A 
HETATM   19  C19 UNL     1      21.190  -0.110  54.128  1.00  0.00     0.219 A 
HETATM   20  F1  UNL     1      20.406   0.668  54.947  1.00  0.00    -0.241 F 
HETATM   21  C20 UNL     1      21.958   0.644  53.129  1.00  0.00     0.044 A 
ENDBRANCH   6  11
BRANCH   5  22
HETATM   22  C5  UNL     1      24.204   4.417  51.893  1.00  0.00     0.309 C 
BRANCH  22  23
HETATM   23  C6  UNL     1      23.944   5.829  51.555  1.00  0.00     0.174 C 
BRANCH  23  24
HETATM   24  O1  UNL     1      22.737   6.363  51.922  1.00  0.00    -0.392 OA
HETATM   25  H10 UNL     1      22.222   5.792  52.538  1.00  0.00     0.210 HD
ENDBRANCH  23  24
BRANCH  23  26
HETATM   26  C7  UNL     1      24.427   6.360  50.247  1.00  0.00     0.305 C 
BRANCH  26  27
HETATM   27  N2  UNL     1      25.703   6.988  50.226  1.00  0.00     0.095 N 
HETATM   28  C8  UNL     1      25.571   8.450  50.072  1.00  0.00     0.298 C 
HETATM   29  C9  UNL     1      26.991   8.989  50.085  1.00  0.00     0.198 C 
HETATM   30  O2  UNL     1      27.557   8.689  48.849  1.00  0.00    -0.388 OA
HETATM   31  C10 UNL     1      26.955   7.637  48.217  1.00  0.00     0.198 C 
HETATM   32  C11 UNL     1      26.546   6.497  49.135  1.00  0.00     0.298 C 
ENDBRANCH  26  27
ENDBRANCH  23  26
ENDBRANCH  22  23
ENDBRANCH   5  22
TORSDOF 6
ENDMDL
