MODEL 1
REMARK VINA RESULT:      -8.3      0.000      0.000
REMARK  3 active torsions:
REMARK  status: ('A' for Active; 'I' for Inactive)
REMARK    1  A    between atoms: C5_6  and  C6_7 
REMARK    2  A    between atoms: C6_7  and  N1_8 
REMARK    3  A    between atoms: N1_8  and  C7_9 
ROOT
HETATM    1  C7  UNL     1      23.620   1.984  52.113  1.00  0.00     0.128 A 
HETATM    2  C8  UNL     1      22.279   2.031  52.209  1.00  0.00     0.155 A 
HETATM    3  N2  UNL     1      21.409   3.045  52.356  1.00  0.00    -0.222 NA
HETATM    4  C9  UNL     1      21.922   4.316  52.423  1.00  0.00     0.238 A 
HETATM    5  N3  UNL     1      23.260   4.383  52.326  1.00  0.00    -0.215 NA
HETATM    6  C10 UNL     1      24.023   3.299  52.180  1.00  0.00     0.201 A 
HETATM    7  O1  UNL     1      25.367   3.238  52.032  1.00  0.00    -0.301 OA
HETATM    8  C11 UNL     1      26.122   2.544  51.133  1.00  0.00     0.156 C 
HETATM    9  C12 UNL     1      26.092   3.636  50.375  1.00  0.00    -0.002 C 
HETATM   10  C13 UNL     1      25.377   3.481  49.261  1.00  0.00     0.014 C 
HETATM   11  C14 UNL     1      24.018   3.065  49.329  1.00  0.00    -0.003 C 
HETATM   12  C15 UNL     1      22.809   2.543  49.466  1.00  0.00    -0.025 C 
HETATM   13  C16 UNL     1      21.506   1.868  49.674  1.00  0.00     0.047 C 
HETATM   14  C17 UNL     1      21.518   0.614  50.468  1.00  0.00     0.125 C 
HETATM   15  N4  UNL     1      21.513   0.882  51.929  1.00  0.00    -0.372 N 
HETATM   16  H17 UNL     1      21.114   0.477  52.798  1.00  0.00     0.161 HD
ENDROOT
BRANCH   1  17
HETATM   17  N1  UNL     1      24.288   0.756  52.015  1.00  0.00    -0.379 N 
HETATM   18  H7  UNL     1      24.560   0.300  51.135  1.00  0.00     0.160 HD
BRANCH  17  19
HETATM   19  C6  UNL     1      24.478   0.353  53.377  1.00  0.00     0.156 C 
BRANCH  19  20
HETATM   20  C5  UNL     1      25.911   0.100  53.625  1.00  0.00    -0.035 A 
HETATM   21  C4  UNL     1      26.829   0.687  54.345  1.00  0.00     0.051 A 
HETATM   22  C3  UNL     1      28.220   0.277  54.463  1.00  0.00     0.145 A 
HETATM   23  C2  UNL     1      28.553  -0.786  53.770  1.00  0.00     0.081 A 
HETATM   24  F1  UNL     1      29.011   1.017  55.257  1.00  0.00    -0.203 F 
HETATM   25  C1  UNL     1      29.918  -1.370  53.748  1.00  0.00     0.079 C 
HETATM   26  O2  UNL     1      27.636  -1.461  52.987  1.00  0.00    -0.348 OA
HETATM   27  C18 UNL     1      26.302  -1.104  52.837  1.00  0.00     0.211 A 
ENDBRANCH  19  20
ENDBRANCH  17  19
ENDBRANCH   1  17
TORSDOF 3
ENDMDL
MODEL 2
REMARK VINA RESULT:      -8.1      1.246      1.467
REMARK  3 active torsions:
REMARK  status: ('A' for Active; 'I' for Inactive)
REMARK    1  A    between atoms: C5_6  and  C6_7 
REMARK    2  A    between atoms: C6_7  and  N1_8 
REMARK    3  A    between atoms: N1_8  and  C7_9 
ROOT
HETATM    1  C7  UNL     1      23.221   2.068  51.977  1.00  0.00     0.128 A 
HETATM    2  C8  UNL     1      21.901   1.872  52.150  1.00  0.00     0.155 A 
HETATM    3  N2  UNL     1      20.870   2.714  52.338  1.00  0.00    -0.222 NA
HETATM    4  C9  UNL     1      21.144   4.057  52.365  1.00  0.00     0.238 A 
HETATM    5  N3  UNL     1      22.440   4.365  52.190  1.00  0.00    -0.215 NA
HETATM    6  C10 UNL     1      23.379   3.436  52.009  1.00  0.00     0.201 A 
HETATM    7  O1  UNL     1      24.702   3.618  51.784  1.00  0.00    -0.301 OA
HETATM    8  C11 UNL     1      25.520   3.057  50.849  1.00  0.00     0.156 C 
HETATM    9  C12 UNL     1      25.249   4.110  50.085  1.00  0.00    -0.002 C 
HETATM   10  C13 UNL     1      24.514   3.806  49.016  1.00  0.00     0.014 C 
HETATM   11  C14 UNL     1      23.260   3.151  49.166  1.00  0.00    -0.003 C 
HETATM   12  C15 UNL     1      22.176   2.421  49.377  1.00  0.00    -0.025 C 
HETATM   13  C16 UNL     1      21.032   1.523  49.665  1.00  0.00     0.047 C 
HETATM   14  C17 UNL     1      21.318   0.308  50.468  1.00  0.00     0.125 C 
HETATM   15  N4  UNL     1      21.344   0.597  51.925  1.00  0.00    -0.372 N 
HETATM   16  H17 UNL     1      21.075   0.143  52.819  1.00  0.00     0.161 HD
ENDROOT
BRANCH   1  17
HETATM   17  N1  UNL     1      24.096   0.981  51.851  1.00  0.00    -0.379 N 
HETATM   18  H7  UNL     1      24.387   0.558  50.961  1.00  0.00     0.160 HD
BRANCH  17  19
HETATM   19  C6  UNL     1      24.447   0.658  53.202  1.00  0.00     0.156 C 
BRANCH  19  20
HETATM   20  C5  UNL     1      25.780   0.025  53.231  1.00  0.00    -0.035 A 
HETATM   21  C4  UNL     1      26.237  -1.154  52.902  1.00  0.00     0.051 A 
HETATM   22  C3  UNL     1      27.618  -1.599  53.007  1.00  0.00     0.145 A 
HETATM   23  C2  UNL     1      28.460  -0.711  53.481  1.00  0.00     0.081 A 
HETATM   24  F1  UNL     1      27.887  -2.855  52.616  1.00  0.00    -0.203 F 
HETATM   25  C1  UNL     1      29.911  -0.960  53.672  1.00  0.00     0.079 C 
HETATM   26  O2  UNL     1      28.051   0.555  53.849  1.00  0.00    -0.348 OA
HETATM   27  C18 UNL     1      26.745   1.024  53.774  1.00  0.00     0.211 A 
ENDBRANCH  19  20
ENDBRANCH  17  19
ENDBRANCH   1  17
TORSDOF 3
ENDMDL
MODEL 3
REMARK VINA RESULT:      -8.0      1.482      2.075
REMARK  3 active torsions:
REMARK  status: ('A' for Active; 'I' for Inactive)
REMARK    1  A    between atoms: C5_6  and  C6_7 
REMARK    2  A    between atoms: C6_7  and  N1_8 
REMARK    3  A    between atoms: N1_8  and  C7_9 
ROOT
HETATM    1  C7  UNL     1      22.771   2.556  51.756  1.00  0.00     0.128 A 
HETATM    2  C8  UNL     1      21.758   2.191  52.564  1.00  0.00     0.155 A 
HETATM    3  N2  UNL     1      20.508   2.658  52.728  1.00  0.00    -0.222 NA
HETATM    4  C9  UNL     1      20.116   3.711  51.942  1.00  0.00     0.238 A 
HETATM    5  N3  UNL     1      21.054   4.148  51.086  1.00  0.00    -0.215 NA
HETATM    6  C10 UNL     1      22.268   3.600  51.013  1.00  0.00     0.201 A 
HETATM    7  O1  UNL     1      23.279   3.921  50.172  1.00  0.00    -0.301 OA
HETATM    8  C11 UNL     1      24.074   3.119  49.406  1.00  0.00     0.156 C 
HETATM    9  C12 UNL     1      23.200   3.314  48.423  1.00  0.00    -0.002 C 
HETATM   10  C13 UNL     1      22.510   2.218  48.112  1.00  0.00     0.014 C 
HETATM   11  C14 UNL     1      21.767   1.526  49.108  1.00  0.00    -0.003 C 
HETATM   12  C15 UNL     1      21.217   0.863  50.113  1.00  0.00    -0.025 C 
HETATM   13  C16 UNL     1      20.709   0.114  51.287  1.00  0.00     0.047 C 
HETATM   14  C17 UNL     1      21.678  -0.169  52.375  1.00  0.00     0.125 C 
HETATM   15  N4  UNL     1      21.838   0.988  53.293  1.00  0.00    -0.372 N 
HETATM   16  H17 UNL     1      21.987   1.171  54.304  1.00  0.00     0.161 HD
ENDROOT
BRANCH   1  17
HETATM   17  N1  UNL     1      24.014   1.913  51.832  1.00  0.00    -0.379 N 
HETATM   18  H7  UNL     1      24.319   1.144  51.223  1.00  0.00     0.160 HD
BRANCH  17  19
HETATM   19  C6  UNL     1      24.687   2.583  52.905  1.00  0.00     0.156 C 
BRANCH  19  20
HETATM   20  C5  UNL     1      25.990   1.937  53.154  1.00  0.00    -0.035 A 
HETATM   21  C4  UNL     1      27.142   2.354  53.611  1.00  0.00     0.051 A 
HETATM   22  C3  UNL     1      28.338   1.545  53.787  1.00  0.00     0.145 A 
HETATM   23  C2  UNL     1      28.218   0.283  53.448  1.00  0.00     0.081 A 
HETATM   24  F1  UNL     1      29.428   2.162  54.271  1.00  0.00    -0.203 F 
HETATM   25  C1  UNL     1      29.315  -0.712  53.547  1.00  0.00     0.079 C 
HETATM   26  O2  UNL     1      27.032  -0.230  52.960  1.00  0.00    -0.348 OA
HETATM   27  C18 UNL     1      25.867   0.503  52.766  1.00  0.00     0.211 A 
ENDBRANCH  19  20
ENDBRANCH  17  19
ENDBRANCH   1  17
TORSDOF 3
ENDMDL
MODEL 4
REMARK VINA RESULT:      -8.0      2.018      3.697
REMARK  3 active torsions:
REMARK  status: ('A' for Active; 'I' for Inactive)
REMARK    1  A    between atoms: C5_6  and  C6_7 
REMARK    2  A    between atoms: C6_7  and  N1_8 
REMARK    3  A    between atoms: N1_8  and  C7_9 
ROOT
HETATM    1  C7  UNL     1      23.321   2.183  51.456  1.00  0.00     0.128 A 
HETATM    2  C8  UNL     1      23.066   3.135  50.540  1.00  0.00     0.155 A 
HETATM    3  N2  UNL     1      22.316   3.151  49.424  1.00  0.00    -0.222 NA
HETATM    4  C9  UNL     1      21.644   2.001  49.095  1.00  0.00     0.238 A 
HETATM    5  N3  UNL     1      21.823   0.985  49.956  1.00  0.00    -0.215 NA
HETATM    6  C10 UNL     1      22.595   1.090  51.038  1.00  0.00     0.201 A 
HETATM    7  O1  UNL     1      22.822   0.160  51.995  1.00  0.00    -0.301 OA
HETATM    8  C11 UNL     1      22.794   0.271  53.354  1.00  0.00     0.156 C 
HETATM    9  C12 UNL     1      21.523  -0.115  53.286  1.00  0.00    -0.002 C 
HETATM   10  C13 UNL     1      20.664   0.852  53.607  1.00  0.00     0.014 C 
HETATM   11  C14 UNL     1      20.688   2.096  52.918  1.00  0.00    -0.003 C 
HETATM   12  C15 UNL     1      20.865   3.269  52.330  1.00  0.00    -0.025 C 
HETATM   13  C16 UNL     1      21.172   4.580  51.712  1.00  0.00     0.047 C 
HETATM   14  C17 UNL     1      22.571   5.064  51.824  1.00  0.00     0.125 C 
HETATM   15  N4  UNL     1      23.450   4.468  50.785  1.00  0.00    -0.372 N 
HETATM   16  H17 UNL     1      24.256   4.741  50.190  1.00  0.00     0.161 HD
ENDROOT
BRANCH   1  17
HETATM   17  N1  UNL     1      24.202   2.429  52.518  1.00  0.00    -0.379 N 
HETATM   18  H7  UNL     1      23.933   2.484  53.508  1.00  0.00     0.160 HD
BRANCH  17  19
HETATM   19  C6  UNL     1      25.481   2.563  51.885  1.00  0.00     0.156 C 
BRANCH  19  20
HETATM   20  C5  UNL     1      26.370   1.470  52.324  1.00  0.00    -0.035 A 
HETATM   21  C4  UNL     1      26.276   0.167  52.335  1.00  0.00     0.051 A 
HETATM   22  C3  UNL     1      27.285  -0.762  52.821  1.00  0.00     0.145 A 
HETATM   23  C2  UNL     1      28.380  -0.209  53.285  1.00  0.00     0.081 A 
HETATM   24  F1  UNL     1      26.996  -2.072  52.748  1.00  0.00    -0.203 F 
HETATM   25  C1  UNL     1      29.531  -0.974  53.830  1.00  0.00     0.079 C 
HETATM   26  O2  UNL     1      28.552   1.161  53.305  1.00  0.00    -0.348 OA
HETATM   27  C18 UNL     1      27.617   2.088  52.859  1.00  0.00     0.211 A 
ENDBRANCH  19  20
ENDBRANCH  17  19
ENDBRANCH   1  17
TORSDOF 3
ENDMDL
MODEL 5
REMARK VINA RESULT:      -7.6      3.865      5.853
REMARK  3 active torsions:
REMARK  status: ('A' for Active; 'I' for Inactive)
REMARK    1  A    between atoms: C5_6  and  C6_7 
REMARK    2  A    between atoms: C6_7  and  N1_8 
REMARK    3  A    between atoms: N1_8  and  C7_9 
ROOT
HETATM    1  C7  UNL     1      23.251   4.360  50.063  1.00  0.00     0.128 A 
HETATM    2  C8  UNL     1      23.440   4.373  51.395  1.00  0.00     0.155 A 
HETATM    3  N2  UNL     1      22.590   4.402  52.437  1.00  0.00    -0.222 NA
HETATM    4  C9  UNL     1      21.247   4.416  52.161  1.00  0.00     0.238 A 
HETATM    5  N3  UNL     1      20.948   4.394  50.851  1.00  0.00    -0.215 NA
HETATM    6  C10 UNL     1      21.884   4.364  49.902  1.00  0.00     0.201 A 
HETATM    7  O1  UNL     1      21.711   4.300  48.561  1.00  0.00    -0.301 OA
HETATM    8  C11 UNL     1      22.306   3.495  47.635  1.00  0.00     0.156 C 
HETATM    9  C12 UNL     1      21.280   2.666  47.803  1.00  0.00    -0.002 C 
HETATM   10  C13 UNL     1      21.620   1.525  48.401  1.00  0.00     0.014 C 
HETATM   11  C14 UNL     1      22.268   1.540  49.667  1.00  0.00    -0.003 C 
HETATM   12  C15 UNL     1      22.989   1.639  50.773  1.00  0.00    -0.025 C 
HETATM   13  C16 UNL     1      23.874   1.813  51.949  1.00  0.00     0.047 C 
HETATM   14  C17 UNL     1      25.061   2.687  51.773  1.00  0.00     0.125 C 
HETATM   15  N4  UNL     1      24.721   4.125  51.927  1.00  0.00    -0.372 N 
HETATM   16  H17 UNL     1      25.143   4.993  52.309  1.00  0.00     0.161 HD
ENDROOT
BRANCH   1  17
HETATM   17  N1  UNL     1      24.343   4.382  49.185  1.00  0.00    -0.379 N 
HETATM   18  H7  UNL     1      24.763   3.554  48.744  1.00  0.00     0.160 HD
BRANCH  17  19
HETATM   19  C6  UNL     1      24.677   5.771  49.079  1.00  0.00     0.156 C 
BRANCH  19  20
HETATM   20  C5  UNL     1      26.099   5.915  48.712  1.00  0.00    -0.035 A 
HETATM   21  C4  UNL     1      26.817   6.880  48.203  1.00  0.00     0.051 A 
HETATM   22  C3  UNL     1      28.240   6.828  47.907  1.00  0.00     0.145 A 
HETATM   23  C2  UNL     1      28.831   5.691  48.190  1.00  0.00     0.081 A 
HETATM   24  F1  UNL     1      28.797   7.931  47.381  1.00  0.00    -0.203 F 
HETATM   25  C1  UNL     1      30.274   5.425  47.965  1.00  0.00     0.079 C 
HETATM   26  O2  UNL     1      28.138   4.626  48.732  1.00  0.00    -0.348 OA
HETATM   27  C18 UNL     1      26.780   4.625  49.025  1.00  0.00     0.211 A 
ENDBRANCH  19  20
ENDBRANCH  17  19
ENDBRANCH   1  17
TORSDOF 3
ENDMDL
MODEL 6
REMARK VINA RESULT:      -7.5      8.244     10.864
REMARK  3 active torsions:
REMARK  status: ('A' for Active; 'I' for Inactive)
REMARK    1  A    between atoms: C5_6  and  C6_7 
REMARK    2  A    between atoms: C6_7  and  N1_8 
REMARK    3  A    between atoms: N1_8  and  C7_9 
ROOT
HETATM    1  C7  UNL     1      32.522   5.820  46.727  1.00  0.00     0.128 A 
HETATM    2  C8  UNL     1      32.496   4.742  45.921  1.00  0.00     0.155 A 
HETATM    3  N2  UNL     1      33.183   4.414  44.813  1.00  0.00    -0.222 NA
HETATM    4  C9  UNL     1      34.120   5.307  44.359  1.00  0.00     0.238 A 
HETATM    5  N3  UNL     1      34.235   6.420  45.103  1.00  0.00    -0.215 NA
HETATM    6  C10 UNL     1      33.494   6.635  46.190  1.00  0.00     0.201 A 
HETATM    7  O1  UNL     1      33.544   7.688  47.039  1.00  0.00    -0.301 OA
HETATM    8  C11 UNL     1      33.582   7.719  48.402  1.00  0.00     0.156 C 
HETATM    9  C12 UNL     1      34.907   7.751  48.291  1.00  0.00    -0.002 C 
HETATM   10  C13 UNL     1      35.496   6.634  48.716  1.00  0.00     0.014 C 
HETATM   11  C14 UNL     1      35.130   5.373  48.169  1.00  0.00    -0.003 C 
HETATM   12  C15 UNL     1      34.639   4.231  47.713  1.00  0.00    -0.025 C 
HETATM   13  C16 UNL     1      33.985   2.987  47.244  1.00  0.00     0.047 C 
HETATM   14  C17 UNL     1      32.512   2.899  47.409  1.00  0.00     0.125 C 
HETATM   15  N4  UNL     1      31.787   3.589  46.311  1.00  0.00    -0.372 N 
HETATM   16  H17 UNL     1      30.921   3.474  45.751  1.00  0.00     0.161 HD
ENDROOT
BRANCH   1  17
HETATM   17  N1  UNL     1      31.640   5.926  47.810  1.00  0.00    -0.379 N 
HETATM   18  H7  UNL     1      31.782   5.495  48.732  1.00  0.00     0.160 HD
BRANCH  17  19
HETATM   19  C6  UNL     1      30.574   6.743  47.311  1.00  0.00     0.156 C 
BRANCH  19  20
HETATM   20  C5  UNL     1      29.287   6.272  47.861  1.00  0.00    -0.035 A 
HETATM   21  C4  UNL     1      28.808   5.100  48.184  1.00  0.00     0.051 A 
HETATM   22  C3  UNL     1      27.483   4.834  48.723  1.00  0.00     0.145 A 
HETATM   23  C2  UNL     1      26.722   5.890  48.889  1.00  0.00     0.081 A 
HETATM   24  F1  UNL     1      27.177   3.555  48.991  1.00  0.00    -0.203 F 
HETATM   25  C1  UNL     1      25.337   5.841  49.424  1.00  0.00     0.079 C 
HETATM   26  O2  UNL     1      27.160   7.161  48.572  1.00  0.00    -0.348 OA
HETATM   27  C18 UNL     1      28.411   7.464  48.049  1.00  0.00     0.211 A 
ENDBRANCH  19  20
ENDBRANCH  17  19
ENDBRANCH   1  17
TORSDOF 3
ENDMDL
MODEL 7
REMARK VINA RESULT:      -7.3      2.814      4.596
REMARK  3 active torsions:
REMARK  status: ('A' for Active; 'I' for Inactive)
REMARK    1  A    between atoms: C5_6  and  C6_7 
REMARK    2  A    between atoms: C6_7  and  N1_8 
REMARK    3  A    between atoms: N1_8  and  C7_9 
ROOT
HETATM    1  C7  UNL     1      24.005   4.898  50.655  1.00  0.00     0.128 A 
HETATM    2  C8  UNL     1      24.575   6.112  50.758  1.00  0.00     0.155 A 
HETATM    3  N2  UNL     1      25.619   6.687  50.134  1.00  0.00    -0.222 NA
HETATM    4  C9  UNL     1      26.276   5.946  49.184  1.00  0.00     0.238 A 
HETATM    5  N3  UNL     1      25.775   4.714  48.993  1.00  0.00    -0.215 NA
HETATM    6  C10 UNL     1      24.728   4.252  49.677  1.00  0.00     0.201 A 
HETATM    7  O1  UNL     1      24.110   3.054  49.550  1.00  0.00    -0.301 OA
HETATM    8  C11 UNL     1      22.784   2.755  49.449  1.00  0.00     0.156 C 
HETATM    9  C12 UNL     1      22.946   2.807  48.131  1.00  0.00    -0.002 C 
HETATM   10  C13 UNL     1      22.326   3.843  47.567  1.00  0.00     0.014 C 
HETATM   11  C14 UNL     1      22.596   5.170  48.005  1.00  0.00    -0.003 C 
HETATM   12  C15 UNL     1      22.795   6.355  48.559  1.00  0.00    -0.025 C 
HETATM   13  C16 UNL     1      22.980   7.636  49.281  1.00  0.00     0.047 C 
HETATM   14  C17 UNL     1      22.749   7.621  50.747  1.00  0.00     0.125 C 
HETATM   15  N4  UNL     1      23.936   7.130  51.493  1.00  0.00    -0.372 N 
HETATM   16  H17 UNL     1      24.431   7.315  52.387  1.00  0.00     0.161 HD
ENDROOT
BRANCH   1  17
HETATM   17  N1  UNL     1      22.934   4.538  51.484  1.00  0.00    -0.379 N 
HETATM   18  H7  UNL     1      21.954   4.459  51.183  1.00  0.00     0.160 HD
BRANCH  17  19
HETATM   19  C6  UNL     1      23.542   4.320  52.763  1.00  0.00     0.156 C 
BRANCH  19  20
HETATM   20  C5  UNL     1      23.848   2.886  52.930  1.00  0.00    -0.035 A 
HETATM   21  C4  UNL     1      23.150   1.787  52.828  1.00  0.00     0.051 A 
HETATM   22  C3  UNL     1      23.644   0.434  53.037  1.00  0.00     0.145 A 
HETATM   23  C2  UNL     1      24.913   0.343  53.358  1.00  0.00     0.081 A 
HETATM   24  F1  UNL     1      22.764  -0.569  52.885  1.00  0.00    -0.203 F 
HETATM   25  C1  UNL     1      25.615  -0.940  53.616  1.00  0.00     0.079 C 
HETATM   26  O2  UNL     1      25.714   1.460  53.483  1.00  0.00    -0.348 OA
HETATM   27  C18 UNL     1      25.288   2.771  53.301  1.00  0.00     0.211 A 
ENDBRANCH  19  20
ENDBRANCH  17  19
ENDBRANCH   1  17
TORSDOF 3
ENDMDL
MODEL 8
REMARK VINA RESULT:      -7.0      8.237      9.535
REMARK  3 active torsions:
REMARK  status: ('A' for Active; 'I' for Inactive)
REMARK    1  A    between atoms: C5_6  and  C6_7 
REMARK    2  A    between atoms: C6_7  and  N1_8 
REMARK    3  A    between atoms: N1_8  and  C7_9 
ROOT
HETATM    1  C7  UNL     1      29.194   9.282  48.447  1.00  0.00     0.128 A 
HETATM    2  C8  UNL     1      28.498  10.013  49.338  1.00  0.00     0.155 A 
HETATM    3  N2  UNL     1      28.017  11.268  49.311  1.00  0.00    -0.222 NA
HETATM    4  C9  UNL     1      28.236  12.008  48.178  1.00  0.00     0.238 A 
HETATM    5  N3  UNL     1      28.917  11.364  47.215  1.00  0.00    -0.215 NA
HETATM    6  C10 UNL     1      29.345  10.109  47.357  1.00  0.00     0.201 A 
HETATM    7  O1  UNL     1      30.000   9.343  46.453  1.00  0.00    -0.301 OA
HETATM    8  C11 UNL     1      29.772   8.058  46.059  1.00  0.00     0.156 C 
HETATM    9  C12 UNL     1      29.027   8.566  45.082  1.00  0.00    -0.002 C 
HETATM   10  C13 UNL     1      27.727   8.310  45.228  1.00  0.00     0.014 C 
HETATM   11  C14 UNL     1      27.047   8.688  46.418  1.00  0.00    -0.003 C 
HETATM   12  C15 UNL     1      26.519   8.943  47.605  1.00  0.00    -0.025 C 
HETATM   13  C16 UNL     1      26.010   9.158  48.980  1.00  0.00     0.047 C 
HETATM   14  C17 UNL     1      26.790   8.552  50.088  1.00  0.00     0.125 C 
HETATM   15  N4  UNL     1      27.949   9.395  50.479  1.00  0.00    -0.372 N 
HETATM   16  H17 UNL     1      28.469   9.664  51.337  1.00  0.00     0.161 HD
ENDROOT
BRANCH   1  17
HETATM   17  N1  UNL     1      29.620   7.985  48.763  1.00  0.00    -0.379 N 
HETATM   18  H7  UNL     1      29.080   7.127  48.594  1.00  0.00     0.160 HD
BRANCH  17  19
HETATM   19  C6  UNL     1      30.920   8.176  49.335  1.00  0.00     0.156 C 
BRANCH  19  20
HETATM   20  C5  UNL     1      31.822   7.096  48.892  1.00  0.00    -0.035 A 
HETATM   21  C4  UNL     1      33.091   7.035  48.588  1.00  0.00     0.051 A 
HETATM   22  C3  UNL     1      33.816   5.847  48.162  1.00  0.00     0.145 A 
HETATM   23  C2  UNL     1      33.100   4.750  48.087  1.00  0.00     0.081 A 
HETATM   24  F1  UNL     1      35.123   5.992  47.892  1.00  0.00    -0.203 F 
HETATM   25  C1  UNL     1      33.642   3.431  47.672  1.00  0.00     0.079 C 
HETATM   26  O2  UNL     1      31.754   4.736  48.394  1.00  0.00    -0.348 OA
HETATM   27  C18 UNL     1      31.018   5.844  48.798  1.00  0.00     0.211 A 
ENDBRANCH  19  20
ENDBRANCH  17  19
ENDBRANCH   1  17
TORSDOF 3
ENDMDL
MODEL 9
REMARK VINA RESULT:      -6.9      9.193     10.399
REMARK  3 active torsions:
REMARK  status: ('A' for Active; 'I' for Inactive)
REMARK    1  A    between atoms: C5_6  and  C6_7 
REMARK    2  A    between atoms: C6_7  and  N1_8 
REMARK    3  A    between atoms: N1_8  and  C7_9 
ROOT
HETATM    1  C7  UNL     1      30.614   8.921  48.121  1.00  0.00     0.128 A 
HETATM    2  C8  UNL     1      30.368   9.805  49.105  1.00  0.00     0.155 A 
HETATM    3  N2  UNL     1      30.655  11.111  49.253  1.00  0.00    -0.222 NA
HETATM    4  C9  UNL     1      31.327  11.732  48.231  1.00  0.00     0.238 A 
HETATM    5  N3  UNL     1      31.613  10.936  47.188  1.00  0.00    -0.215 NA
HETATM    6  C10 UNL     1      31.273   9.647  47.154  1.00  0.00     0.201 A 
HETATM    7  O1  UNL     1      31.468   8.758  46.152  1.00  0.00    -0.301 OA
HETATM    8  C11 UNL     1      30.604   7.868  45.586  1.00  0.00     0.156 C 
HETATM    9  C12 UNL     1      30.333   8.812  44.690  1.00  0.00    -0.002 C 
HETATM   10  C13 UNL     1      29.098   9.301  44.802  1.00  0.00     0.014 C 
HETATM   11  C14 UNL     1      28.649   9.850  46.035  1.00  0.00    -0.003 C 
HETATM   12  C15 UNL     1      28.260  10.215  47.247  1.00  0.00    -0.025 C 
HETATM   13  C16 UNL     1      27.852  10.514  48.640  1.00  0.00     0.047 C 
HETATM   14  C17 UNL     1      28.090   9.454  49.652  1.00  0.00     0.125 C 
HETATM   15  N4  UNL     1      29.488   9.466  50.152  1.00  0.00    -0.372 N 
HETATM   16  H17 UNL     1      30.005   9.302  51.038  1.00  0.00     0.161 HD
ENDROOT
BRANCH   1  17
HETATM   17  N1  UNL     1      30.238   7.578  48.255  1.00  0.00    -0.379 N 
HETATM   18  H7  UNL     1      29.391   7.159  47.850  1.00  0.00     0.160 HD
BRANCH  17  19
HETATM   19  C6  UNL     1      31.285   7.000  49.044  1.00  0.00     0.156 C 
BRANCH  19  20
HETATM   20  C5  UNL     1      31.941   5.918  48.284  1.00  0.00    -0.035 A 
HETATM   21  C4  UNL     1      31.511   4.863  47.644  1.00  0.00     0.051 A 
HETATM   22  C3  UNL     1      32.334   3.892  46.940  1.00  0.00     0.145 A 
HETATM   23  C2  UNL     1      33.625   4.125  46.969  1.00  0.00     0.081 A 
HETATM   24  F1  UNL     1      31.700   2.871  46.343  1.00  0.00    -0.203 F 
HETATM   25  C1  UNL     1      34.641   3.258  46.318  1.00  0.00     0.079 C 
HETATM   26  O2  UNL     1      34.153   5.220  47.624  1.00  0.00    -0.348 OA
HETATM   27  C18 UNL     1      33.410   6.169  48.315  1.00  0.00     0.211 A 
ENDBRANCH  19  20
ENDBRANCH  17  19
ENDBRANCH   1  17
TORSDOF 3
ENDMDL
