MODEL 1
REMARK VINA RESULT:      -8.1      0.000      0.000
REMARK  6 active torsions:
REMARK  status: ('A' for Active; 'I' for Inactive)
REMARK    1  A    between atoms: O1_2  and  C2_3 
REMARK    2  A    between atoms: C5_7  and  N2_8 
REMARK    3  A    between atoms: C14_20  and  N4_21 
REMARK       I    between atoms: N4_21  and  C15_22 
REMARK    4  A    between atoms: C15_22  and  C16_24 
REMARK    5  A    between atoms: C17_25  and  C18_26 
REMARK    6  A    between atoms: C18_26  and  N5_28 
ROOT
HETATM    1  C2  UNL     1      20.638   2.846  52.126  1.00  0.00     0.096 C 
HETATM    2  C3  UNL     1      20.662   4.146  52.109  1.00  0.00     0.058 C 
HETATM    3  C4  UNL     1      21.713   5.127  52.031  1.00  0.00     0.116 C 
HETATM    4  N1  UNL     1      22.484   4.097  51.968  1.00  0.00    -0.265 NA
HETATM    5  C5  UNL     1      23.885   4.347  51.857  1.00  0.00     0.356 C 
HETATM    6  C6  UNL     1      24.360   4.164  50.456  1.00  0.00     0.178 C 
HETATM    7  N3  UNL     1      24.166   2.802  49.941  1.00  0.00    -0.385 N 
HETATM    8  C7  UNL     1      24.777   2.057  51.023  1.00  0.00     0.040 A 
HETATM    9  C8  UNL     1      26.153   2.096  51.115  1.00  0.00     0.033 A 
HETATM   10  C9  UNL     1      26.823   1.459  52.135  1.00  0.00     0.046 A 
HETATM   11  C10 UNL     1      26.203   0.747  53.120  1.00  0.00     0.139 A 
HETATM   12  F1  UNL     1      26.903   0.144  54.096  1.00  0.00    -0.204 F 
HETATM   13  C11 UNL     1      24.833   0.722  53.003  1.00  0.00     0.085 A 
HETATM   14 CL1  UNL     1      23.986  -0.181  54.241  1.00  0.00    -0.080 Cl
HETATM   15  C12 UNL     1      24.076   1.340  52.003  1.00  0.00     0.017 A 
HETATM   16  C13 UNL     1      22.634   1.165  52.056  1.00  0.00     0.048 C 
HETATM   17  C14 UNL     1      21.403   1.612  52.102  1.00  0.00     0.069 C 
HETATM   18  H11 UNL     1      23.989   1.888  49.504  1.00  0.00     0.159 HD
ENDROOT
BRANCH  17  19
HETATM   19  N4  UNL     1      20.450   0.496  52.142  1.00  0.00    -0.321 N 
HETATM   20  C15 UNL     1      20.129  -0.117  53.375  1.00  0.00     0.245 C 
HETATM   21  O2  UNL     1      20.554   0.150  54.525  1.00  0.00    -0.268 OA
HETATM   22  H15 UNL     1      20.040   0.198  51.232  1.00  0.00     0.169 HD
BRANCH  20  23
HETATM   23  C16 UNL     1      19.175  -1.216  53.371  1.00  0.00     0.072 C 
HETATM   24  C17 UNL     1      17.866  -1.342  53.282  1.00  0.00     0.003 C 
BRANCH  24  25
HETATM   25  C18 UNL     1      16.779  -2.349  53.263  1.00  0.00     0.098 C 
HETATM   26  C19 UNL     1      17.384  -3.736  53.367  1.00  0.00     0.036 C 
BRANCH  25  27
HETATM   27  N5  UNL     1      15.946  -2.305  52.105  1.00  0.00    -0.401 N 
HETATM   28  C20 UNL     1      15.957  -1.028  51.475  1.00  0.00     0.143 C 
HETATM   29  C21 UNL     1      15.061  -0.942  50.285  1.00  0.00     0.187 C 
HETATM   30  O3  UNL     1      13.965  -1.782  50.314  1.00  0.00    -0.388 OA
HETATM   31  C22 UNL     1      13.553  -2.124  51.598  1.00  0.00     0.187 C 
HETATM   32  C23 UNL     1      14.682  -2.949  52.221  1.00  0.00     0.143 C 
ENDBRANCH  25  27
ENDBRANCH  24  25
ENDBRANCH  20  23
ENDBRANCH  17  19
BRANCH   1  33
HETATM   33  O1  UNL     1      19.234   2.725  52.209  1.00  0.00    -0.354 OA
HETATM   34  C1  UNL     1      18.334   3.526  51.509  1.00  0.00     0.210 C 
ENDBRANCH   1  33
BRANCH   5  35
HETATM   35  N2  UNL     1      24.181   5.710  52.258  1.00  0.00     0.104 N 
HETATM   36  H7  UNL     1      23.628   5.953  53.092  1.00  0.00     0.315 HD
HETATM   37  H8  UNL     1      24.109   6.381  51.467  1.00  0.00     0.315 HD
ENDBRANCH   5  35
TORSDOF 6
ENDMDL
MODEL 2
REMARK VINA RESULT:      -8.0      6.481     12.003
REMARK  6 active torsions:
REMARK  status: ('A' for Active; 'I' for Inactive)
REMARK    1  A    between atoms: O1_2  and  C2_3 
REMARK    2  A    between atoms: C5_7  and  N2_8 
REMARK    3  A    between atoms: C14_20  and  N4_21 
REMARK       I    between atoms: N4_21  and  C15_22 
REMARK    4  A    between atoms: C15_22  and  C16_24 
REMARK    5  A    between atoms: C17_25  and  C18_26 
REMARK    6  A    between atoms: C18_26  and  N5_28 
ROOT
HETATM    1  C2  UNL     1      25.320   7.085  47.922  1.00  0.00     0.096 C 
HETATM    2  C3  UNL     1      24.212   7.381  47.312  1.00  0.00     0.058 C 
HETATM    3  C4  UNL     1      22.830   7.035  47.522  1.00  0.00     0.116 C 
HETATM    4  N1  UNL     1      23.288   6.385  48.536  1.00  0.00    -0.265 NA
HETATM    5  C5  UNL     1      22.335   5.687  49.338  1.00  0.00     0.356 C 
HETATM    6  C6  UNL     1      22.028   6.434  50.591  1.00  0.00     0.178 C 
HETATM    7  N3  UNL     1      23.196   6.634  51.459  1.00  0.00    -0.385 N 
HETATM    8  C7  UNL     1      23.673   5.267  51.521  1.00  0.00     0.040 A 
HETATM    9  C8  UNL     1      22.942   4.380  52.284  1.00  0.00     0.033 A 
HETATM   10  C9  UNL     1      23.288   3.050  52.369  1.00  0.00     0.046 A 
HETATM   11  C10 UNL     1      24.360   2.504  51.724  1.00  0.00     0.139 A 
HETATM   12  F1  UNL     1      24.654   1.198  51.838  1.00  0.00    -0.204 F 
HETATM   13  C11 UNL     1      25.071   3.409  50.974  1.00  0.00     0.085 A 
HETATM   14 CL1  UNL     1      26.460   2.762  50.125  1.00  0.00    -0.080 Cl
HETATM   15  C12 UNL     1      24.790   4.772  50.833  1.00  0.00     0.017 A 
HETATM   16  C13 UNL     1      25.692   5.556  50.006  1.00  0.00     0.048 C 
HETATM   17  C14 UNL     1      25.959   6.362  49.007  1.00  0.00     0.069 C 
HETATM   18  H11 UNL     1      23.991   6.866  52.070  1.00  0.00     0.159 HD
ENDROOT
BRANCH  17  19
HETATM   19  N4  UNL     1      27.398   6.647  48.946  1.00  0.00    -0.321 N 
HETATM   20  C15 UNL     1      28.306   5.632  48.566  1.00  0.00     0.245 C 
HETATM   21  O2  UNL     1      28.072   4.440  48.250  1.00  0.00    -0.268 OA
HETATM   22  H15 UNL     1      27.694   7.615  49.192  1.00  0.00     0.169 HD
BRANCH  20  23
HETATM   23  C16 UNL     1      29.723   5.958  48.512  1.00  0.00     0.072 C 
HETATM   24  C17 UNL     1      30.574   6.359  47.590  1.00  0.00     0.003 C 
BRANCH  24  25
HETATM   25  C18 UNL     1      31.996   6.723  47.378  1.00  0.00     0.098 C 
HETATM   26  C19 UNL     1      32.275   6.786  45.888  1.00  0.00     0.036 C 
BRANCH  25  27
HETATM   27  N5  UNL     1      32.935   5.832  47.977  1.00  0.00    -0.401 N 
HETATM   28  C20 UNL     1      34.155   6.479  48.326  1.00  0.00     0.143 C 
HETATM   29  C21 UNL     1      35.171   5.561  48.916  1.00  0.00     0.187 C 
HETATM   30  O3  UNL     1      35.083   4.245  48.502  1.00  0.00    -0.388 OA
HETATM   31  C22 UNL     1      34.500   4.089  47.249  1.00  0.00     0.187 C 
HETATM   32  C23 UNL     1      33.045   4.545  47.377  1.00  0.00     0.143 C 
ENDBRANCH  25  27
ENDBRANCH  24  25
ENDBRANCH  20  23
ENDBRANCH  17  19
BRANCH   1  33
HETATM   33  O1  UNL     1      26.162   7.836  47.073  1.00  0.00    -0.354 OA
HETATM   34  C1  UNL     1      25.927   9.159  46.705  1.00  0.00     0.210 C 
ENDBRANCH   1  33
BRANCH   5  35
HETATM   35  N2  UNL     1      21.096   5.515  48.603  1.00  0.00     0.104 N 
HETATM   36  H7  UNL     1      21.277   4.977  47.742  1.00  0.00     0.315 HD
HETATM   37  H8  UNL     1      20.587   6.411  48.467  1.00  0.00     0.315 HD
ENDBRANCH   5  35
TORSDOF 6
ENDMDL
MODEL 3
REMARK VINA RESULT:      -8.0      7.968     11.284
REMARK  6 active torsions:
REMARK  status: ('A' for Active; 'I' for Inactive)
REMARK    1  A    between atoms: O1_2  and  C2_3 
REMARK    2  A    between atoms: C5_7  and  N2_8 
REMARK    3  A    between atoms: C14_20  and  N4_21 
REMARK       I    between atoms: N4_21  and  C15_22 
REMARK    4  A    between atoms: C15_22  and  C16_24 
REMARK    5  A    between atoms: C17_25  and  C18_26 
REMARK    6  A    between atoms: C18_26  and  N5_28 
ROOT
HETATM    1  C2  UNL     1      29.376   8.997  48.971  1.00  0.00     0.096 C 
HETATM    2  C3  UNL     1      29.693  10.256  49.039  1.00  0.00     0.058 C 
HETATM    3  C4  UNL     1      30.686  11.075  48.392  1.00  0.00     0.116 C 
HETATM    4  N1  UNL     1      30.995   9.982  47.784  1.00  0.00    -0.265 NA
HETATM    5  C5  UNL     1      32.062  10.051  46.838  1.00  0.00     0.356 C 
HETATM    6  C6  UNL     1      31.546  10.096  45.440  1.00  0.00     0.178 C 
HETATM    7  N3  UNL     1      30.766   8.910  45.061  1.00  0.00    -0.385 N 
HETATM    8  C7  UNL     1      31.703   7.880  45.462  1.00  0.00     0.040 A 
HETATM    9  C8  UNL     1      32.822   7.706  44.674  1.00  0.00     0.033 A 
HETATM   10  C9  UNL     1      33.793   6.786  44.997  1.00  0.00     0.046 A 
HETATM   11  C10 UNL     1      33.737   5.980  46.098  1.00  0.00     0.139 A 
HETATM   12  F1  UNL     1      34.713   5.098  46.371  1.00  0.00    -0.204 F 
HETATM   13  C11 UNL     1      32.611   6.172  46.864  1.00  0.00     0.085 A 
HETATM   14 CL1  UNL     1      32.486   5.162  48.289  1.00  0.00    -0.080 Cl
HETATM   15  C12 UNL     1      31.580   7.082  46.609  1.00  0.00     0.017 A 
HETATM   16  C13 UNL     1      30.465   7.103  47.540  1.00  0.00     0.048 C 
HETATM   17  C14 UNL     1      29.656   7.700  48.381  1.00  0.00     0.069 C 
HETATM   18  H11 UNL     1      30.153   8.139  44.766  1.00  0.00     0.159 HD
ENDROOT
BRANCH  17  19
HETATM   19  N4  UNL     1      28.684   6.744  48.927  1.00  0.00    -0.321 N 
HETATM   20  C15 UNL     1      27.415   6.599  48.321  1.00  0.00     0.245 C 
HETATM   21  O2  UNL     1      26.944   7.194  47.322  1.00  0.00    -0.268 OA
HETATM   22  H15 UNL     1      28.983   6.199  49.763  1.00  0.00     0.169 HD
BRANCH  20  23
HETATM   23  C16 UNL     1      26.485   5.637  48.891  1.00  0.00     0.072 C 
HETATM   24  C17 UNL     1      26.521   4.366  49.239  1.00  0.00     0.003 C 
BRANCH  24  25
HETATM   25  C18 UNL     1      25.694   3.278  49.812  1.00  0.00     0.098 C 
HETATM   26  C19 UNL     1      24.241   3.513  49.445  1.00  0.00     0.036 C 
BRANCH  25  27
HETATM   27  N5  UNL     1      25.785   3.143  51.230  1.00  0.00    -0.401 N 
HETATM   28  C20 UNL     1      26.777   2.200  51.624  1.00  0.00     0.143 C 
HETATM   29  C21 UNL     1      26.865   2.007  53.101  1.00  0.00     0.187 C 
HETATM   30  O3  UNL     1      25.689   2.230  53.792  1.00  0.00    -0.388 OA
HETATM   31  C22 UNL     1      24.543   2.032  53.030  1.00  0.00     0.187 C 
HETATM   32  C23 UNL     1      24.548   3.100  51.934  1.00  0.00     0.143 C 
ENDBRANCH  25  27
ENDBRANCH  24  25
ENDBRANCH  20  23
ENDBRANCH  17  19
BRANCH   1  33
HETATM   33  O1  UNL     1      28.321   9.059  49.906  1.00  0.00    -0.354 OA
HETATM   34  C1  UNL     1      27.209   9.890  49.781  1.00  0.00     0.210 C 
ENDBRANCH   1  33
BRANCH   5  35
HETATM   35  N2  UNL     1      32.851  11.248  47.063  1.00  0.00     0.104 N 
HETATM   36  H7  UNL     1      32.270  12.082  46.893  1.00  0.00     0.315 HD
HETATM   37  H8  UNL     1      33.757  11.228  46.556  1.00  0.00     0.315 HD
ENDBRANCH   5  35
TORSDOF 6
ENDMDL
MODEL 4
REMARK VINA RESULT:      -8.0      1.679      2.299
REMARK  6 active torsions:
REMARK  status: ('A' for Active; 'I' for Inactive)
REMARK    1  A    between atoms: O1_2  and  C2_3 
REMARK    2  A    between atoms: C5_7  and  N2_8 
REMARK    3  A    between atoms: C14_20  and  N4_21 
REMARK       I    between atoms: N4_21  and  C15_22 
REMARK    4  A    between atoms: C15_22  and  C16_24 
REMARK    5  A    between atoms: C17_25  and  C18_26 
REMARK    6  A    between atoms: C18_26  and  N5_28 
ROOT
HETATM    1  C2  UNL     1      20.337   2.828  51.700  1.00  0.00     0.096 C 
HETATM    2  C3  UNL     1      20.643   4.082  51.852  1.00  0.00     0.058 C 
HETATM    3  C4  UNL     1      21.840   4.780  52.244  1.00  0.00     0.116 C 
HETATM    4  N1  UNL     1      22.345   3.597  52.312  1.00  0.00    -0.265 NA
HETATM    5  C5  UNL     1      23.716   3.503  52.699  1.00  0.00     0.356 C 
HETATM    6  C6  UNL     1      24.598   3.268  51.520  1.00  0.00     0.178 C 
HETATM    7  N3  UNL     1      24.308   2.017  50.807  1.00  0.00    -0.385 N 
HETATM    8  C7  UNL     1      24.330   1.102  51.930  1.00  0.00     0.040 A 
HETATM    9  C8  UNL     1      25.562   0.801  52.473  1.00  0.00     0.033 A 
HETATM   10  C9  UNL     1      25.682  -0.022  53.570  1.00  0.00     0.046 A 
HETATM   11  C10 UNL     1      24.620  -0.602  54.202  1.00  0.00     0.139 A 
HETATM   12  F1  UNL     1      24.791  -1.397  55.272  1.00  0.00    -0.204 F 
HETATM   13  C11 UNL     1      23.406  -0.288  53.639  1.00  0.00     0.085 A 
HETATM   14 CL1  UNL     1      22.008  -1.007  54.410  1.00  0.00    -0.080 Cl
HETATM   15  C12 UNL     1      23.195   0.537  52.530  1.00  0.00     0.017 A 
HETATM   16  C13 UNL     1      21.823   0.716  52.084  1.00  0.00     0.048 C 
HETATM   17  C14 UNL     1      20.780   1.447  51.778  1.00  0.00     0.069 C 
HETATM   18  H11 UNL     1      24.102   1.192  50.228  1.00  0.00     0.159 HD
ENDROOT
BRANCH  17  19
HETATM   19  N4  UNL     1      19.656   0.596  51.367  1.00  0.00    -0.321 N 
HETATM   20  C15 UNL     1      18.910  -0.112  52.337  1.00  0.00     0.245 C 
HETATM   21  O2  UNL     1      19.059  -0.138  53.583  1.00  0.00    -0.268 OA
HETATM   22  H15 UNL     1      19.453   0.550  50.346  1.00  0.00     0.169 HD
BRANCH  20  23
HETATM   23  C16 UNL     1      17.802  -0.939  51.887  1.00  0.00     0.072 C 
HETATM   24  C17 UNL     1      16.647  -1.338  52.381  1.00  0.00     0.003 C 
BRANCH  24  25
HETATM   25  C18 UNL     1      15.448  -2.150  52.065  1.00  0.00     0.098 C 
HETATM   26  C19 UNL     1      14.215  -1.272  52.159  1.00  0.00     0.036 C 
BRANCH  25  27
HETATM   27  N5  UNL     1      15.259  -3.287  52.907  1.00  0.00    -0.401 N 
HETATM   28  C20 UNL     1      16.480  -3.966  53.187  1.00  0.00     0.143 C 
HETATM   29  C21 UNL     1      16.305  -5.183  54.032  1.00  0.00     0.187 C 
HETATM   30  O3  UNL     1      15.080  -5.810  53.911  1.00  0.00    -0.388 OA
HETATM   31  C22 UNL     1      14.457  -5.594  52.686  1.00  0.00     0.187 C 
HETATM   32  C23 UNL     1      14.129  -4.101  52.612  1.00  0.00     0.143 C 
ENDBRANCH  25  27
ENDBRANCH  24  25
ENDBRANCH  20  23
ENDBRANCH  17  19
BRANCH   1  33
HETATM   33  O1  UNL     1      19.001   3.048  51.303  1.00  0.00    -0.354 OA
HETATM   34  C1  UNL     1      18.583   4.120  50.516  1.00  0.00     0.210 C 
ENDBRANCH   1  33
BRANCH   5  35
HETATM   35  N2  UNL     1      24.139   4.736  53.338  1.00  0.00     0.104 N 
HETATM   36  H7  UNL     1      24.487   4.531  54.286  1.00  0.00     0.315 HD
HETATM   37  H8  UNL     1      23.417   5.480  53.282  1.00  0.00     0.315 HD
ENDBRANCH   5  35
TORSDOF 6
ENDMDL
MODEL 5
REMARK VINA RESULT:      -7.9      4.943     10.447
REMARK  6 active torsions:
REMARK  status: ('A' for Active; 'I' for Inactive)
REMARK    1  A    between atoms: O1_2  and  C2_3 
REMARK    2  A    between atoms: C5_7  and  N2_8 
REMARK    3  A    between atoms: C14_20  and  N4_21 
REMARK       I    between atoms: N4_21  and  C15_22 
REMARK    4  A    between atoms: C15_22  and  C16_24 
REMARK    5  A    between atoms: C17_25  and  C18_26 
REMARK    6  A    between atoms: C18_26  and  N5_28 
ROOT
HETATM    1  C2  UNL     1      23.472   4.769  48.647  1.00  0.00     0.096 C 
HETATM    2  C3  UNL     1      22.460   4.338  47.955  1.00  0.00     0.058 C 
HETATM    3  C4  UNL     1      21.550   3.231  48.094  1.00  0.00     0.116 C 
HETATM    4  N1  UNL     1      22.224   2.988  49.164  1.00  0.00    -0.265 NA
HETATM    5  C5  UNL     1      21.820   1.857  49.937  1.00  0.00     0.356 C 
HETATM    6  C6  UNL     1      21.028   2.271  51.131  1.00  0.00     0.178 C 
HETATM    7  N3  UNL     1      21.769   3.133  52.060  1.00  0.00    -0.385 N 
HETATM    8  C7  UNL     1      22.963   2.328  52.219  1.00  0.00     0.040 A 
HETATM    9  C8  UNL     1      22.852   1.180  52.976  1.00  0.00     0.033 A 
HETATM   10  C9  UNL     1      23.918   0.326  53.147  1.00  0.00     0.046 A 
HETATM   11  C10 UNL     1      25.151   0.533  52.598  1.00  0.00     0.139 A 
HETATM   12  F1  UNL     1      26.159  -0.334  52.793  1.00  0.00    -0.204 F 
HETATM   13  C11 UNL     1      25.234   1.684  51.851  1.00  0.00     0.085 A 
HETATM   14 CL1  UNL     1      26.796   2.001  51.124  1.00  0.00    -0.080 Cl
HETATM   15  C12 UNL     1      24.204   2.604  51.627  1.00  0.00     0.017 A 
HETATM   16  C13 UNL     1      24.519   3.772  50.822  1.00  0.00     0.048 C 
HETATM   17  C14 UNL     1      24.328   4.576  49.804  1.00  0.00     0.069 C 
HETATM   18  H11 UNL     1      22.215   3.796  52.709  1.00  0.00     0.159 HD
ENDROOT
BRANCH  17  19
HETATM   19  N4  UNL     1      25.308   5.669  49.820  1.00  0.00    -0.321 N 
HETATM   20  C15 UNL     1      25.003   6.885  50.473  1.00  0.00     0.245 C 
HETATM   21  O2  UNL     1      23.958   7.212  51.086  1.00  0.00    -0.268 OA
HETATM   22  H15 UNL     1      26.213   5.493  49.334  1.00  0.00     0.169 HD
BRANCH  20  23
HETATM   23  C16 UNL     1      26.005   7.940  50.469  1.00  0.00     0.072 C 
HETATM   24  C17 UNL     1      27.017   8.290  49.702  1.00  0.00     0.003 C 
BRANCH  24  25
HETATM   25  C18 UNL     1      28.095   9.298  49.562  1.00  0.00     0.098 C 
HETATM   26  C19 UNL     1      27.539  10.526  48.865  1.00  0.00     0.036 C 
BRANCH  25  27
HETATM   27  N5  UNL     1      29.241   8.849  48.840  1.00  0.00    -0.401 N 
HETATM   28  C20 UNL     1      29.127   7.491  48.426  1.00  0.00     0.143 C 
HETATM   29  C21 UNL     1      30.330   6.983  47.706  1.00  0.00     0.187 C 
HETATM   30  O3  UNL     1      31.522   7.588  48.056  1.00  0.00    -0.388 OA
HETATM   31  C22 UNL     1      31.527   8.115  49.344  1.00  0.00     0.187 C 
HETATM   32  C23 UNL     1      30.503   9.253  49.362  1.00  0.00     0.143 C 
ENDBRANCH  25  27
ENDBRANCH  24  25
ENDBRANCH  20  23
ENDBRANCH  17  19
BRANCH   1  33
HETATM   33  O1  UNL     1      23.760   5.874  47.818  1.00  0.00    -0.354 OA
HETATM   34  C1  UNL     1      22.801   6.758  47.328  1.00  0.00     0.210 C 
ENDBRANCH   1  33
BRANCH   5  35
HETATM   35  N2  UNL     1      20.994   0.974  49.135  1.00  0.00     0.104 N 
HETATM   36  H7  UNL     1      21.494   0.728  48.267  1.00  0.00     0.315 HD
HETATM   37  H8  UNL     1      20.031   1.341  49.002  1.00  0.00     0.315 HD
ENDBRANCH   5  35
TORSDOF 6
ENDMDL
MODEL 6
REMARK VINA RESULT:      -7.9      7.666     11.370
REMARK  6 active torsions:
REMARK  status: ('A' for Active; 'I' for Inactive)
REMARK    1  A    between atoms: O1_2  and  C2_3 
REMARK    2  A    between atoms: C5_7  and  N2_8 
REMARK    3  A    between atoms: C14_20  and  N4_21 
REMARK       I    between atoms: N4_21  and  C15_22 
REMARK    4  A    between atoms: C15_22  and  C16_24 
REMARK    5  A    between atoms: C17_25  and  C18_26 
REMARK    6  A    between atoms: C18_26  and  N5_28 
ROOT
HETATM    1  C2  UNL     1      29.472   7.490  47.811  1.00  0.00     0.096 C 
HETATM    2  C3  UNL     1      30.495   7.629  47.022  1.00  0.00     0.058 C 
HETATM    3  C4  UNL     1      31.163   8.763  46.439  1.00  0.00     0.116 C 
HETATM    4  N1  UNL     1      30.288   9.444  47.095  1.00  0.00    -0.265 NA
HETATM    5  C5  UNL     1      30.357  10.865  46.976  1.00  0.00     0.356 C 
HETATM    6  C6  UNL     1      30.999  11.480  48.173  1.00  0.00     0.178 C 
HETATM    7  N3  UNL     1      30.273  11.229  49.425  1.00  0.00    -0.385 N 
HETATM    8  C7  UNL     1      28.949  11.645  49.012  1.00  0.00     0.040 A 
HETATM    9  C8  UNL     1      28.732  12.999  48.864  1.00  0.00     0.033 A 
HETATM   10  C9  UNL     1      27.521  13.490  48.431  1.00  0.00     0.046 A 
HETATM   11  C10 UNL     1      26.451  12.701  48.119  1.00  0.00     0.139 A 
HETATM   12  F1  UNL     1      25.290  13.230  47.698  1.00  0.00    -0.204 F 
HETATM   13  C11 UNL     1      26.694  11.357  48.277  1.00  0.00     0.085 A 
HETATM   14 CL1  UNL     1      25.354  10.298  47.892  1.00  0.00    -0.080 Cl
HETATM   15  C12 UNL     1      27.890  10.776  48.710  1.00  0.00     0.017 A 
HETATM   16  C13 UNL     1      27.921   9.328  48.830  1.00  0.00     0.048 C 
HETATM   17  C14 UNL     1      28.414   8.144  48.563  1.00  0.00     0.069 C 
HETATM   18  H11 UNL     1      29.848  11.024  50.340  1.00  0.00     0.159 HD
ENDROOT
BRANCH  17  19
HETATM   19  N4  UNL     1      27.650   7.098  49.255  1.00  0.00    -0.321 N 
HETATM   20  C15 UNL     1      26.425   6.641  48.716  1.00  0.00     0.245 C 
HETATM   21  O2  UNL     1      25.838   7.007  47.669  1.00  0.00    -0.268 OA
HETATM   22  H15 UNL     1      28.057   6.729  50.140  1.00  0.00     0.169 HD
BRANCH  20  23
HETATM   23  C16 UNL     1      25.703   5.601  49.431  1.00  0.00     0.072 C 
HETATM   24  C17 UNL     1      25.790   4.292  49.554  1.00  0.00     0.003 C 
BRANCH  24  25
HETATM   25  C18 UNL     1      25.158   3.126  50.216  1.00  0.00     0.098 C 
HETATM   26  C19 UNL     1      23.651   3.296  50.187  1.00  0.00     0.036 C 
BRANCH  25  27
HETATM   27  N5  UNL     1      25.564   2.916  51.568  1.00  0.00    -0.401 N 
HETATM   28  C20 UNL     1      26.833   2.277  51.663  1.00  0.00     0.143 C 
HETATM   29  C21 UNL     1      27.262   2.007  53.066  1.00  0.00     0.187 C 
HETATM   30  O3  UNL     1      26.233   1.824  53.970  1.00  0.00    -0.388 OA
HETATM   31  C22 UNL     1      25.056   1.358  53.392  1.00  0.00     0.187 C 
HETATM   32  C23 UNL     1      24.551   2.461  52.459  1.00  0.00     0.143 C 
ENDBRANCH  25  27
ENDBRANCH  24  25
ENDBRANCH  20  23
ENDBRANCH  17  19
BRANCH   1  33
HETATM   33  O1  UNL     1      29.522   6.081  47.873  1.00  0.00    -0.354 OA
HETATM   34  C1  UNL     1      30.697   5.334  47.820  1.00  0.00     0.210 C 
ENDBRANCH   1  33
BRANCH   5  35
HETATM   35  N2  UNL     1      31.138  11.231  45.810  1.00  0.00     0.104 N 
HETATM   36  H7  UNL     1      31.078  10.481  45.105  1.00  0.00     0.315 HD
HETATM   37  H8  UNL     1      32.102  11.531  46.055  1.00  0.00     0.315 HD
ENDBRANCH   5  35
TORSDOF 6
ENDMDL
MODEL 7
REMARK VINA RESULT:      -7.8      1.692      2.085
REMARK  6 active torsions:
REMARK  status: ('A' for Active; 'I' for Inactive)
REMARK    1  A    between atoms: O1_2  and  C2_3 
REMARK    2  A    between atoms: C5_7  and  N2_8 
REMARK    3  A    between atoms: C14_20  and  N4_21 
REMARK       I    between atoms: N4_21  and  C15_22 
REMARK    4  A    between atoms: C15_22  and  C16_24 
REMARK    5  A    between atoms: C17_25  and  C18_26 
REMARK    6  A    between atoms: C18_26  and  N5_28 
ROOT
HETATM    1  C2  UNL     1      20.260   2.808  51.800  1.00  0.00     0.096 C 
HETATM    2  C3  UNL     1      20.567   4.066  51.919  1.00  0.00     0.058 C 
HETATM    3  C4  UNL     1      21.776   4.775  52.246  1.00  0.00     0.116 C 
HETATM    4  N1  UNL     1      22.290   3.595  52.308  1.00  0.00    -0.265 NA
HETATM    5  C5  UNL     1      23.678   3.513  52.633  1.00  0.00     0.356 C 
HETATM    6  C6  UNL     1      24.506   3.266  51.419  1.00  0.00     0.178 C 
HETATM    7  N3  UNL     1      24.191   2.003  50.737  1.00  0.00    -0.385 N 
HETATM    8  C7  UNL     1      24.269   1.104  51.870  1.00  0.00     0.040 A 
HETATM    9  C8  UNL     1      25.526   0.817  52.361  1.00  0.00     0.033 A 
HETATM   10  C9  UNL     1      25.701   0.011  53.462  1.00  0.00     0.046 A 
HETATM   11  C10 UNL     1      24.672  -0.565  54.151  1.00  0.00     0.139 A 
HETATM   12  F1  UNL     1      24.896  -1.344  55.223  1.00  0.00    -0.204 F 
HETATM   13  C11 UNL     1      23.431  -0.265  53.640  1.00  0.00     0.085 A 
HETATM   14 CL1  UNL     1      22.074  -0.980  54.484  1.00  0.00    -0.080 Cl
HETATM   15  C12 UNL     1      23.165   0.543  52.530  1.00  0.00     0.017 A 
HETATM   16  C13 UNL     1      21.774   0.708  52.145  1.00  0.00     0.048 C 
HETATM   17  C14 UNL     1      20.714   1.430  51.877  1.00  0.00     0.069 C 
HETATM   18  H11 UNL     1      23.963   1.169  50.179  1.00  0.00     0.159 HD
ENDROOT
BRANCH  17  19
HETATM   19  N4  UNL     1      19.577   0.568  51.529  1.00  0.00    -0.321 N 
HETATM   20  C15 UNL     1      18.864  -0.109  52.545  1.00  0.00     0.245 C 
HETATM   21  O2  UNL     1      19.054  -0.097  53.785  1.00  0.00    -0.268 OA
HETATM   22  H15 UNL     1      19.340   0.492  50.517  1.00  0.00     0.169 HD
BRANCH  20  23
HETATM   23  C16 UNL     1      17.741  -0.948  52.157  1.00  0.00     0.072 C 
HETATM   24  C17 UNL     1      16.429  -0.829  52.122  1.00  0.00     0.003 C 
BRANCH  24  25
HETATM   25  C18 UNL     1      15.189  -1.561  51.769  1.00  0.00     0.098 C 
HETATM   26  C19 UNL     1      15.105  -1.693  50.260  1.00  0.00     0.036 C 
BRANCH  25  27
HETATM   27  N5  UNL     1      13.985  -0.955  52.238  1.00  0.00    -0.401 N 
HETATM   28  C20 UNL     1      14.231   0.103  53.159  1.00  0.00     0.143 C 
HETATM   29  C21 UNL     1      12.988   0.725  53.698  1.00  0.00     0.187 C 
HETATM   30  O3  UNL     1      11.889  -0.111  53.755  1.00  0.00    -0.388 OA
HETATM   31  C22 UNL     1      12.215  -1.459  53.859  1.00  0.00     0.187 C 
HETATM   32  C23 UNL     1      12.923  -1.847  52.559  1.00  0.00     0.143 C 
ENDBRANCH  25  27
ENDBRANCH  24  25
ENDBRANCH  20  23
ENDBRANCH  17  19
BRANCH   1  33
HETATM   33  O1  UNL     1      18.907   3.017  51.460  1.00  0.00    -0.354 OA
HETATM   34  C1  UNL     1      18.471   3.905  50.478  1.00  0.00     0.210 C 
ENDBRANCH   1  33
BRANCH   5  35
HETATM   35  N2  UNL     1      24.123   4.757  53.234  1.00  0.00     0.104 N 
HETATM   36  H7  UNL     1      23.973   5.533  52.573  1.00  0.00     0.315 HD
HETATM   37  H8  UNL     1      25.083   4.688  53.626  1.00  0.00     0.315 HD
ENDBRANCH   5  35
TORSDOF 6
ENDMDL
MODEL 8
REMARK VINA RESULT:      -7.8      6.638     11.917
REMARK  6 active torsions:
REMARK  status: ('A' for Active; 'I' for Inactive)
REMARK    1  A    between atoms: O1_2  and  C2_3 
REMARK    2  A    between atoms: C5_7  and  N2_8 
REMARK    3  A    between atoms: C14_20  and  N4_21 
REMARK       I    between atoms: N4_21  and  C15_22 
REMARK    4  A    between atoms: C15_22  and  C16_24 
REMARK    5  A    between atoms: C17_25  and  C18_26 
REMARK    6  A    between atoms: C18_26  and  N5_28 
ROOT
HETATM    1  C2  UNL     1      24.468   7.251  47.653  1.00  0.00     0.096 C 
HETATM    2  C3  UNL     1      23.227   7.374  47.287  1.00  0.00     0.058 C 
HETATM    3  C4  UNL     1      21.983   6.829  47.765  1.00  0.00     0.116 C 
HETATM    4  N1  UNL     1      22.728   6.263  48.650  1.00  0.00    -0.265 NA
HETATM    5  C5  UNL     1      22.071   5.439  49.614  1.00  0.00     0.356 C 
HETATM    6  C6  UNL     1      21.919   6.144  50.918  1.00  0.00     0.178 C 
HETATM    7  N3  UNL     1      23.197   6.522  51.536  1.00  0.00    -0.385 N 
HETATM    8  C7  UNL     1      23.872   5.242  51.472  1.00  0.00     0.040 A 
HETATM    9  C8  UNL     1      23.449   4.264  52.348  1.00  0.00     0.033 A 
HETATM   10  C9  UNL     1      23.996   3.000  52.333  1.00  0.00     0.046 A 
HETATM   11  C10 UNL     1      24.983   2.612  51.473  1.00  0.00     0.139 A 
HETATM   12  F1  UNL     1      25.483   1.365  51.497  1.00  0.00    -0.204 F 
HETATM   13  C11 UNL     1      25.386   3.606  50.613  1.00  0.00     0.085 A 
HETATM   14 CL1  UNL     1      26.653   3.164  49.488  1.00  0.00    -0.080 Cl
HETATM   15  C12 UNL     1      24.886   4.911  50.561  1.00  0.00     0.017 A 
HETATM   16  C13 UNL     1      25.476   5.813  49.586  1.00  0.00     0.048 C 
HETATM   17  C14 UNL     1      25.413   6.640  48.571  1.00  0.00     0.069 C 
HETATM   18  H11 UNL     1      24.056   6.875  51.979  1.00  0.00     0.159 HD
ENDROOT
BRANCH  17  19
HETATM   19  N4  UNL     1      26.752   7.134  48.226  1.00  0.00    -0.321 N 
HETATM   20  C15 UNL     1      27.377   8.112  49.033  1.00  0.00     0.245 C 
HETATM   21  O2  UNL     1      26.947   8.671  50.072  1.00  0.00    -0.268 OA
HETATM   22  H15 UNL     1      27.195   6.729  47.374  1.00  0.00     0.169 HD
BRANCH  20  23
HETATM   23  C16 UNL     1      28.705   8.570  48.658  1.00  0.00     0.072 C 
HETATM   24  C17 UNL     1      29.911   8.534  49.188  1.00  0.00     0.003 C 
BRANCH  24  25
HETATM   25  C18 UNL     1      31.317   8.938  48.946  1.00  0.00     0.098 C 
HETATM   26  C19 UNL     1      31.459   9.403  47.509  1.00  0.00     0.036 C 
BRANCH  25  27
HETATM   27  N5  UNL     1      32.281   7.915  49.188  1.00  0.00    -0.401 N 
HETATM   28  C20 UNL     1      33.404   8.008  48.317  1.00  0.00     0.143 C 
HETATM   29  C21 UNL     1      34.409   6.924  48.521  1.00  0.00     0.187 C 
HETATM   30  O3  UNL     1      33.899   5.734  49.003  1.00  0.00    -0.388 OA
HETATM   31  C22 UNL     1      32.559   5.530  48.689  1.00  0.00     0.187 C 
HETATM   32  C23 UNL     1      31.761   6.610  49.423  1.00  0.00     0.143 C 
ENDBRANCH  25  27
ENDBRANCH  24  25
ENDBRANCH  20  23
ENDBRANCH  17  19
BRANCH   1  33
HETATM   33  O1  UNL     1      25.000   8.110  46.668  1.00  0.00    -0.354 OA
HETATM   34  C1  UNL     1      24.546   8.170  45.351  1.00  0.00     0.210 C 
ENDBRANCH   1  33
BRANCH   5  35
HETATM   35  N2  UNL     1      20.747   5.079  49.141  1.00  0.00     0.104 N 
HETATM   36  H7  UNL     1      20.055   5.749  49.508  1.00  0.00     0.315 HD
HETATM   37  H8  UNL     1      20.525   4.078  49.306  1.00  0.00     0.315 HD
ENDBRANCH   5  35
TORSDOF 6
ENDMDL
MODEL 9
REMARK VINA RESULT:      -7.8      7.651     12.421
REMARK  6 active torsions:
REMARK  status: ('A' for Active; 'I' for Inactive)
REMARK    1  A    between atoms: O1_2  and  C2_3 
REMARK    2  A    between atoms: C5_7  and  N2_8 
REMARK    3  A    between atoms: C14_20  and  N4_21 
REMARK       I    between atoms: N4_21  and  C15_22 
REMARK    4  A    between atoms: C15_22  and  C16_24 
REMARK    5  A    between atoms: C17_25  and  C18_26 
REMARK    6  A    between atoms: C18_26  and  N5_28 
ROOT
HETATM    1  C2  UNL     1      26.454   7.862  47.108  1.00  0.00     0.096 C 
HETATM    2  C3  UNL     1      25.431   8.442  46.554  1.00  0.00     0.058 C 
HETATM    3  C4  UNL     1      24.022   8.478  46.846  1.00  0.00     0.116 C 
HETATM    4  N1  UNL     1      24.348   7.732  47.845  1.00  0.00    -0.265 NA
HETATM    5  C5  UNL     1      23.291   7.316  48.710  1.00  0.00     0.356 C 
HETATM    6  C6  UNL     1      23.268   8.121  49.964  1.00  0.00     0.178 C 
HETATM    7  N3  UNL     1      24.495   8.004  50.764  1.00  0.00    -0.385 N 
HETATM    8  C7  UNL     1      24.593   6.560  50.824  1.00  0.00     0.040 A 
HETATM    9  C8  UNL     1      23.698   5.902  51.642  1.00  0.00     0.033 A 
HETATM   10  C9  UNL     1      23.681   4.528  51.732  1.00  0.00     0.046 A 
HETATM   11  C10 UNL     1      24.529   3.714  51.038  1.00  0.00     0.139 A 
HETATM   12  F1  UNL     1      24.470   2.377  51.159  1.00  0.00    -0.204 F 
HETATM   13  C11 UNL     1      25.411   4.394  50.234  1.00  0.00     0.085 A 
HETATM   14 CL1  UNL     1      26.525   3.397  49.322  1.00  0.00    -0.080 Cl
HETATM   15  C12 UNL     1      25.496   5.782  50.084  1.00  0.00     0.017 A 
HETATM   16  C13 UNL     1      26.525   6.295  49.195  1.00  0.00     0.048 C 
HETATM   17  C14 UNL     1      26.939   6.997  48.169  1.00  0.00     0.069 C 
HETATM   18  H11 UNL     1      25.356   8.016  51.326  1.00  0.00     0.159 HD
ENDROOT
BRANCH  17  19
HETATM   19  N4  UNL     1      28.396   6.887  48.023  1.00  0.00    -0.321 N 
HETATM   20  C15 UNL     1      29.244   7.823  48.659  1.00  0.00     0.245 C 
HETATM   21  O2  UNL     1      28.939   8.804  49.380  1.00  0.00    -0.268 OA
HETATM   22  H15 UNL     1      28.749   6.101  47.439  1.00  0.00     0.169 HD
BRANCH  20  23
HETATM   23  C16 UNL     1      30.682   7.674  48.493  1.00  0.00     0.072 C 
HETATM   24  C17 UNL     1      31.579   6.743  48.747  1.00  0.00     0.003 C 
BRANCH  24  25
HETATM   25  C18 UNL     1      33.028   6.444  48.643  1.00  0.00     0.098 C 
HETATM   26  C19 UNL     1      33.691   7.500  47.778  1.00  0.00     0.036 C 
BRANCH  25  27
HETATM   27  N5  UNL     1      33.334   5.159  48.103  1.00  0.00    -0.401 N 
HETATM   28  C20 UNL     1      34.372   5.210  47.130  1.00  0.00     0.143 C 
HETATM   29  C21 UNL     1      34.683   3.886  46.519  1.00  0.00     0.187 C 
HETATM   30  O3  UNL     1      33.627   2.995  46.479  1.00  0.00    -0.388 OA
HETATM   31  C22 UNL     1      32.378   3.607  46.463  1.00  0.00     0.187 C 
HETATM   32  C23 UNL     1      32.218   4.327  47.804  1.00  0.00     0.143 C 
ENDBRANCH  25  27
ENDBRANCH  24  25
ENDBRANCH  20  23
ENDBRANCH  17  19
BRANCH   1  33
HETATM   33  O1  UNL     1      27.414   8.359  46.200  1.00  0.00    -0.354 OA
HETATM   34  C1  UNL     1      27.531   9.698  45.835  1.00  0.00     0.210 C 
ENDBRANCH   1  33
BRANCH   5  35
HETATM   35  N2  UNL     1      22.011   7.479  48.048  1.00  0.00     0.104 N 
HETATM   36  H7  UNL     1      21.913   6.771  47.305  1.00  0.00     0.315 HD
HETATM   37  H8  UNL     1      21.839   8.460  47.750  1.00  0.00     0.315 HD
ENDBRANCH   5  35
TORSDOF 6
ENDMDL
