MODEL 1
REMARK VINA RESULT:     -10.2      0.000      0.000
REMARK  7 active torsions:
REMARK  status: ('A' for Active; 'I' for Inactive)
REMARK    1  A    between atoms: C3_3  and  C5_5 
REMARK    2  A    between atoms: C5_5  and  N2_20 
REMARK    3  A    between atoms: C6_6  and  C7_7 
REMARK    4  A    between atoms: C7_7  and  N1_8 
REMARK       I    between atoms: N1_8  and  C8_9 
REMARK    5  A    between atoms: C8_9  and  C9_11 
REMARK    6  A    between atoms: N2_20  and  C18_21 
REMARK    7  A    between atoms: C21_25  and  C22_26 
ROOT
HETATM    1  C5  UNL     1      26.839   0.223  52.848  1.00  0.00     0.052 C 
HETATM    2  C6  UNL     1      26.786   1.000  51.755  1.00  0.00     0.023 C 
ENDROOT
BRANCH   1   3
HETATM    3  C3  UNL     1      27.678  -0.989  52.914  1.00  0.00    -0.039 C 
HETATM    4  C2  UNL     1      28.902  -0.942  53.362  1.00  0.00    -0.022 C 
HETATM    5  C1  UNL     1      29.697  -2.193  53.405  1.00  0.00     0.036 C 
HETATM    6  C4  UNL     1      27.054  -2.259  52.443  1.00  0.00     0.050 C 
ENDBRANCH   1   3
BRANCH   1   7
HETATM    7  N2  UNL     1      26.053   0.589  53.975  1.00  0.00    -0.188 N 
HETATM    8  H19 UNL     1      26.386   1.397  54.521  1.00  0.00     0.184 HD
BRANCH   7   9
HETATM    9  C18 UNL     1      24.874  -0.122  54.329  1.00  0.00     0.727 A 
HETATM   10  N3  UNL     1      24.866  -0.973  55.357  1.00  0.00    -0.075 NA
HETATM   11  C19 UNL     1      23.732  -1.650  55.689  1.00  0.00     0.139 A 
HETATM   12  C20 UNL     1      22.596  -1.419  54.920  1.00  0.00     0.053 A 
HETATM   13  C21 UNL     1      22.601  -0.551  53.869  1.00  0.00     0.089 A 
HETATM   14  N5  UNL     1      23.759   0.075  53.611  1.00  0.00    -0.062 NA
BRANCH  13  15
HETATM   15  C22 UNL     1      21.456  -0.257  53.021  1.00  0.00     0.011 A 
HETATM   16  C23 UNL     1      21.678   0.218  51.756  1.00  0.00     0.017 A 
HETATM   17  C24 UNL     1      20.586   0.495  50.953  1.00  0.00     0.020 A 
HETATM   18  C25 UNL     1      19.302   0.310  51.382  1.00  0.00     0.116 A 
HETATM   19  N4  UNL     1      19.078  -0.163  52.639  1.00  0.00    -0.272 NA
HETATM   20  C26 UNL     1      20.154  -0.434  53.425  1.00  0.00     0.130 A 
ENDBRANCH  13  15
ENDBRANCH   7   9
ENDBRANCH   1   7
BRANCH   2  21
HETATM   21  C7  UNL     1      25.974   2.217  51.624  1.00  0.00     0.152 C 
BRANCH  21  22
HETATM   22  N1  UNL     1      26.692   3.326  51.008  1.00  0.00    -0.354 N 
HETATM   23  C8  UNL     1      26.327   3.832  49.734  1.00  0.00     0.248 C 
HETATM   24  O1  UNL     1      25.366   3.256  49.208  1.00  0.00    -0.268 OA
HETATM   25  H11 UNL     1      27.511   3.777  51.517  1.00  0.00     0.163 HD
BRANCH  23  26
HETATM   26  C9  UNL     1      27.047   4.924  49.146  1.00  0.00     0.022 C 
HETATM   27  C10 UNL     1      28.173   4.976  48.465  1.00  0.00     0.014 C 
HETATM   28  C11 UNL     1      28.877   6.125  47.911  1.00  0.00     0.001 C 
HETATM   29  C12 UNL     1      28.387   7.363  48.109  1.00  0.00     0.008 C 
HETATM   30  C13 UNL     1      27.182   7.337  48.920  1.00  0.00    -0.046 A 
HETATM   31  C14 UNL     1      26.656   8.307  49.690  1.00  0.00     0.008 A 
HETATM   32  C17 UNL     1      26.311   6.174  49.019  1.00  0.00     0.080 A 
HETATM   33  C15 UNL     1      25.438   7.789  50.318  1.00  0.00    -0.002 A 
HETATM   34  C16 UNL     1      25.242   6.517  49.920  1.00  0.00    -0.012 A 
ENDBRANCH  23  26
ENDBRANCH  21  22
ENDBRANCH   2  21
TORSDOF 7
ENDMDL
MODEL 2
REMARK VINA RESULT:      -9.9      1.980      7.905
REMARK  7 active torsions:
REMARK  status: ('A' for Active; 'I' for Inactive)
REMARK    1  A    between atoms: C3_3  and  C5_5 
REMARK    2  A    between atoms: C5_5  and  N2_20 
REMARK    3  A    between atoms: C6_6  and  C7_7 
REMARK    4  A    between atoms: C7_7  and  N1_8 
REMARK       I    between atoms: N1_8  and  C8_9 
REMARK    5  A    between atoms: C8_9  and  C9_11 
REMARK    6  A    between atoms: N2_20  and  C18_21 
REMARK    7  A    between atoms: C21_25  and  C22_26 
ROOT
HETATM    1  C5  UNL     1      24.702   4.136  49.427  1.00  0.00     0.052 C 
HETATM    2  C6  UNL     1      23.411   4.243  49.076  1.00  0.00     0.023 C 
ENDROOT
BRANCH   1   3
HETATM    3  C3  UNL     1      25.625   5.286  49.397  1.00  0.00    -0.039 C 
HETATM    4  C2  UNL     1      26.706   5.269  48.669  1.00  0.00    -0.022 C 
HETATM    5  C1  UNL     1      27.596   6.455  48.680  1.00  0.00     0.036 C 
HETATM    6  C4  UNL     1      25.255   6.459  50.241  1.00  0.00     0.050 C 
ENDBRANCH   1   3
BRANCH   1   7
HETATM    7  N2  UNL     1      25.185   2.864  49.840  1.00  0.00    -0.188 N 
HETATM    8  H19 UNL     1      25.379   2.183  49.091  1.00  0.00     0.184 HD
BRANCH   7   9
HETATM    9  C18 UNL     1      25.388   2.548  51.211  1.00  0.00     0.727 A 
HETATM   10  N3  UNL     1      24.710   3.181  52.171  1.00  0.00    -0.075 NA
HETATM   11  C19 UNL     1      24.911   2.872  53.482  1.00  0.00     0.139 A 
HETATM   12  C20 UNL     1      25.843   1.881  53.774  1.00  0.00     0.053 A 
HETATM   13  C21 UNL     1      26.539   1.235  52.796  1.00  0.00     0.089 A 
HETATM   14  N5  UNL     1      26.279   1.599  51.531  1.00  0.00    -0.062 NA
BRANCH  13  15
HETATM   15  C22 UNL     1      27.526   0.191  53.022  1.00  0.00     0.011 A 
HETATM   16  C23 UNL     1      28.793   0.552  53.398  1.00  0.00     0.017 A 
HETATM   17  C24 UNL     1      29.728  -0.445  53.612  1.00  0.00     0.020 A 
HETATM   18  C25 UNL     1      29.428  -1.769  53.463  1.00  0.00     0.116 A 
HETATM   19  N4  UNL     1      28.169  -2.131  53.092  1.00  0.00    -0.272 NA
HETATM   20  C26 UNL     1      27.253  -1.149  52.881  1.00  0.00     0.130 A 
ENDBRANCH  13  15
ENDBRANCH   7   9
ENDBRANCH   1   7
BRANCH   2  21
HETATM   21  C7  UNL     1      22.441   3.140  49.084  1.00  0.00     0.152 C 
BRANCH  21  22
HETATM   22  N1  UNL     1      22.295   2.509  50.390  1.00  0.00    -0.354 N 
HETATM   23  C8  UNL     1      21.857   1.165  50.522  1.00  0.00     0.248 C 
HETATM   24  O1  UNL     1      21.617   0.595  49.450  1.00  0.00    -0.268 OA
HETATM   25  H11 UNL     1      22.519   3.058  51.273  1.00  0.00     0.163 HD
BRANCH  23  26
HETATM   26  C9  UNL     1      21.720   0.564  51.816  1.00  0.00     0.022 C 
HETATM   27  C10 UNL     1      22.607   0.178  52.711  1.00  0.00     0.014 C 
HETATM   28  C11 UNL     1      22.411  -0.455  54.007  1.00  0.00     0.001 C 
HETATM   29  C12 UNL     1      21.164  -0.760  54.416  1.00  0.00     0.008 C 
HETATM   30  C13 UNL     1      20.173  -0.408  53.415  1.00  0.00    -0.046 A 
HETATM   31  C14 UNL     1      18.941  -0.915  53.225  1.00  0.00     0.008 A 
HETATM   32  C17 UNL     1      20.388   0.617  52.403  1.00  0.00     0.080 A 
HETATM   33  C15 UNL     1      18.335  -0.239  52.075  1.00  0.00    -0.002 A 
HETATM   34  C16 UNL     1      19.204   0.667  51.586  1.00  0.00    -0.012 A 
ENDBRANCH  23  26
ENDBRANCH  21  22
ENDBRANCH   2  21
TORSDOF 7
ENDMDL
MODEL 3
REMARK VINA RESULT:      -9.8      2.669      6.570
REMARK  7 active torsions:
REMARK  status: ('A' for Active; 'I' for Inactive)
REMARK    1  A    between atoms: C3_3  and  C5_5 
REMARK    2  A    between atoms: C5_5  and  N2_20 
REMARK    3  A    between atoms: C6_6  and  C7_7 
REMARK    4  A    between atoms: C7_7  and  N1_8 
REMARK       I    between atoms: N1_8  and  C8_9 
REMARK    5  A    between atoms: C8_9  and  C9_11 
REMARK    6  A    between atoms: N2_20  and  C18_21 
REMARK    7  A    between atoms: C21_25  and  C22_26 
ROOT
HETATM    1  C5  UNL     1      23.532   4.185  49.351  1.00  0.00     0.052 C 
HETATM    2  C6  UNL     1      24.859   4.071  49.187  1.00  0.00     0.023 C 
ENDROOT
BRANCH   1   3
HETATM    3  C3  UNL     1      22.582   4.033  48.233  1.00  0.00    -0.039 C 
HETATM    4  C2  UNL     1      21.972   5.063  47.716  1.00  0.00    -0.022 C 
HETATM    5  C1  UNL     1      21.029   4.848  46.593  1.00  0.00     0.036 C 
HETATM    6  C4  UNL     1      22.361   2.646  47.731  1.00  0.00     0.050 C 
ENDBRANCH   1   3
BRANCH   1   7
HETATM    7  N2  UNL     1      23.036   4.463  50.655  1.00  0.00    -0.188 N 
HETATM    8  H19 UNL     1      23.508   5.219  51.172  1.00  0.00     0.184 HD
BRANCH   7   9
HETATM    9  C18 UNL     1      21.950   3.736  51.214  1.00  0.00     0.727 A 
HETATM   10  N3  UNL     1      20.687   4.107  50.996  1.00  0.00    -0.075 NA
HETATM   11  C19 UNL     1      19.653   3.405  51.535  1.00  0.00     0.139 A 
HETATM   12  C20 UNL     1      19.966   2.296  52.315  1.00  0.00     0.053 A 
HETATM   13  C21 UNL     1      21.255   1.914  52.541  1.00  0.00     0.089 A 
HETATM   14  N5  UNL     1      22.213   2.661  51.971  1.00  0.00    -0.062 NA
BRANCH  13  15
HETATM   15  C22 UNL     1      21.660   0.770  53.342  1.00  0.00     0.011 A 
HETATM   16  C23 UNL     1      22.974   0.384  53.323  1.00  0.00     0.017 A 
HETATM   17  C24 UNL     1      23.355  -0.705  54.087  1.00  0.00     0.020 A 
HETATM   18  C25 UNL     1      22.465  -1.401  54.856  1.00  0.00     0.116 A 
HETATM   19  N4  UNL     1      21.159  -1.018  54.879  1.00  0.00    -0.272 NA
HETATM   20  C26 UNL     1      20.788   0.051  54.126  1.00  0.00     0.130 A 
ENDBRANCH  13  15
ENDBRANCH   7   9
ENDBRANCH   1   7
BRANCH   2  21
HETATM   21  C7  UNL     1      25.856   4.211  50.255  1.00  0.00     0.152 C 
BRANCH  21  22
HETATM   22  N1  UNL     1      26.449   2.942  50.661  1.00  0.00    -0.354 N 
HETATM   23  C8  UNL     1      26.081   2.303  51.873  1.00  0.00     0.248 C 
HETATM   24  O1  UNL     1      25.230   2.909  52.536  1.00  0.00    -0.268 OA
HETATM   25  H11 UNL     1      27.176   2.473  50.041  1.00  0.00     0.163 HD
BRANCH  23  26
HETATM   26  C9  UNL     1      26.676   1.055  52.253  1.00  0.00     0.022 C 
HETATM   27  C10 UNL     1      26.333  -0.196  52.021  1.00  0.00     0.014 C 
HETATM   28  C11 UNL     1      26.964  -1.434  52.457  1.00  0.00     0.001 C 
HETATM   29  C12 UNL     1      28.052  -1.382  53.249  1.00  0.00     0.008 C 
HETATM   30  C13 UNL     1      28.409  -0.012  53.577  1.00  0.00    -0.046 A 
HETATM   31  C14 UNL     1      29.098   0.456  54.633  1.00  0.00     0.008 A 
HETATM   32  C17 UNL     1      28.043   1.129  52.749  1.00  0.00     0.080 A 
HETATM   33  C15 UNL     1      29.184   1.914  54.520  1.00  0.00    -0.002 A 
HETATM   34  C16 UNL     1      28.548   2.309  53.400  1.00  0.00    -0.012 A 
ENDBRANCH  23  26
ENDBRANCH  21  22
ENDBRANCH   2  21
TORSDOF 7
ENDMDL
MODEL 4
REMARK VINA RESULT:      -9.7      2.242      8.286
REMARK  7 active torsions:
REMARK  status: ('A' for Active; 'I' for Inactive)
REMARK    1  A    between atoms: C3_3  and  C5_5 
REMARK    2  A    between atoms: C5_5  and  N2_20 
REMARK    3  A    between atoms: C6_6  and  C7_7 
REMARK    4  A    between atoms: C7_7  and  N1_8 
REMARK       I    between atoms: N1_8  and  C8_9 
REMARK    5  A    between atoms: C8_9  and  C9_11 
REMARK    6  A    between atoms: N2_20  and  C18_21 
REMARK    7  A    between atoms: C21_25  and  C22_26 
ROOT
HETATM    1  C5  UNL     1      23.281   2.139  51.503  1.00  0.00     0.052 C 
HETATM    2  C6  UNL     1      23.655   2.420  52.760  1.00  0.00     0.023 C 
ENDROOT
BRANCH   1   3
HETATM    3  C3  UNL     1      22.012   1.453  51.192  1.00  0.00    -0.039 C 
HETATM    4  C2  UNL     1      21.166   1.134  52.131  1.00  0.00    -0.022 C 
HETATM    5  C1  UNL     1      19.907   0.445  51.758  1.00  0.00     0.036 C 
HETATM    6  C4  UNL     1      21.754   1.148  49.755  1.00  0.00     0.050 C 
ENDBRANCH   1   3
BRANCH   1   7
HETATM    7  N2  UNL     1      24.146   2.520  50.440  1.00  0.00    -0.188 N 
HETATM    8  H19 UNL     1      24.755   1.781  50.059  1.00  0.00     0.184 HD
BRANCH   7   9
HETATM    9  C18 UNL     1      24.170   3.848  49.934  1.00  0.00     0.727 A 
HETATM   10  N3  UNL     1      23.066   4.596  49.909  1.00  0.00    -0.075 NA
HETATM   11  C19 UNL     1      23.099   5.867  49.421  1.00  0.00     0.139 A 
HETATM   12  C20 UNL     1      24.319   6.346  48.955  1.00  0.00     0.053 A 
HETATM   13  C21 UNL     1      25.449   5.584  48.978  1.00  0.00     0.089 A 
HETATM   14  N5  UNL     1      25.329   4.344  49.476  1.00  0.00    -0.062 NA
BRANCH  13  15
HETATM   15  C22 UNL     1      26.757   6.014  48.510  1.00  0.00     0.011 A 
HETATM   16  C23 UNL     1      27.809   5.141  48.599  1.00  0.00     0.017 A 
HETATM   17  C24 UNL     1      29.051   5.554  48.153  1.00  0.00     0.020 A 
HETATM   18  C25 UNL     1      29.259   6.798  47.629  1.00  0.00     0.116 A 
HETATM   19  N4  UNL     1      28.215   7.668  47.538  1.00  0.00    -0.272 NA
HETATM   20  C26 UNL     1      26.996   7.259  47.978  1.00  0.00     0.130 A 
ENDBRANCH  13  15
ENDBRANCH   7   9
ENDBRANCH   1   7
BRANCH   2  21
HETATM   21  C7  UNL     1      24.901   3.099  53.137  1.00  0.00     0.152 C 
BRANCH  21  22
HETATM   22  N1  UNL     1      25.955   2.181  53.553  1.00  0.00    -0.354 N 
HETATM   23  C8  UNL     1      26.995   1.794  52.668  1.00  0.00     0.248 C 
HETATM   24  O1  UNL     1      26.924   2.296  51.540  1.00  0.00    -0.268 OA
HETATM   25  H11 UNL     1      25.956   1.785  54.540  1.00  0.00     0.163 HD
BRANCH  23  26
HETATM   26  C9  UNL     1      28.022   0.889  53.097  1.00  0.00     0.022 C 
HETATM   27  C10 UNL     1      29.255   1.086  53.516  1.00  0.00     0.014 C 
HETATM   28  C11 UNL     1      30.270   0.122  53.917  1.00  0.00     0.001 C 
HETATM   29  C12 UNL     1      30.000  -1.195  53.846  1.00  0.00     0.008 C 
HETATM   30  C13 UNL     1      28.669  -1.440  53.319  1.00  0.00    -0.046 A 
HETATM   31  C14 UNL     1      28.191  -2.531  52.694  1.00  0.00     0.008 A 
HETATM   32  C17 UNL     1      27.587  -0.467  53.398  1.00  0.00     0.080 A 
HETATM   33  C15 UNL     1      26.790  -2.285  52.342  1.00  0.00    -0.002 A 
HETATM   34  C16 UNL     1      26.439  -1.053  52.757  1.00  0.00    -0.012 A 
ENDBRANCH  23  26
ENDBRANCH  21  22
ENDBRANCH   2  21
TORSDOF 7
ENDMDL
MODEL 5
REMARK VINA RESULT:      -9.6      2.655      3.501
REMARK  7 active torsions:
REMARK  status: ('A' for Active; 'I' for Inactive)
REMARK    1  A    between atoms: C3_3  and  C5_5 
REMARK    2  A    between atoms: C5_5  and  N2_20 
REMARK    3  A    between atoms: C6_6  and  C7_7 
REMARK    4  A    between atoms: C7_7  and  N1_8 
REMARK       I    between atoms: N1_8  and  C8_9 
REMARK    5  A    between atoms: C8_9  and  C9_11 
REMARK    6  A    between atoms: N2_20  and  C18_21 
REMARK    7  A    between atoms: C21_25  and  C22_26 
ROOT
HETATM    1  C5  UNL     1      26.207   0.650  53.127  1.00  0.00     0.052 C 
HETATM    2  C6  UNL     1      26.198   1.923  53.549  1.00  0.00     0.023 C 
ENDROOT
BRANCH   1   3
HETATM    3  C3  UNL     1      27.402  -0.209  53.235  1.00  0.00    -0.039 C 
HETATM    4  C2  UNL     1      28.507   0.232  53.767  1.00  0.00    -0.022 C 
HETATM    5  C1  UNL     1      29.676  -0.678  53.849  1.00  0.00     0.036 C 
HETATM    6  C4  UNL     1      27.274  -1.598  52.707  1.00  0.00     0.050 C 
ENDBRANCH   1   3
BRANCH   1   7
HETATM    7  N2  UNL     1      25.017   0.120  52.557  1.00  0.00    -0.188 N 
HETATM    8  H19 UNL     1      24.981   0.081  51.527  1.00  0.00     0.184 HD
BRANCH   7   9
HETATM    9  C18 UNL     1      23.935  -0.328  53.362  1.00  0.00     0.727 A 
HETATM   10  N3  UNL     1      24.147  -0.847  54.574  1.00  0.00    -0.075 NA
HETATM   11  C19 UNL     1      23.104  -1.274  55.338  1.00  0.00     0.139 A 
HETATM   12  C20 UNL     1      21.824  -1.149  54.809  1.00  0.00     0.053 A 
HETATM   13  C21 UNL     1      21.604  -0.620  53.572  1.00  0.00     0.089 A 
HETATM   14  N5  UNL     1      22.686  -0.223  52.886  1.00  0.00    -0.062 NA
BRANCH  13  15
HETATM   15  C22 UNL     1      20.298  -0.456  52.952  1.00  0.00     0.011 A 
HETATM   16  C23 UNL     1      20.201   0.287  51.806  1.00  0.00     0.017 A 
HETATM   17  C24 UNL     1      18.957   0.440  51.220  1.00  0.00     0.020 A 
HETATM   18  C25 UNL     1      17.830  -0.126  51.748  1.00  0.00     0.116 A 
HETATM   19  N4  UNL     1      17.924  -0.867  52.886  1.00  0.00    -0.272 NA
HETATM   20  C26 UNL     1      19.148  -1.014  53.459  1.00  0.00     0.130 A 
ENDBRANCH  13  15
ENDBRANCH   7   9
ENDBRANCH   1   7
BRANCH   2  21
HETATM   21  C7  UNL     1      25.045   2.830  53.470  1.00  0.00     0.152 C 
BRANCH  21  22
HETATM   22  N1  UNL     1      24.806   3.344  52.127  1.00  0.00    -0.354 N 
HETATM   23  C8  UNL     1      23.492   3.544  51.630  1.00  0.00     0.248 C 
HETATM   24  O1  UNL     1      22.591   3.248  52.426  1.00  0.00    -0.268 OA
HETATM   25  H11 UNL     1      25.628   3.579  51.494  1.00  0.00     0.163 HD
BRANCH  23  26
HETATM   26  C9  UNL     1      23.279   4.050  50.306  1.00  0.00     0.022 C 
HETATM   27  C10 UNL     1      23.421   5.252  49.785  1.00  0.00     0.014 C 
HETATM   28  C11 UNL     1      23.163   5.719  48.430  1.00  0.00     0.001 C 
HETATM   29  C12 UNL     1      22.670   4.863  47.515  1.00  0.00     0.008 C 
HETATM   30  C13 UNL     1      22.438   3.547  48.085  1.00  0.00    -0.046 A 
HETATM   31  C14 UNL     1      21.587   2.586  47.682  1.00  0.00     0.008 A 
HETATM   32  C17 UNL     1      23.143   3.049  49.258  1.00  0.00     0.080 A 
HETATM   33  C15 UNL     1      21.713   1.446  48.593  1.00  0.00    -0.002 A 
HETATM   34  C16 UNL     1      22.635   1.730  49.533  1.00  0.00    -0.012 A 
ENDBRANCH  23  26
ENDBRANCH  21  22
ENDBRANCH   2  21
TORSDOF 7
ENDMDL
MODEL 6
REMARK VINA RESULT:      -9.6      2.509      3.349
REMARK  7 active torsions:
REMARK  status: ('A' for Active; 'I' for Inactive)
REMARK    1  A    between atoms: C3_3  and  C5_5 
REMARK    2  A    between atoms: C5_5  and  N2_20 
REMARK    3  A    between atoms: C6_6  and  C7_7 
REMARK    4  A    between atoms: C7_7  and  N1_8 
REMARK       I    between atoms: N1_8  and  C8_9 
REMARK    5  A    between atoms: C8_9  and  C9_11 
REMARK    6  A    between atoms: N2_20  and  C18_21 
REMARK    7  A    between atoms: C21_25  and  C22_26 
ROOT
HETATM    1  C5  UNL     1      26.919   0.281  52.910  1.00  0.00     0.052 C 
HETATM    2  C6  UNL     1      26.981   1.137  51.879  1.00  0.00     0.023 C 
ENDROOT
BRANCH   1   3
HETATM    3  C3  UNL     1      27.644  -1.004  52.913  1.00  0.00    -0.039 C 
HETATM    4  C2  UNL     1      28.858  -1.097  53.378  1.00  0.00    -0.022 C 
HETATM    5  C1  UNL     1      29.536  -2.416  53.355  1.00  0.00     0.036 C 
HETATM    6  C4  UNL     1      26.915  -2.181  52.358  1.00  0.00     0.050 C 
ENDBRANCH   1   3
BRANCH   1   7
HETATM    7  N2  UNL     1      26.125   0.636  54.035  1.00  0.00    -0.188 N 
HETATM    8  H19 UNL     1      26.457   1.434  54.596  1.00  0.00     0.184 HD
BRANCH   7   9
HETATM    9  C18 UNL     1      24.938  -0.072  54.367  1.00  0.00     0.727 A 
HETATM   10  N3  UNL     1      24.907  -0.921  55.397  1.00  0.00    -0.075 NA
HETATM   11  C19 UNL     1      23.766  -1.595  55.707  1.00  0.00     0.139 A 
HETATM   12  C20 UNL     1      22.646  -1.364  54.914  1.00  0.00     0.053 A 
HETATM   13  C21 UNL     1      22.674  -0.499  53.862  1.00  0.00     0.089 A 
HETATM   14  N5  UNL     1      23.838   0.124  53.626  1.00  0.00    -0.062 NA
BRANCH  13  15
HETATM   15  C22 UNL     1      21.547  -0.206  52.990  1.00  0.00     0.011 A 
HETATM   16  C23 UNL     1      21.795   0.260  51.726  1.00  0.00     0.017 A 
HETATM   17  C24 UNL     1      20.720   0.537  50.901  1.00  0.00     0.020 A 
HETATM   18  C25 UNL     1      19.427   0.360  51.306  1.00  0.00     0.116 A 
HETATM   19  N4  UNL     1      19.178  -0.105  52.561  1.00  0.00    -0.272 NA
HETATM   20  C26 UNL     1      20.236  -0.375  53.369  1.00  0.00     0.130 A 
ENDBRANCH  13  15
ENDBRANCH   7   9
ENDBRANCH   1   7
BRANCH   2  21
HETATM   21  C7  UNL     1      26.286   2.429  51.813  1.00  0.00     0.152 C 
BRANCH  21  22
HETATM   22  N1  UNL     1      24.985   2.352  51.160  1.00  0.00    -0.354 N 
HETATM   23  C8  UNL     1      24.612   3.259  50.135  1.00  0.00     0.248 C 
HETATM   24  O1  UNL     1      25.474   4.101  49.854  1.00  0.00    -0.268 OA
HETATM   25  H11 UNL     1      24.289   1.601  51.450  1.00  0.00     0.163 HD
BRANCH  23  26
HETATM   26  C9  UNL     1      23.327   3.165  49.506  1.00  0.00     0.022 C 
HETATM   27  C10 UNL     1      22.899   2.479  48.465  1.00  0.00     0.014 C 
HETATM   28  C11 UNL     1      21.580   2.442  47.850  1.00  0.00     0.001 C 
HETATM   29  C12 UNL     1      20.597   3.224  48.336  1.00  0.00     0.008 C 
HETATM   30  C13 UNL     1      21.064   4.044  49.441  1.00  0.00    -0.046 A 
HETATM   31  C14 UNL     1      20.580   5.215  49.893  1.00  0.00     0.008 A 
HETATM   32  C17 UNL     1      22.205   3.687  50.274  1.00  0.00     0.080 A 
HETATM   33  C15 UNL     1      21.406   5.651  51.022  1.00  0.00    -0.002 A 
HETATM   34  C16 UNL     1      22.375   4.741  51.240  1.00  0.00    -0.012 A 
ENDBRANCH  23  26
ENDBRANCH  21  22
ENDBRANCH   2  21
TORSDOF 7
ENDMDL
MODEL 7
REMARK VINA RESULT:      -9.5      2.287      6.052
REMARK  7 active torsions:
REMARK  status: ('A' for Active; 'I' for Inactive)
REMARK    1  A    between atoms: C3_3  and  C5_5 
REMARK    2  A    between atoms: C5_5  and  N2_20 
REMARK    3  A    between atoms: C6_6  and  C7_7 
REMARK    4  A    between atoms: C7_7  and  N1_8 
REMARK       I    between atoms: N1_8  and  C8_9 
REMARK    5  A    between atoms: C8_9  and  C9_11 
REMARK    6  A    between atoms: N2_20  and  C18_21 
REMARK    7  A    between atoms: C21_25  and  C22_26 
ROOT
HETATM    1  C5  UNL     1      20.751   0.253  51.361  1.00  0.00     0.052 C 
HETATM    2  C6  UNL     1      20.340   0.708  50.168  1.00  0.00     0.023 C 
ENDROOT
BRANCH   1   3
HETATM    3  C3  UNL     1      19.807  -0.092  52.442  1.00  0.00    -0.039 C 
HETATM    4  C2  UNL     1      18.620  -0.561  52.180  1.00  0.00    -0.022 C 
HETATM    5  C1  UNL     1      17.715  -0.890  53.308  1.00  0.00     0.036 C 
HETATM    6  C4  UNL     1      20.285   0.127  53.838  1.00  0.00     0.050 C 
ENDBRANCH   1   3
BRANCH   1   7
HETATM    7  N2  UNL     1      22.148   0.101  51.580  1.00  0.00    -0.188 N 
HETATM    8  H19 UNL     1      22.555  -0.809  51.321  1.00  0.00     0.184 HD
BRANCH   7   9
HETATM    9  C18 UNL     1      22.938   1.148  52.129  1.00  0.00     0.727 A 
HETATM   10  N3  UNL     1      22.483   2.402  52.179  1.00  0.00    -0.075 NA
HETATM   11  C19 UNL     1      23.247   3.397  52.707  1.00  0.00     0.139 A 
HETATM   12  C20 UNL     1      24.508   3.056  53.184  1.00  0.00     0.053 A 
HETATM   13  C21 UNL     1      24.977   1.777  53.133  1.00  0.00     0.089 A 
HETATM   14  N5  UNL     1      24.160   0.857  52.599  1.00  0.00    -0.062 NA
BRANCH  13  15
HETATM   15  C22 UNL     1      26.281   1.345  53.612  1.00  0.00     0.011 A 
HETATM   16  C23 UNL     1      27.396   2.011  53.180  1.00  0.00     0.017 A 
HETATM   17  C24 UNL     1      28.634   1.596  53.638  1.00  0.00     0.020 A 
HETATM   18  C25 UNL     1      28.775   0.549  54.504  1.00  0.00     0.116 A 
HETATM   19  N4  UNL     1      27.668  -0.115  54.937  1.00  0.00    -0.272 NA
HETATM   20  C26 UNL     1      26.454   0.296  54.484  1.00  0.00     0.130 A 
ENDBRANCH  13  15
ENDBRANCH   7   9
ENDBRANCH   1   7
BRANCH   2  21
HETATM   21  C7  UNL     1      21.224   1.068  49.052  1.00  0.00     0.152 C 
BRANCH  21  22
HETATM   22  N1  UNL     1      21.823   2.390  49.194  1.00  0.00    -0.354 N 
HETATM   23  C8  UNL     1      22.696   2.921  48.209  1.00  0.00     0.248 C 
HETATM   24  O1  UNL     1      22.897   2.174  47.243  1.00  0.00    -0.268 OA
HETATM   25  H11 UNL     1      21.607   2.982  50.052  1.00  0.00     0.163 HD
BRANCH  23  26
HETATM   26  C9  UNL     1      23.274   4.224  48.369  1.00  0.00     0.022 C 
HETATM   27  C10 UNL     1      22.854   5.425  48.029  1.00  0.00     0.014 C 
HETATM   28  C11 UNL     1      23.498   6.721  48.193  1.00  0.00     0.001 C 
HETATM   29  C12 UNL     1      24.729   6.787  48.735  1.00  0.00     0.008 C 
HETATM   30  C13 UNL     1      25.244   5.466  49.054  1.00  0.00    -0.046 A 
HETATM   31  C14 UNL     1      26.521   5.060  49.177  1.00  0.00     0.008 A 
HETATM   32  C17 UNL     1      24.388   4.313  49.301  1.00  0.00     0.080 A 
HETATM   33  C15 UNL     1      26.521   3.630  49.495  1.00  0.00    -0.002 A 
HETATM   34  C16 UNL     1      25.250   3.190  49.561  1.00  0.00    -0.012 A 
ENDBRANCH  23  26
ENDBRANCH  21  22
ENDBRANCH   2  21
TORSDOF 7
ENDMDL
MODEL 8
REMARK VINA RESULT:      -9.3      2.334      8.130
REMARK  7 active torsions:
REMARK  status: ('A' for Active; 'I' for Inactive)
REMARK    1  A    between atoms: C3_3  and  C5_5 
REMARK    2  A    between atoms: C5_5  and  N2_20 
REMARK    3  A    between atoms: C6_6  and  C7_7 
REMARK    4  A    between atoms: C7_7  and  N1_8 
REMARK       I    between atoms: N1_8  and  C8_9 
REMARK    5  A    between atoms: C8_9  and  C9_11 
REMARK    6  A    between atoms: N2_20  and  C18_21 
REMARK    7  A    between atoms: C21_25  and  C22_26 
ROOT
HETATM    1  C5  UNL     1      24.342   4.308  50.852  1.00  0.00     0.052 C 
HETATM    2  C6  UNL     1      23.099   4.556  50.413  1.00  0.00     0.023 C 
ENDROOT
BRANCH   1   3
HETATM    3  C3  UNL     1      25.525   4.411  49.975  1.00  0.00    -0.039 C 
HETATM    4  C2  UNL     1      25.914   5.559  49.494  1.00  0.00    -0.022 C 
HETATM    5  C1  UNL     1      27.109   5.600  48.618  1.00  0.00     0.036 C 
HETATM    6  C4  UNL     1      26.242   3.139  49.672  1.00  0.00     0.050 C 
ENDBRANCH   1   3
BRANCH   1   7
HETATM    7  N2  UNL     1      24.514   3.934  52.213  1.00  0.00    -0.188 N 
HETATM    8  H19 UNL     1      24.589   4.704  52.894  1.00  0.00     0.184 HD
BRANCH   7   9
HETATM    9  C18 UNL     1      24.581   2.571  52.613  1.00  0.00     0.727 A 
HETATM   10  N3  UNL     1      23.472   1.859  52.823  1.00  0.00    -0.075 NA
HETATM   11  C19 UNL     1      23.546   0.555  53.206  1.00  0.00     0.139 A 
HETATM   12  C20 UNL     1      24.812   0.003  53.368  1.00  0.00     0.053 A 
HETATM   13  C21 UNL     1      25.947   0.727  53.156  1.00  0.00     0.089 A 
HETATM   14  N5  UNL     1      25.785   2.004  52.779  1.00  0.00    -0.062 NA
BRANCH  13  15
HETATM   15  C22 UNL     1      27.303   0.220  53.303  1.00  0.00     0.011 A 
HETATM   16  C23 UNL     1      27.545  -1.102  53.039  1.00  0.00     0.017 A 
HETATM   17  C24 UNL     1      28.836  -1.579  53.180  1.00  0.00     0.020 A 
HETATM   18  C25 UNL     1      29.869  -0.775  53.572  1.00  0.00     0.116 A 
HETATM   19  N4  UNL     1      29.632   0.540  53.834  1.00  0.00    -0.272 NA
HETATM   20  C26 UNL     1      28.363   1.004  53.694  1.00  0.00     0.130 A 
ENDBRANCH  13  15
ENDBRANCH   7   9
ENDBRANCH   1   7
BRANCH   2  21
HETATM   21  C7  UNL     1      21.883   4.472  51.231  1.00  0.00     0.152 C 
BRANCH  21  22
HETATM   22  N1  UNL     1      20.914   3.506  50.727  1.00  0.00    -0.354 N 
HETATM   23  C8  UNL     1      19.971   2.882  51.585  1.00  0.00     0.248 C 
HETATM   24  O1  UNL     1      20.047   3.228  52.771  1.00  0.00    -0.268 OA
HETATM   25  H11 UNL     1      20.903   3.253  49.694  1.00  0.00     0.163 HD
BRANCH  23  26
HETATM   26  C9  UNL     1      19.027   1.934  51.069  1.00  0.00     0.022 C 
HETATM   27  C10 UNL     1      18.133   2.012  50.104  1.00  0.00     0.014 C 
HETATM   28  C11 UNL     1      17.175   1.020  49.636  1.00  0.00     0.001 C 
HETATM   29  C12 UNL     1      17.103  -0.176  50.252  1.00  0.00     0.008 C 
HETATM   30  C13 UNL     1      18.031  -0.260  51.366  1.00  0.00    -0.046 A 
HETATM   31  C14 UNL     1      17.975  -1.041  52.460  1.00  0.00     0.008 A 
HETATM   32  C17 UNL     1      19.239   0.549  51.462  1.00  0.00     0.080 A 
HETATM   33  C15 UNL     1      19.140  -0.746  53.298  1.00  0.00    -0.002 A 
HETATM   34  C16 UNL     1      19.885   0.205  52.702  1.00  0.00    -0.012 A 
ENDBRANCH  23  26
ENDBRANCH  21  22
ENDBRANCH   2  21
TORSDOF 7
ENDMDL
MODEL 9
REMARK VINA RESULT:      -9.3      2.257      8.044
REMARK  7 active torsions:
REMARK  status: ('A' for Active; 'I' for Inactive)
REMARK    1  A    between atoms: C3_3  and  C5_5 
REMARK    2  A    between atoms: C5_5  and  N2_20 
REMARK    3  A    between atoms: C6_6  and  C7_7 
REMARK    4  A    between atoms: C7_7  and  N1_8 
REMARK       I    between atoms: N1_8  and  C8_9 
REMARK    5  A    between atoms: C8_9  and  C9_11 
REMARK    6  A    between atoms: N2_20  and  C18_21 
REMARK    7  A    between atoms: C21_25  and  C22_26 
ROOT
HETATM    1  C5  UNL     1      24.447   4.535  49.197  1.00  0.00     0.052 C 
HETATM    2  C6  UNL     1      23.291   4.345  48.542  1.00  0.00     0.023 C 
ENDROOT
BRANCH   1   3
HETATM    3  C3  UNL     1      24.982   5.881  49.477  1.00  0.00    -0.039 C 
HETATM    4  C2  UNL     1      24.262   6.785  50.081  1.00  0.00    -0.022 C 
HETATM    5  C1  UNL     1      24.854   8.120  50.336  1.00  0.00     0.036 C 
HETATM    6  C4  UNL     1      26.381   6.148  49.033  1.00  0.00     0.050 C 
ENDBRANCH   1   3
BRANCH   1   7
HETATM    7  N2  UNL     1      25.172   3.392  49.631  1.00  0.00    -0.188 N 
HETATM    8  H19 UNL     1      25.660   2.854  48.899  1.00  0.00     0.184 HD
BRANCH   7   9
HETATM    9  C18 UNL     1      25.220   3.010  50.999  1.00  0.00     0.727 A 
HETATM   10  N3  UNL     1      24.355   3.509  51.885  1.00  0.00    -0.075 NA
HETATM   11  C19 UNL     1      24.409   3.138  53.193  1.00  0.00     0.139 A 
HETATM   12  C20 UNL     1      25.393   2.227  53.564  1.00  0.00     0.053 A 
HETATM   13  C21 UNL     1      26.278   1.715  52.663  1.00  0.00     0.089 A 
HETATM   14  N5  UNL     1      26.155   2.133  51.394  1.00  0.00    -0.062 NA
BRANCH  13  15
HETATM   15  C22 UNL     1      27.331   0.761  52.973  1.00  0.00     0.011 A 
HETATM   16  C23 UNL     1      28.563   1.234  53.339  1.00  0.00     0.017 A 
HETATM   17  C24 UNL     1      29.561   0.322  53.634  1.00  0.00     0.020 A 
HETATM   18  C25 UNL     1      29.354  -1.027  53.573  1.00  0.00     0.116 A 
HETATM   19  N4  UNL     1      28.130  -1.500  53.211  1.00  0.00    -0.272 NA
HETATM   20  C26 UNL     1      27.153  -0.602  52.921  1.00  0.00     0.130 A 
ENDBRANCH  13  15
ENDBRANCH   7   9
ENDBRANCH   1   7
BRANCH   2  21
HETATM   21  C7  UNL     1      22.703   3.035  48.231  1.00  0.00     0.152 C 
BRANCH  21  22
HETATM   22  N1  UNL     1      21.712   2.601  49.208  1.00  0.00    -0.354 N 
HETATM   23  C8  UNL     1      21.215   1.272  49.224  1.00  0.00     0.248 C 
HETATM   24  O1  UNL     1      21.691   0.535  48.352  1.00  0.00    -0.268 OA
HETATM   25  H11 UNL     1      21.344   3.288  49.933  1.00  0.00     0.163 HD
BRANCH  23  26
HETATM   26  C9  UNL     1      20.240   0.866  50.194  1.00  0.00     0.022 C 
HETATM   27  C10 UNL     1      18.926   0.782  50.145  1.00  0.00     0.014 C 
HETATM   28  C11 UNL     1      17.977   0.387  51.177  1.00  0.00     0.001 C 
HETATM   29  C12 UNL     1      18.425   0.076  52.408  1.00  0.00     0.008 C 
HETATM   30  C13 UNL     1      19.866   0.230  52.507  1.00  0.00    -0.046 A 
HETATM   31  C14 UNL     1      20.623   0.453  53.596  1.00  0.00     0.008 A 
HETATM   32  C17 UNL     1      20.758   0.160  51.357  1.00  0.00     0.080 A 
HETATM   33  C15 UNL     1      22.023   0.545  53.175  1.00  0.00    -0.002 A 
HETATM   34  C16 UNL     1      22.096   0.377  51.840  1.00  0.00    -0.012 A 
ENDBRANCH  23  26
ENDBRANCH  21  22
ENDBRANCH   2  21
TORSDOF 7
ENDMDL
