MODEL 1
REMARK VINA RESULT:      -7.2      0.000      0.000
REMARK  3 active torsions:
REMARK  status: ('A' for Active; 'I' for Inactive)
REMARK    1  A    between atoms: C2_2  and  C3_3 
REMARK    2  A    between atoms: C6_7  and  C7_8 
REMARK    3  A    between atoms: C10_15  and  O1_16 
ROOT
HETATM    1  C3  UNL     1      23.859  -0.032  53.537  1.00  0.00     0.343 C 
HETATM    2  N1  UNL     1      24.397   1.038  52.755  1.00  0.00    -0.264 NA
HETATM    3  C4  UNL     1      23.827   1.635  51.784  1.00  0.00     0.143 C 
HETATM    4  C5  UNL     1      24.575   2.708  51.127  1.00  0.00     0.064 C 
HETATM    5  C6  UNL     1      24.097   3.406  50.108  1.00  0.00     0.020 C 
HETATM    6  N2  UNL     1      25.886   3.093  51.530  1.00  0.00    -0.276 N 
HETATM    7  N3  UNL     1      27.195   2.608  51.534  1.00  0.00    -0.170 NA
HETATM    8  C8  UNL     1      27.765   2.128  52.588  1.00  0.00     0.229 C 
HETATM    9  N4  UNL     1      27.482   1.882  53.958  1.00  0.00    -0.351 N 
HETATM   10  C9  UNL     1      26.985   0.611  54.373  1.00  0.00     0.043 C 
HETATM   11  C10 UNL     1      27.236  -0.581  53.810  1.00  0.00     0.096 C 
HETATM   12  C12 UNL     1      25.998  -1.018  53.067  1.00  0.00     0.341 C 
HETATM   13  N5  UNL     1      24.855  -0.995  53.945  1.00  0.00     0.119 N 
HETATM   14  C13 UNL     1      25.208  -0.809  55.332  1.00  0.00     0.282 C 
HETATM   15  C14 UNL     1      26.068   0.411  55.552  1.00  0.00     0.090 C 
HETATM   16  H11 UNL     1      25.974   4.034  51.976  1.00  0.00     0.189 HD
HETATM   17  H13 UNL     1      27.610   2.581  54.729  1.00  0.00     0.166 HD
ENDROOT
BRANCH   5  18
HETATM   18  C7  UNL     1      24.777   4.490  49.398  1.00  0.00     0.144 C 
HETATM   19 CL1  UNL     1      23.664   5.431  48.366  1.00  0.00    -0.126 Cl
ENDBRANCH   5  18
BRANCH   1  20
HETATM   20  C2  UNL     1      22.772  -0.820  52.792  1.00  0.00     0.055 C 
HETATM   21  C1  UNL     1      21.688  -1.241  53.760  1.00  0.00     0.009 C 
ENDBRANCH   1  20
BRANCH  11  22
HETATM   22  O1  UNL     1      28.544  -0.877  54.172  1.00  0.00    -0.356 OA
HETATM   23  C11 UNL     1      29.621  -1.045  53.308  1.00  0.00     0.209 C 
ENDBRANCH  11  22
TORSDOF 3
ENDMDL
MODEL 2
REMARK VINA RESULT:      -7.0      2.670      4.850
REMARK  3 active torsions:
REMARK  status: ('A' for Active; 'I' for Inactive)
REMARK    1  A    between atoms: C2_2  and  C3_3 
REMARK    2  A    between atoms: C6_7  and  C7_8 
REMARK    3  A    between atoms: C10_15  and  O1_16 
ROOT
HETATM    1  C3  UNL     1      24.456   2.109  51.250  1.00  0.00     0.343 C 
HETATM    2  N1  UNL     1      23.539   1.234  51.915  1.00  0.00    -0.264 NA
HETATM    3  C4  UNL     1      22.269   1.252  51.829  1.00  0.00     0.143 C 
HETATM    4  C5  UNL     1      21.531   0.255  52.606  1.00  0.00     0.064 C 
HETATM    5  C6  UNL     1      20.210   0.166  52.604  1.00  0.00     0.020 C 
HETATM    6  N2  UNL     1      22.176  -0.710  53.433  1.00  0.00    -0.276 N 
HETATM    7  N3  UNL     1      22.913  -0.790  54.616  1.00  0.00    -0.170 NA
HETATM    8  C8  UNL     1      24.195  -0.937  54.638  1.00  0.00     0.229 C 
HETATM    9  N4  UNL     1      25.289  -1.065  53.741  1.00  0.00    -0.351 N 
HETATM   10  C9  UNL     1      26.024   0.088  53.335  1.00  0.00     0.043 C 
HETATM   11  C10 UNL     1      26.234   1.208  54.044  1.00  0.00     0.096 C 
HETATM   12  C12 UNL     1      25.372   2.301  53.462  1.00  0.00     0.341 C 
HETATM   13  N5  UNL     1      25.617   2.429  52.047  1.00  0.00     0.119 N 
HETATM   14  C13 UNL     1      26.767   1.680  51.600  1.00  0.00     0.282 C 
HETATM   15  C14 UNL     1      26.699   0.225  51.994  1.00  0.00     0.090 C 
HETATM   16  H11 UNL     1      22.122  -1.704  53.112  1.00  0.00     0.189 HD
HETATM   17  H13 UNL     1      25.622  -1.969  53.330  1.00  0.00     0.166 HD
ENDROOT
BRANCH   5  18
HETATM   18  C7  UNL     1      19.399  -0.799  53.348  1.00  0.00     0.144 C 
HETATM   19 CL1  UNL     1      17.728  -0.906  52.729  1.00  0.00    -0.126 Cl
ENDBRANCH   5  18
BRANCH   1  20
HETATM   20  C2  UNL     1      23.815   3.448  50.859  1.00  0.00     0.055 C 
HETATM   21  C1  UNL     1      23.931   3.655  49.364  1.00  0.00     0.009 C 
ENDBRANCH   1  20
BRANCH  11  22
HETATM   22  O1  UNL     1      27.166   0.848  55.009  1.00  0.00    -0.356 OA
HETATM   23  C11 UNL     1      28.487   0.476  54.781  1.00  0.00     0.209 C 
ENDBRANCH  11  22
TORSDOF 3
ENDMDL
MODEL 3
REMARK VINA RESULT:      -6.9      3.366      5.543
REMARK  3 active torsions:
REMARK  status: ('A' for Active; 'I' for Inactive)
REMARK    1  A    between atoms: C2_2  and  C3_3 
REMARK    2  A    between atoms: C6_7  and  C7_8 
REMARK    3  A    between atoms: C10_15  and  O1_16 
ROOT
HETATM    1  C3  UNL     1      22.736   0.951  52.283  1.00  0.00     0.343 C 
HETATM    2  N1  UNL     1      24.165   0.875  52.268  1.00  0.00    -0.264 NA
HETATM    3  C4  UNL     1      24.895   0.124  52.993  1.00  0.00     0.143 C 
HETATM    4  C5  UNL     1      26.343   0.216  52.805  1.00  0.00     0.064 C 
HETATM    5  C6  UNL     1      27.212  -0.509  53.493  1.00  0.00     0.020 C 
HETATM    6  N2  UNL     1      26.944   1.098  51.860  1.00  0.00    -0.276 N 
HETATM    7  N3  UNL     1      27.142   2.462  51.639  1.00  0.00    -0.170 NA
HETATM    8  C8  UNL     1      26.450   3.146  50.793  1.00  0.00     0.229 C 
HETATM    9  N4  UNL     1      25.389   2.970  49.863  1.00  0.00    -0.351 N 
HETATM   10  C9  UNL     1      24.040   3.208  50.258  1.00  0.00     0.043 C 
HETATM   11  C10 UNL     1      23.605   4.083  51.179  1.00  0.00     0.096 C 
HETATM   12  C12 UNL     1      23.189   3.307  52.403  1.00  0.00     0.341 C 
HETATM   13  N5  UNL     1      22.236   2.286  52.047  1.00  0.00     0.119 N 
HETATM   14  C13 UNL     1      21.742   2.416  50.697  1.00  0.00     0.282 C 
HETATM   15  C14 UNL     1      22.853   2.481  49.678  1.00  0.00     0.090 C 
HETATM   16  H11 UNL     1      27.405   0.648  51.036  1.00  0.00     0.189 HD
HETATM   17  H13 UNL     1      25.512   2.667  48.867  1.00  0.00     0.166 HD
ENDROOT
BRANCH   5  18
HETATM   18  C7  UNL     1      28.669  -0.478  53.365  1.00  0.00     0.144 C 
HETATM   19 CL1  UNL     1      29.384  -2.113  53.305  1.00  0.00    -0.126 Cl
ENDBRANCH   5  18
BRANCH   1  20
HETATM   20  C2  UNL     1      22.133   0.491  53.617  1.00  0.00     0.055 C 
HETATM   21  C1  UNL     1      21.130  -0.615  53.373  1.00  0.00     0.009 C 
ENDBRANCH   1  20
BRANCH  11  22
HETATM   22  O1  UNL     1      23.739   5.327  50.576  1.00  0.00    -0.356 OA
HETATM   23  C11 UNL     1      24.194   6.494  51.184  1.00  0.00     0.209 C 
ENDBRANCH  11  22
TORSDOF 3
ENDMDL
MODEL 4
REMARK VINA RESULT:      -6.6      3.660      7.031
REMARK  3 active torsions:
REMARK  status: ('A' for Active; 'I' for Inactive)
REMARK    1  A    between atoms: C2_2  and  C3_3 
REMARK    2  A    between atoms: C6_7  and  C7_8 
REMARK    3  A    between atoms: C10_15  and  O1_16 
ROOT
HETATM    1  C3  UNL     1      25.901   4.526  50.020  1.00  0.00     0.343 C 
HETATM    2  N1  UNL     1      25.705   3.359  50.824  1.00  0.00    -0.264 NA
HETATM    3  C4  UNL     1      26.554   2.435  51.047  1.00  0.00     0.143 C 
HETATM    4  C5  UNL     1      26.129   1.330  51.907  1.00  0.00     0.064 C 
HETATM    5  C6  UNL     1      26.914   0.309  52.216  1.00  0.00     0.020 C 
HETATM    6  N2  UNL     1      24.830   1.259  52.486  1.00  0.00    -0.276 N 
HETATM    7  N3  UNL     1      23.497   1.071  52.116  1.00  0.00    -0.170 NA
HETATM    8  C8  UNL     1      22.646   2.037  52.030  1.00  0.00     0.229 C 
HETATM    9  N4  UNL     1      22.582   3.446  52.208  1.00  0.00    -0.351 N 
HETATM   10  C9  UNL     1      22.790   4.320  51.101  1.00  0.00     0.043 C 
HETATM   11  C10 UNL     1      22.504   4.080  49.811  1.00  0.00     0.096 C 
HETATM   12  C12 UNL     1      23.801   3.834  49.082  1.00  0.00     0.341 C 
HETATM   13  N5  UNL     1      24.713   4.928  49.302  1.00  0.00     0.119 N 
HETATM   14  C13 UNL     1      24.092   6.066  49.937  1.00  0.00     0.282 C 
HETATM   15  C14 UNL     1      23.387   5.699  51.220  1.00  0.00     0.090 C 
HETATM   16  H11 UNL     1      24.779   1.378  53.524  1.00  0.00     0.189 HD
HETATM   17  H13 UNL     1      22.387   3.924  53.120  1.00  0.00     0.166 HD
ENDROOT
BRANCH   5  18
HETATM   18  C7  UNL     1      26.568  -0.831  53.066  1.00  0.00     0.144 C 
HETATM   19 CL1  UNL     1      26.861  -2.396  52.258  1.00  0.00    -0.126 Cl
ENDBRANCH   5  18
BRANCH   1  20
HETATM   20  C2  UNL     1      27.002   4.340  48.967  1.00  0.00     0.055 C 
HETATM   21  C1  UNL     1      27.548   5.688  48.550  1.00  0.00     0.009 C 
ENDBRANCH   1  20
BRANCH  11  22
HETATM   22  O1  UNL     1      21.120   4.169  49.732  1.00  0.00    -0.356 OA
HETATM   23  C11 UNL     1      20.394   5.083  48.976  1.00  0.00     0.209 C 
ENDBRANCH  11  22
TORSDOF 3
ENDMDL
MODEL 5
REMARK VINA RESULT:      -6.5      3.777      6.490
REMARK  3 active torsions:
REMARK  status: ('A' for Active; 'I' for Inactive)
REMARK    1  A    between atoms: C2_2  and  C3_3 
REMARK    2  A    between atoms: C6_7  and  C7_8 
REMARK    3  A    between atoms: C10_15  and  O1_16 
ROOT
HETATM    1  C3  UNL     1      22.773   2.827  50.614  1.00  0.00     0.343 C 
HETATM    2  N1  UNL     1      23.531   1.930  51.432  1.00  0.00    -0.264 NA
HETATM    3  C4  UNL     1      24.782   1.700  51.354  1.00  0.00     0.143 C 
HETATM    4  C5  UNL     1      25.345   0.736  52.300  1.00  0.00     0.064 C 
HETATM    5  C6  UNL     1      26.628   0.410  52.326  1.00  0.00     0.020 C 
HETATM    6  N2  UNL     1      24.556   0.065  53.278  1.00  0.00    -0.276 N 
HETATM    7  N3  UNL     1      23.553  -0.902  53.371  1.00  0.00    -0.170 NA
HETATM    8  C8  UNL     1      22.313  -0.613  53.579  1.00  0.00     0.229 C 
HETATM    9  N4  UNL     1      21.481   0.523  53.775  1.00  0.00    -0.351 N 
HETATM   10  C9  UNL     1      20.822   1.132  52.667  1.00  0.00     0.043 C 
HETATM   11  C10 UNL     1      20.396   0.531  51.544  1.00  0.00     0.096 C 
HETATM   12  C12 UNL     1      21.330   0.916  50.424  1.00  0.00     0.341 C 
HETATM   13  N5  UNL     1      21.438   2.350  50.335  1.00  0.00     0.119 N 
HETATM   14  C13 UNL     1      20.467   3.045  51.146  1.00  0.00     0.282 C 
HETATM   15  C14 UNL     1      20.494   2.601  52.588  1.00  0.00     0.090 C 
HETATM   16  H11 UNL     1      24.728   0.332  54.275  1.00  0.00     0.189 HD
HETATM   17  H13 UNL     1      21.298   0.975  54.702  1.00  0.00     0.166 HD
ENDROOT
BRANCH   5  18
HETATM   18  C7  UNL     1      27.268  -0.541  53.236  1.00  0.00     0.144 C 
HETATM   19 CL1  UNL     1      27.190  -2.220  52.632  1.00  0.00    -0.126 Cl
ENDBRANCH   5  18
BRANCH   1  20
HETATM   20  C2  UNL     1      23.434   3.089  49.254  1.00  0.00     0.055 C 
HETATM   21  C1  UNL     1      23.533   4.579  49.010  1.00  0.00     0.009 C 
ENDBRANCH   1  20
BRANCH  11  22
HETATM   22  O1  UNL     1      19.271  -0.185  51.931  1.00  0.00    -0.356 OA
HETATM   23  C11 UNL     1      17.992  -0.062  51.396  1.00  0.00     0.209 C 
ENDBRANCH  11  22
TORSDOF 3
ENDMDL
MODEL 6
REMARK VINA RESULT:      -6.4      3.508      6.712
REMARK  3 active torsions:
REMARK  status: ('A' for Active; 'I' for Inactive)
REMARK    1  A    between atoms: C2_2  and  C3_3 
REMARK    2  A    between atoms: C6_7  and  C7_8 
REMARK    3  A    between atoms: C10_15  and  O1_16 
ROOT
HETATM    1  C3  UNL     1      25.554   4.313  50.195  1.00  0.00     0.343 C 
HETATM    2  N1  UNL     1      25.668   3.177  51.058  1.00  0.00    -0.264 NA
HETATM    3  C4  UNL     1      26.730   2.527  51.326  1.00  0.00     0.143 C 
HETATM    4  C5  UNL     1      26.606   1.391  52.241  1.00  0.00     0.064 C 
HETATM    5  C6  UNL     1      27.632   0.636  52.602  1.00  0.00     0.020 C 
HETATM    6  N2  UNL     1      25.366   1.002  52.823  1.00  0.00    -0.276 N 
HETATM    7  N3  UNL     1      24.137   0.445  52.463  1.00  0.00    -0.170 NA
HETATM    8  C8  UNL     1      23.060   1.142  52.329  1.00  0.00     0.229 C 
HETATM    9  N4  UNL     1      22.618   2.488  52.436  1.00  0.00    -0.351 N 
HETATM   10  C9  UNL     1      22.598   3.332  51.286  1.00  0.00     0.043 C 
HETATM   11  C10 UNL     1      22.404   2.961  50.010  1.00  0.00     0.096 C 
HETATM   12  C12 UNL     1      23.729   3.037  49.294  1.00  0.00     0.341 C 
HETATM   13  N5  UNL     1      24.311   4.345  49.459  1.00  0.00     0.119 N 
HETATM   14  C13 UNL     1      23.400   5.304  50.035  1.00  0.00     0.282 C 
HETATM   15  C14 UNL     1      22.801   4.825  51.335  1.00  0.00     0.090 C 
HETATM   16  H11 UNL     1      25.271   1.153  53.854  1.00  0.00     0.189 HD
HETATM   17  H13 UNL     1      22.290   2.940  53.322  1.00  0.00     0.166 HD
ENDROOT
BRANCH   5  18
HETATM   18  C7  UNL     1      27.593  -0.513  53.508  1.00  0.00     0.144 C 
HETATM   19 CL1  UNL     1      29.131  -1.420  53.524  1.00  0.00    -0.126 Cl
ENDBRANCH   5  18
BRANCH   1  20
HETATM   20  C2  UNL     1      26.679   4.378  49.153  1.00  0.00     0.055 C 
HETATM   21  C1  UNL     1      26.885   5.810  48.709  1.00  0.00     0.009 C 
ENDBRANCH   1  20
BRANCH  11  22
HETATM   22  O1  UNL     1      21.048   2.670  49.927  1.00  0.00    -0.356 OA
HETATM   23  C11 UNL     1      20.486   1.483  49.470  1.00  0.00     0.209 C 
ENDBRANCH  11  22
TORSDOF 3
ENDMDL
MODEL 7
REMARK VINA RESULT:      -6.4      8.315     10.359
REMARK  3 active torsions:
REMARK  status: ('A' for Active; 'I' for Inactive)
REMARK    1  A    between atoms: C2_2  and  C3_3 
REMARK    2  A    between atoms: C6_7  and  C7_8 
REMARK    3  A    between atoms: C10_15  and  O1_16 
ROOT
HETATM    1  C3  UNL     1      32.451   4.262  47.520  1.00  0.00     0.343 C 
HETATM    2  N1  UNL     1      31.425   5.190  47.889  1.00  0.00    -0.264 NA
HETATM    3  C4  UNL     1      30.168   4.985  47.867  1.00  0.00     0.143 C 
HETATM    4  C5  UNL     1      29.304   6.088  48.290  1.00  0.00     0.064 C 
HETATM    5  C6  UNL     1      27.982   6.005  48.314  1.00  0.00     0.020 C 
HETATM    6  N2  UNL     1      29.814   7.348  48.715  1.00  0.00    -0.276 N 
HETATM    7  N3  UNL     1      30.468   8.471  48.203  1.00  0.00    -0.170 NA
HETATM    8  C8  UNL     1      31.729   8.688  48.369  1.00  0.00     0.229 C 
HETATM    9  N4  UNL     1      32.862   8.090  48.984  1.00  0.00    -0.351 N 
HETATM   10  C9  UNL     1      33.713   7.225  48.236  1.00  0.00     0.043 C 
HETATM   11  C10 UNL     1      33.973   7.279  46.921  1.00  0.00     0.096 C 
HETATM   12  C12 UNL     1      33.242   6.142  46.252  1.00  0.00     0.341 C 
HETATM   13  N5  UNL     1      33.583   4.891  46.881  1.00  0.00     0.119 N 
HETATM   14  C13 UNL     1      34.692   5.001  47.799  1.00  0.00     0.282 C 
HETATM   15  C14 UNL     1      34.479   6.074  48.838  1.00  0.00     0.090 C 
HETATM   16  H11 UNL     1      29.697   7.577  49.729  1.00  0.00     0.189 HD
HETATM   17  H13 UNL     1      33.142   8.233  49.984  1.00  0.00     0.166 HD
ENDROOT
BRANCH   5  18
HETATM   18  C7  UNL     1      27.050   7.056  48.723  1.00  0.00     0.144 C 
HETATM   19 CL1  UNL     1      26.460   8.019  47.340  1.00  0.00    -0.126 Cl
ENDBRANCH   5  18
BRANCH   1  20
HETATM   20  C2  UNL     1      31.949   3.183  46.550  1.00  0.00     0.055 C 
HETATM   21  C1  UNL     1      32.646   1.871  46.837  1.00  0.00     0.009 C 
ENDBRANCH   1  20
BRANCH  11  22
HETATM   22  O1  UNL     1      34.810   8.377  46.769  1.00  0.00    -0.356 OA
HETATM   23  C11 UNL     1      34.594   9.471  45.936  1.00  0.00     0.209 C 
ENDBRANCH  11  22
TORSDOF 3
ENDMDL
MODEL 8
REMARK VINA RESULT:      -6.4      6.995      9.781
REMARK  3 active torsions:
REMARK  status: ('A' for Active; 'I' for Inactive)
REMARK    1  A    between atoms: C2_2  and  C3_3 
REMARK    2  A    between atoms: C6_7  and  C7_8 
REMARK    3  A    between atoms: C10_15  and  O1_16 
ROOT
HETATM    1  C3  UNL     1      31.122   5.865  48.183  1.00  0.00     0.343 C 
HETATM    2  N1  UNL     1      29.753   6.086  48.538  1.00  0.00    -0.264 NA
HETATM    3  C4  UNL     1      28.794   5.255  48.428  1.00  0.00     0.143 C 
HETATM    4  C5  UNL     1      27.469   5.704  48.857  1.00  0.00     0.064 C 
HETATM    5  C6  UNL     1      26.389   4.939  48.796  1.00  0.00     0.020 C 
HETATM    6  N2  UNL     1      27.228   7.007  49.379  1.00  0.00    -0.276 N 
HETATM    7  N3  UNL     1      27.203   8.342  48.970  1.00  0.00    -0.170 NA
HETATM    8  C8  UNL     1      28.156   9.174  49.223  1.00  0.00     0.229 C 
HETATM    9  N4  UNL     1      29.419   9.213  49.874  1.00  0.00    -0.351 N 
HETATM   10  C9  UNL     1      30.616   8.984  49.134  1.00  0.00     0.043 C 
HETATM   11  C10 UNL     1      30.839   9.268  47.841  1.00  0.00     0.096 C 
HETATM   12  C12 UNL     1      30.834   7.973  47.069  1.00  0.00     0.341 C 
HETATM   13  N5  UNL     1      31.768   7.042  47.650  1.00  0.00     0.119 N 
HETATM   14  C13 UNL     1      32.630   7.644  48.638  1.00  0.00     0.282 C 
HETATM   15  C14 UNL     1      31.859   8.362  49.718  1.00  0.00     0.090 C 
HETATM   16  H11 UNL     1      26.984   7.061  50.395  1.00  0.00     0.189 HD
HETATM   17  H13 UNL     1      29.559   9.403  50.895  1.00  0.00     0.166 HD
ENDROOT
BRANCH   5  18
HETATM   18  C7  UNL     1      25.033   5.310  49.203  1.00  0.00     0.144 C 
HETATM   19 CL1  UNL     1      23.894   3.939  49.106  1.00  0.00    -0.126 Cl
ENDBRANCH   5  18
BRANCH   1  20
HETATM   20  C2  UNL     1      31.288   4.762  47.128  1.00  0.00     0.055 C 
HETATM   21  C1  UNL     1      32.413   3.833  47.528  1.00  0.00     0.009 C 
ENDBRANCH   1  20
BRANCH  11  22
HETATM   22  O1  UNL     1      30.975  10.650  47.800  1.00  0.00    -0.356 OA
HETATM   23  C11 UNL     1      32.123  11.356  47.451  1.00  0.00     0.209 C 
ENDBRANCH  11  22
TORSDOF 3
ENDMDL
MODEL 9
REMARK VINA RESULT:      -6.2      4.445      7.737
REMARK  3 active torsions:
REMARK  status: ('A' for Active; 'I' for Inactive)
REMARK    1  A    between atoms: C2_2  and  C3_3 
REMARK    2  A    between atoms: C6_7  and  C7_8 
REMARK    3  A    between atoms: C10_15  and  O1_16 
ROOT
HETATM    1  C3  UNL     1      25.678   4.897  50.074  1.00  0.00     0.343 C 
HETATM    2  N1  UNL     1      24.727   4.119  50.809  1.00  0.00    -0.264 NA
HETATM    3  C4  UNL     1      24.843   2.897  51.150  1.00  0.00     0.143 C 
HETATM    4  C5  UNL     1      23.737   2.305  51.903  1.00  0.00     0.064 C 
HETATM    5  C6  UNL     1      23.732   1.048  52.317  1.00  0.00     0.020 C 
HETATM    6  N2  UNL     1      22.566   3.036  52.255  1.00  0.00    -0.276 N 
HETATM    7  N3  UNL     1      21.442   3.615  51.663  1.00  0.00    -0.170 NA
HETATM    8  C8  UNL     1      21.329   4.884  51.458  1.00  0.00     0.229 C 
HETATM    9  N4  UNL     1      22.063   6.085  51.653  1.00  0.00    -0.351 N 
HETATM   10  C9  UNL     1      22.900   6.593  50.615  1.00  0.00     0.043 C 
HETATM   11  C10 UNL     1      22.723   6.458  49.291  1.00  0.00     0.096 C 
HETATM   12  C12 UNL     1      23.731   5.458  48.784  1.00  0.00     0.341 C 
HETATM   13  N5  UNL     1      25.062   5.847  49.177  1.00  0.00     0.119 N 
HETATM   14  C13 UNL     1      25.126   7.181  49.723  1.00  0.00     0.282 C 
HETATM   15  C14 UNL     1      24.157   7.387  50.862  1.00  0.00     0.090 C 
HETATM   16  H11 UNL     1      22.439   3.245  53.272  1.00  0.00     0.189 HD
HETATM   17  H13 UNL     1      22.047   6.659  52.529  1.00  0.00     0.166 HD
ENDROOT
BRANCH   5  18
HETATM   18  C7  UNL     1      22.670   0.382  53.072  1.00  0.00     0.144 C 
HETATM   19 CL1  UNL     1      23.311  -0.766  54.281  1.00  0.00    -0.126 Cl
ENDBRANCH   5  18
BRANCH   1  20
HETATM   20  C2  UNL     1      26.611   4.031  49.216  1.00  0.00     0.055 C 
HETATM   21  C1  UNL     1      27.711   4.889  48.630  1.00  0.00     0.009 C 
ENDBRANCH   1  20
BRANCH  11  22
HETATM   22  O1  UNL     1      21.674   7.316  48.984  1.00  0.00    -0.356 OA
HETATM   23  C11 UNL     1      21.749   8.464  48.201  1.00  0.00     0.209 C 
ENDBRANCH  11  22
TORSDOF 3
ENDMDL
