MODEL 1
REMARK VINA RESULT:      -7.9      0.000      0.000
REMARK  8 active torsions:
REMARK  status: ('A' for Active; 'I' for Inactive)
REMARK    1  A    between atoms: C3_3  and  C4_4 
REMARK    2  A    between atoms: C3_3  and  N3_16 
REMARK    3  A    between atoms: C4_4  and  C5_5 
REMARK    4  A    between atoms: C5_5  and  O1_6 
REMARK    5  A    between atoms: O1_6  and  C6_7 
REMARK    6  A    between atoms: C9_11  and  C10_12 
REMARK       I    between atoms: C10_12  and  N2_14 
REMARK       I    between atoms: N3_16  and  C12_17 
REMARK       I    between atoms: C12_17  and  N4_19 
REMARK    7  A    between atoms: N4_19  and  C13_20 
REMARK    8  A    between atoms: C17_25  and  C18_26 
ROOT
HETATM    1  N3  UNL     1      26.596   0.806  51.689  1.00  0.00    -0.313 N 
HETATM    2  C12 UNL     1      26.636   2.107  51.123  1.00  0.00     0.325 C 
HETATM    3  O3  UNL     1      27.308   3.007  51.638  1.00  0.00    -0.247 OA
HETATM    4  N4  UNL     1      25.938   2.505  49.956  1.00  0.00    -0.309 N 
HETATM    5  H16 UNL     1      25.987   0.182  51.133  1.00  0.00     0.170 HD
HETATM    6  H17 UNL     1      25.337   1.781  49.459  1.00  0.00     0.170 HD
ENDROOT
BRANCH   1   7
HETATM    7  C3  UNL     1      27.284   0.380  52.855  1.00  0.00     0.011 C 
HETATM    8  C2  UNL     1      28.513  -0.102  52.891  1.00  0.00    -0.006 C 
HETATM    9  C1  UNL     1      29.069  -0.497  54.212  1.00  0.00     0.038 C 
BRANCH   7  10
HETATM   10  C4  UNL     1      26.510   0.508  54.115  1.00  0.00     0.083 C 
BRANCH  10  11
HETATM   11  C5  UNL     1      25.467  -0.579  54.241  1.00  0.00     0.181 C 
BRANCH  11  12
HETATM   12  O1  UNL     1      24.481  -0.532  53.279  1.00  0.00    -0.352 OA
BRANCH  12  13
HETATM   13  C6  UNL     1      23.202  -0.024  53.358  1.00  0.00     0.081 A 
HETATM   14  C7  UNL     1      22.544  -0.835  54.180  1.00  0.00     0.054 A 
HETATM   15  C8  UNL     1      21.212  -0.221  54.202  1.00  0.00     0.114 A 
HETATM   16  N1  UNL     1      21.089   0.830  53.480  1.00  0.00    -0.280 NA
HETATM   17  C9  UNL     1      22.360   1.084  52.849  1.00  0.00     0.255 A 
BRANCH  17  18
HETATM   18  C10 UNL     1      22.240   1.108  51.371  1.00  0.00     0.248 C 
HETATM   19  O2  UNL     1      23.410   1.534  51.267  1.00  0.00    -0.271 OA
HETATM   20  N2  UNL     1      21.256   0.797  50.438  1.00  0.00    -0.363 N 
HETATM   21  C11 UNL     1      21.511   0.957  49.020  1.00  0.00     0.149 C 
HETATM   22  H12 UNL     1      20.421   0.470  50.941  1.00  0.00     0.162 HD
ENDBRANCH  17  18
ENDBRANCH  12  13
ENDBRANCH  11  12
ENDBRANCH  10  11
ENDBRANCH   7  10
ENDBRANCH   1   7
BRANCH   4  23
HETATM   23  C13 UNL     1      26.180   3.891  49.636  1.00  0.00     0.037 A 
HETATM   24  C14 UNL     1      25.201   4.810  49.982  1.00  0.00     0.031 A 
HETATM   25  C15 UNL     1      25.440   6.132  49.673  1.00  0.00     0.027 A 
HETATM   26  C16 UNL     1      26.600   6.536  49.046  1.00  0.00     0.049 A 
HETATM   27 CL1  UNL     1      26.823   8.253  48.687  1.00  0.00    -0.083 Cl
HETATM   28  C17 UNL     1      27.579   5.627  48.698  1.00  0.00     0.071 A 
HETATM   29  C19 UNL     1      27.360   4.280  49.001  1.00  0.00     0.047 A 
BRANCH  28  30
HETATM   30  C18 UNL     1      28.821   6.087  48.022  1.00  0.00     0.419 C 
HETATM   31  F1  UNL     1      28.561   6.786  46.855  1.00  0.00    -0.166 F 
HETATM   32  F2  UNL     1      29.569   6.774  48.928  1.00  0.00    -0.166 F 
HETATM   33  F3  UNL     1      29.530   4.920  47.718  1.00  0.00    -0.166 F 
ENDBRANCH  28  30
ENDBRANCH   4  23
TORSDOF 8
ENDMDL
MODEL 2
REMARK VINA RESULT:      -7.9      1.672      2.183
REMARK  8 active torsions:
REMARK  status: ('A' for Active; 'I' for Inactive)
REMARK    1  A    between atoms: C3_3  and  C4_4 
REMARK    2  A    between atoms: C3_3  and  N3_16 
REMARK    3  A    between atoms: C4_4  and  C5_5 
REMARK    4  A    between atoms: C5_5  and  O1_6 
REMARK    5  A    between atoms: O1_6  and  C6_7 
REMARK    6  A    between atoms: C9_11  and  C10_12 
REMARK       I    between atoms: C10_12  and  N2_14 
REMARK       I    between atoms: N3_16  and  C12_17 
REMARK       I    between atoms: C12_17  and  N4_19 
REMARK    7  A    between atoms: N4_19  and  C13_20 
REMARK    8  A    between atoms: C17_25  and  C18_26 
ROOT
HETATM    1  N3  UNL     1      25.861   1.038  52.120  1.00  0.00    -0.313 N 
HETATM    2  C12 UNL     1      26.150   2.232  51.409  1.00  0.00     0.325 C 
HETATM    3  O3  UNL     1      27.242   2.798  51.530  1.00  0.00    -0.247 OA
HETATM    4  N4  UNL     1      25.259   2.882  50.520  1.00  0.00    -0.309 N 
HETATM    5  H16 UNL     1      24.908   0.702  51.903  1.00  0.00     0.170 HD
HETATM    6  H17 UNL     1      24.298   2.450  50.367  1.00  0.00     0.170 HD
ENDROOT
BRANCH   1   7
HETATM    7  C3  UNL     1      26.733   0.365  53.015  1.00  0.00     0.011 C 
HETATM    8  C2  UNL     1      27.851  -0.254  52.681  1.00  0.00    -0.006 C 
HETATM    9  C1  UNL     1      28.638  -0.904  53.762  1.00  0.00     0.038 C 
BRANCH   7  10
HETATM   10  C4  UNL     1      26.307   0.391  54.437  1.00  0.00     0.083 C 
BRANCH  10  11
HETATM   11  C5  UNL     1      25.236  -0.639  54.715  1.00  0.00     0.181 C 
BRANCH  11  12
HETATM   12  O1  UNL     1      24.261  -0.720  53.744  1.00  0.00    -0.352 OA
BRANCH  12  13
HETATM   13  C6  UNL     1      22.943  -0.322  53.789  1.00  0.00     0.081 A 
HETATM   14  C7  UNL     1      22.292  -1.305  54.403  1.00  0.00     0.054 A 
HETATM   15  C8  UNL     1      20.916  -0.796  54.405  1.00  0.00     0.114 A 
HETATM   16  N1  UNL     1      20.763   0.353  53.858  1.00  0.00    -0.280 NA
HETATM   17  C9  UNL     1      22.054   0.796  53.395  1.00  0.00     0.255 A 
BRANCH  17  18
HETATM   18  C10 UNL     1      22.048   1.065  51.937  1.00  0.00     0.248 C 
HETATM   19  O2  UNL     1      22.838   2.021  52.093  1.00  0.00    -0.271 OA
HETATM   20  N2  UNL     1      21.434   0.514  50.816  1.00  0.00    -0.363 N 
HETATM   21  C11 UNL     1      21.675   1.068  49.499  1.00  0.00     0.149 C 
HETATM   22  H12 UNL     1      20.851  -0.278  51.119  1.00  0.00     0.162 HD
ENDBRANCH  17  18
ENDBRANCH  12  13
ENDBRANCH  11  12
ENDBRANCH  10  11
ENDBRANCH   7  10
ENDBRANCH   1   7
BRANCH   4  23
HETATM   23  C13 UNL     1      25.844   4.073  49.954  1.00  0.00     0.037 A 
HETATM   24  C14 UNL     1      26.929   3.913  49.105  1.00  0.00     0.031 A 
HETATM   25  C15 UNL     1      27.483   5.056  48.568  1.00  0.00     0.027 A 
HETATM   26  C16 UNL     1      26.988   6.311  48.856  1.00  0.00     0.049 A 
HETATM   27 CL1  UNL     1      27.761   7.722  48.122  1.00  0.00    -0.083 Cl
HETATM   28  C17 UNL     1      25.909   6.477  49.700  1.00  0.00     0.071 A 
HETATM   29  C19 UNL     1      25.329   5.334  50.257  1.00  0.00     0.047 A 
BRANCH  28  30
HETATM   30  C18 UNL     1      25.393   7.841  49.995  1.00  0.00     0.419 C 
HETATM   31  F1  UNL     1      26.370   8.677  50.508  1.00  0.00    -0.166 F 
HETATM   32  F2  UNL     1      24.784   8.317  48.874  1.00  0.00    -0.166 F 
HETATM   33  F3  UNL     1      24.388   7.656  50.951  1.00  0.00    -0.166 F 
ENDBRANCH  28  30
ENDBRANCH   4  23
TORSDOF 8
ENDMDL
MODEL 3
REMARK VINA RESULT:      -7.7      3.916      6.298
REMARK  8 active torsions:
REMARK  status: ('A' for Active; 'I' for Inactive)
REMARK    1  A    between atoms: C3_3  and  C4_4 
REMARK    2  A    between atoms: C3_3  and  N3_16 
REMARK    3  A    between atoms: C4_4  and  C5_5 
REMARK    4  A    between atoms: C5_5  and  O1_6 
REMARK    5  A    between atoms: O1_6  and  C6_7 
REMARK    6  A    between atoms: C9_11  and  C10_12 
REMARK       I    between atoms: C10_12  and  N2_14 
REMARK       I    between atoms: N3_16  and  C12_17 
REMARK       I    between atoms: C12_17  and  N4_19 
REMARK    7  A    between atoms: N4_19  and  C13_20 
REMARK    8  A    between atoms: C17_25  and  C18_26 
ROOT
HETATM    1  N3  UNL     1      24.929   5.047  50.696  1.00  0.00    -0.313 N 
HETATM    2  C12 UNL     1      25.550   3.855  51.153  1.00  0.00     0.325 C 
HETATM    3  O3  UNL     1      26.451   3.315  50.502  1.00  0.00    -0.247 OA
HETATM    4  N4  UNL     1      25.222   3.180  52.355  1.00  0.00    -0.309 N 
HETATM    5  H16 UNL     1      24.200   5.360  51.360  1.00  0.00     0.170 HD
HETATM    6  H17 UNL     1      24.454   3.589  52.967  1.00  0.00     0.170 HD
ENDROOT
BRANCH   1   7
HETATM    7  C3  UNL     1      25.237   5.745  49.499  1.00  0.00     0.011 C 
HETATM    8  C2  UNL     1      26.400   6.299  49.209  1.00  0.00    -0.006 C 
HETATM    9  C1  UNL     1      26.536   6.990  47.899  1.00  0.00     0.038 C 
BRANCH   7  10
HETATM   10  C4  UNL     1      24.121   5.828  48.523  1.00  0.00     0.083 C 
BRANCH  10  11
HETATM   11  C5  UNL     1      23.341   4.536  48.458  1.00  0.00     0.181 C 
BRANCH  11  12
HETATM   12  O1  UNL     1      22.346   4.425  49.406  1.00  0.00    -0.352 OA
BRANCH  12  13
HETATM   13  C6  UNL     1      22.032   3.364  50.227  1.00  0.00     0.081 A 
HETATM   14  C7  UNL     1      22.539   2.288  49.634  1.00  0.00     0.054 A 
HETATM   15  C8  UNL     1      22.160   1.224  50.570  1.00  0.00     0.114 A 
HETATM   16  N1  UNL     1      21.505   1.617  51.599  1.00  0.00    -0.280 NA
HETATM   17  C9  UNL     1      21.344   3.047  51.501  1.00  0.00     0.255 A 
BRANCH  17  18
HETATM   18  C10 UNL     1      19.914   3.437  51.518  1.00  0.00     0.248 C 
HETATM   19  O2  UNL     1      19.834   3.154  52.733  1.00  0.00    -0.271 OA
HETATM   20  N2  UNL     1      18.994   3.921  50.593  1.00  0.00    -0.363 N 
HETATM   21  C11 UNL     1      17.628   4.196  50.991  1.00  0.00     0.149 C 
HETATM   22  H12 UNL     1      19.466   4.023  49.685  1.00  0.00     0.162 HD
ENDBRANCH  17  18
ENDBRANCH  12  13
ENDBRANCH  11  12
ENDBRANCH  10  11
ENDBRANCH   7  10
ENDBRANCH   1   7
BRANCH   4  23
HETATM   23  C13 UNL     1      26.030   1.998  52.540  1.00  0.00     0.037 A 
HETATM   24  C14 UNL     1      25.586   0.821  51.958  1.00  0.00     0.031 A 
HETATM   25  C15 UNL     1      26.363  -0.303  52.140  1.00  0.00     0.027 A 
HETATM   26  C16 UNL     1      27.534  -0.271  52.868  1.00  0.00     0.049 A 
HETATM   27 CL1  UNL     1      28.468  -1.761  53.049  1.00  0.00    -0.083 Cl
HETATM   28  C17 UNL     1      27.982   0.898  53.449  1.00  0.00     0.071 A 
HETATM   29  C19 UNL     1      27.212   2.052  53.280  1.00  0.00     0.047 A 
BRANCH  28  30
HETATM   30  C18 UNL     1      29.249   0.909  54.230  1.00  0.00     0.419 C 
HETATM   31  F1  UNL     1      30.295   0.313  53.547  1.00  0.00    -0.166 F 
HETATM   32  F2  UNL     1      29.495   2.188  54.621  1.00  0.00    -0.166 F 
HETATM   33  F3  UNL     1      28.973   0.179  55.390  1.00  0.00    -0.166 F 
ENDBRANCH  28  30
ENDBRANCH   4  23
TORSDOF 8
ENDMDL
MODEL 4
REMARK VINA RESULT:      -7.6      6.102      8.761
REMARK  8 active torsions:
REMARK  status: ('A' for Active; 'I' for Inactive)
REMARK    1  A    between atoms: C3_3  and  C4_4 
REMARK    2  A    between atoms: C3_3  and  N3_16 
REMARK    3  A    between atoms: C4_4  and  C5_5 
REMARK    4  A    between atoms: C5_5  and  O1_6 
REMARK    5  A    between atoms: O1_6  and  C6_7 
REMARK    6  A    between atoms: C9_11  and  C10_12 
REMARK       I    between atoms: C10_12  and  N2_14 
REMARK       I    between atoms: N3_16  and  C12_17 
REMARK       I    between atoms: C12_17  and  N4_19 
REMARK    7  A    between atoms: N4_19  and  C13_20 
REMARK    8  A    between atoms: C17_25  and  C18_26 
ROOT
HETATM    1  N3  UNL     1      30.440   8.774  49.896  1.00  0.00    -0.313 N 
HETATM    2  C12 UNL     1      31.287   7.815  49.281  1.00  0.00     0.325 C 
HETATM    3  O3  UNL     1      31.699   7.974  48.127  1.00  0.00    -0.247 OA
HETATM    4  N4  UNL     1      31.735   6.619  49.894  1.00  0.00    -0.309 N 
HETATM    5  H16 UNL     1      30.191   8.484  50.856  1.00  0.00     0.170 HD
HETATM    6  H17 UNL     1      31.418   6.415  50.890  1.00  0.00     0.170 HD
ENDROOT
BRANCH   1   7
HETATM    7  C3  UNL     1      29.976   9.980  49.308  1.00  0.00     0.011 C 
HETATM    8  C2  UNL     1      30.701  11.066  49.105  1.00  0.00    -0.006 C 
HETATM    9  C1  UNL     1      30.040  12.237  48.471  1.00  0.00     0.038 C 
BRANCH   7  10
HETATM   10  C4  UNL     1      28.549   9.966  48.903  1.00  0.00     0.083 C 
BRANCH  10  11
HETATM   11  C5  UNL     1      28.358   9.300  47.559  1.00  0.00     0.181 C 
BRANCH  11  12
HETATM   12  O1  UNL     1      28.499   7.929  47.581  1.00  0.00    -0.352 OA
BRANCH  12  13
HETATM   13  C6  UNL     1      27.697   6.974  48.167  1.00  0.00     0.081 A 
HETATM   14  C7  UNL     1      28.404   5.849  48.148  1.00  0.00     0.054 A 
HETATM   15  C8  UNL     1      27.481   4.904  48.785  1.00  0.00     0.114 A 
HETATM   16  N1  UNL     1      26.356   5.404  49.142  1.00  0.00    -0.280 NA
HETATM   17  C9  UNL     1      26.361   6.801  48.786  1.00  0.00     0.255 A 
BRANCH  17  18
HETATM   18  C10 UNL     1      25.238   7.136  47.878  1.00  0.00     0.248 C 
HETATM   19  O2  UNL     1      24.497   6.320  48.467  1.00  0.00    -0.271 OA
HETATM   20  N2  UNL     1      25.038   7.994  46.801  1.00  0.00    -0.363 N 
HETATM   21  C11 UNL     1      23.752   8.049  46.135  1.00  0.00     0.149 C 
HETATM   22  H12 UNL     1      25.912   8.508  46.626  1.00  0.00     0.162 HD
ENDBRANCH  17  18
ENDBRANCH  12  13
ENDBRANCH  11  12
ENDBRANCH  10  11
ENDBRANCH   7  10
ENDBRANCH   1   7
BRANCH   4  23
HETATM   23  C13 UNL     1      32.583   5.853  49.012  1.00  0.00     0.037 A 
HETATM   24  C14 UNL     1      33.941   6.127  49.031  1.00  0.00     0.031 A 
HETATM   25  C15 UNL     1      34.744   5.392  48.186  1.00  0.00     0.027 A 
HETATM   26  C16 UNL     1      34.230   4.421  47.352  1.00  0.00     0.049 A 
HETATM   27 CL1  UNL     1      35.334   3.526  46.301  1.00  0.00    -0.083 Cl
HETATM   28  C17 UNL     1      32.878   4.142  47.328  1.00  0.00     0.071 A 
HETATM   29  C19 UNL     1      32.043   4.875  48.176  1.00  0.00     0.047 A 
BRANCH  28  30
HETATM   30  C18 UNL     1      32.346   3.091  46.420  1.00  0.00     0.419 C 
HETATM   31  F1  UNL     1      33.012   1.885  46.560  1.00  0.00    -0.166 F 
HETATM   32  F2  UNL     1      31.001   3.010  46.607  1.00  0.00    -0.166 F 
HETATM   33  F3  UNL     1      32.544   3.586  45.127  1.00  0.00    -0.166 F 
ENDBRANCH  28  30
ENDBRANCH   4  23
TORSDOF 8
ENDMDL
MODEL 5
REMARK VINA RESULT:      -7.5      4.871      7.848
REMARK  8 active torsions:
REMARK  status: ('A' for Active; 'I' for Inactive)
REMARK    1  A    between atoms: C3_3  and  C4_4 
REMARK    2  A    between atoms: C3_3  and  N3_16 
REMARK    3  A    between atoms: C4_4  and  C5_5 
REMARK    4  A    between atoms: C5_5  and  O1_6 
REMARK    5  A    between atoms: O1_6  and  C6_7 
REMARK    6  A    between atoms: C9_11  and  C10_12 
REMARK       I    between atoms: C10_12  and  N2_14 
REMARK       I    between atoms: N3_16  and  C12_17 
REMARK       I    between atoms: C12_17  and  N4_19 
REMARK    7  A    between atoms: N4_19  and  C13_20 
REMARK    8  A    between atoms: C17_25  and  C18_26 
ROOT
HETATM    1  N3  UNL     1      23.938   3.251  49.302  1.00  0.00    -0.313 N 
HETATM    2  C12 UNL     1      22.885   2.553  49.949  1.00  0.00     0.325 C 
HETATM    3  O3  UNL     1      22.428   2.945  51.028  1.00  0.00    -0.247 OA
HETATM    4  N4  UNL     1      22.267   1.378  49.453  1.00  0.00    -0.309 N 
HETATM    5  H16 UNL     1      24.197   2.787  48.415  1.00  0.00     0.170 HD
HETATM    6  H17 UNL     1      22.611   0.982  48.527  1.00  0.00     0.170 HD
ENDROOT
BRANCH   1   7
HETATM    7  C3  UNL     1      24.575   4.428  49.775  1.00  0.00     0.011 C 
HETATM    8  C2  UNL     1      23.997   5.605  49.935  1.00  0.00    -0.006 C 
HETATM    9  C1  UNL     1      24.829   6.727  50.444  1.00  0.00     0.038 C 
BRANCH   7  10
HETATM   10  C4  UNL     1      26.014   4.267  50.103  1.00  0.00     0.083 C 
BRANCH  10  11
HETATM   11  C5  UNL     1      26.441   2.819  50.039  1.00  0.00     0.181 C 
BRANCH  11  12
HETATM   12  O1  UNL     1      26.849   2.294  51.246  1.00  0.00    -0.352 OA
BRANCH  12  13
HETATM   13  C6  UNL     1      26.253   1.328  52.028  1.00  0.00     0.081 A 
HETATM   14  C7  UNL     1      25.291   1.954  52.700  1.00  0.00     0.054 A 
HETATM   15  C8  UNL     1      24.721   0.860  53.494  1.00  0.00     0.114 A 
HETATM   16  N1  UNL     1      25.275  -0.283  53.316  1.00  0.00    -0.280 NA
HETATM   17  C9  UNL     1      26.330  -0.116  52.349  1.00  0.00     0.255 A 
BRANCH  17  18
HETATM   18  C10 UNL     1      27.643  -0.534  52.896  1.00  0.00     0.248 C 
HETATM   19  O2  UNL     1      27.231  -1.706  53.034  1.00  0.00    -0.271 OA
HETATM   20  N2  UNL     1      28.861   0.082  53.168  1.00  0.00    -0.363 N 
HETATM   21  C11 UNL     1      29.960  -0.679  53.726  1.00  0.00     0.149 C 
HETATM   22  H12 UNL     1      28.791   1.074  52.904  1.00  0.00     0.162 HD
ENDBRANCH  17  18
ENDBRANCH  12  13
ENDBRANCH  11  12
ENDBRANCH  10  11
ENDBRANCH   7  10
ENDBRANCH   1   7
BRANCH   4  23
HETATM   23  C13 UNL     1      21.230   0.906  50.339  1.00  0.00     0.037 A 
HETATM   24  C14 UNL     1      19.916   1.049  49.921  1.00  0.00     0.031 A 
HETATM   25  C15 UNL     1      18.931   0.596  50.773  1.00  0.00     0.027 A 
HETATM   26  C16 UNL     1      19.227   0.024  51.992  1.00  0.00     0.049 A 
HETATM   27 CL1  UNL     1      17.900  -0.529  53.021  1.00  0.00    -0.083 Cl
HETATM   28  C17 UNL     1      20.533  -0.121  52.415  1.00  0.00     0.071 A 
HETATM   29  C19 UNL     1      21.550   0.330  51.569  1.00  0.00     0.047 A 
BRANCH  28  30
HETATM   30  C18 UNL     1      20.829  -0.741  53.734  1.00  0.00     0.419 C 
HETATM   31  F1  UNL     1      20.725   0.162  54.779  1.00  0.00    -0.166 F 
HETATM   32  F2  UNL     1      20.043  -1.844  53.871  1.00  0.00    -0.166 F 
HETATM   33  F3  UNL     1      22.148  -1.196  53.641  1.00  0.00    -0.166 F 
ENDBRANCH  28  30
ENDBRANCH   4  23
TORSDOF 8
ENDMDL
MODEL 6
REMARK VINA RESULT:      -7.5      4.062      6.547
REMARK  8 active torsions:
REMARK  status: ('A' for Active; 'I' for Inactive)
REMARK    1  A    between atoms: C3_3  and  C4_4 
REMARK    2  A    between atoms: C3_3  and  N3_16 
REMARK    3  A    between atoms: C4_4  and  C5_5 
REMARK    4  A    between atoms: C5_5  and  O1_6 
REMARK    5  A    between atoms: O1_6  and  C6_7 
REMARK    6  A    between atoms: C9_11  and  C10_12 
REMARK       I    between atoms: C10_12  and  N2_14 
REMARK       I    between atoms: N3_16  and  C12_17 
REMARK       I    between atoms: C12_17  and  N4_19 
REMARK    7  A    between atoms: N4_19  and  C13_20 
REMARK    8  A    between atoms: C17_25  and  C18_26 
ROOT
HETATM    1  N3  UNL     1      24.823   4.979  50.900  1.00  0.00    -0.313 N 
HETATM    2  C12 UNL     1      25.449   3.774  51.313  1.00  0.00     0.325 C 
HETATM    3  O3  UNL     1      26.256   3.191  50.581  1.00  0.00    -0.247 OA
HETATM    4  N4  UNL     1      25.228   3.130  52.556  1.00  0.00    -0.309 N 
HETATM    5  H16 UNL     1      24.180   5.328  51.630  1.00  0.00     0.170 HD
HETATM    6  H17 UNL     1      24.543   3.576  53.237  1.00  0.00     0.170 HD
ENDROOT
BRANCH   1   7
HETATM    7  C3  UNL     1      25.025   5.645  49.663  1.00  0.00     0.011 C 
HETATM    8  C2  UNL     1      26.056   6.413  49.362  1.00  0.00    -0.006 C 
HETATM    9  C1  UNL     1      26.096   7.029  48.009  1.00  0.00     0.038 C 
BRANCH   7  10
HETATM   10  C4  UNL     1      23.956   5.426  48.657  1.00  0.00     0.083 C 
BRANCH  10  11
HETATM   11  C5  UNL     1      22.581   5.606  49.258  1.00  0.00     0.181 C 
BRANCH  11  12
HETATM   12  O1  UNL     1      22.132   4.523  49.983  1.00  0.00    -0.352 OA
BRANCH  12  13
HETATM   13  C6  UNL     1      21.637   3.316  49.540  1.00  0.00     0.081 A 
HETATM   14  C7  UNL     1      22.372   2.384  50.139  1.00  0.00     0.054 A 
HETATM   15  C8  UNL     1      21.778   1.150  49.613  1.00  0.00     0.114 A 
HETATM   16  N1  UNL     1      20.804   1.324  48.797  1.00  0.00    -0.280 NA
HETATM   17  C9  UNL     1      20.597   2.743  48.653  1.00  0.00     0.255 A 
BRANCH  17  18
HETATM   18  C10 UNL     1      20.720   3.171  47.239  1.00  0.00     0.248 C 
HETATM   19  O2  UNL     1      19.480   3.119  47.098  1.00  0.00    -0.271 OA
HETATM   20  N2  UNL     1      21.761   3.504  46.376  1.00  0.00    -0.363 N 
HETATM   21  C11 UNL     1      21.486   3.886  45.006  1.00  0.00     0.149 C 
HETATM   22  H12 UNL     1      22.649   3.423  46.890  1.00  0.00     0.162 HD
ENDBRANCH  17  18
ENDBRANCH  12  13
ENDBRANCH  11  12
ENDBRANCH  10  11
ENDBRANCH   7  10
ENDBRANCH   1   7
BRANCH   4  23
HETATM   23  C13 UNL     1      26.011   1.924  52.678  1.00  0.00     0.037 A 
HETATM   24  C14 UNL     1      25.504   0.769  52.102  1.00  0.00     0.031 A 
HETATM   25  C15 UNL     1      26.258  -0.378  52.224  1.00  0.00     0.027 A 
HETATM   26  C16 UNL     1      27.466  -0.391  52.888  1.00  0.00     0.049 A 
HETATM   27 CL1  UNL     1      28.366  -1.909  52.996  1.00  0.00    -0.083 Cl
HETATM   28  C17 UNL     1      27.977   0.755  53.464  1.00  0.00     0.071 A 
HETATM   29  C19 UNL     1      27.232   1.932  53.355  1.00  0.00     0.047 A 
BRANCH  28  30
HETATM   30  C18 UNL     1      29.283   0.718  54.176  1.00  0.00     0.419 C 
HETATM   31  F1  UNL     1      30.294   0.182  53.397  1.00  0.00    -0.166 F 
HETATM   32  F2  UNL     1      29.545   1.967  54.649  1.00  0.00    -0.166 F 
HETATM   33  F3  UNL     1      29.072  -0.099  55.292  1.00  0.00    -0.166 F 
ENDBRANCH  28  30
ENDBRANCH   4  23
TORSDOF 8
ENDMDL
MODEL 7
REMARK VINA RESULT:      -7.2      2.950      3.553
REMARK  8 active torsions:
REMARK  status: ('A' for Active; 'I' for Inactive)
REMARK    1  A    between atoms: C3_3  and  C4_4 
REMARK    2  A    between atoms: C3_3  and  N3_16 
REMARK    3  A    between atoms: C4_4  and  C5_5 
REMARK    4  A    between atoms: C5_5  and  O1_6 
REMARK    5  A    between atoms: O1_6  and  C6_7 
REMARK    6  A    between atoms: C9_11  and  C10_12 
REMARK       I    between atoms: C10_12  and  N2_14 
REMARK       I    between atoms: N3_16  and  C12_17 
REMARK       I    between atoms: C12_17  and  N4_19 
REMARK    7  A    between atoms: N4_19  and  C13_20 
REMARK    8  A    between atoms: C17_25  and  C18_26 
ROOT
HETATM    1  N3  UNL     1      25.617   2.059  53.758  1.00  0.00    -0.313 N 
HETATM    2  C12 UNL     1      24.726   2.721  52.873  1.00  0.00     0.325 C 
HETATM    3  O3  UNL     1      24.330   2.172  51.839  1.00  0.00    -0.247 OA
HETATM    4  N4  UNL     1      24.214   4.027  53.066  1.00  0.00    -0.309 N 
HETATM    5  H16 UNL     1      25.845   2.660  54.568  1.00  0.00     0.170 HD
HETATM    6  H17 UNL     1      24.513   4.561  53.937  1.00  0.00     0.170 HD
ENDROOT
BRANCH   1   7
HETATM    7  C3  UNL     1      26.146   0.753  53.591  1.00  0.00     0.011 C 
HETATM    8  C2  UNL     1      27.177   0.431  52.830  1.00  0.00    -0.006 C 
HETATM    9  C1  UNL     1      27.589  -0.996  52.780  1.00  0.00     0.038 C 
BRANCH   7  10
HETATM   10  C4  UNL     1      25.445  -0.306  54.359  1.00  0.00     0.083 C 
BRANCH  10  11
HETATM   11  C5  UNL     1      24.145  -0.704  53.697  1.00  0.00     0.181 C 
BRANCH  11  12
HETATM   12  O1  UNL     1      23.063   0.068  54.063  1.00  0.00    -0.352 OA
BRANCH  12  13
HETATM   13  C6  UNL     1      21.727  -0.100  53.769  1.00  0.00     0.081 A 
HETATM   14  C7  UNL     1      21.409  -1.310  54.220  1.00  0.00     0.054 A 
HETATM   15  C8  UNL     1      19.988  -1.397  53.867  1.00  0.00     0.114 A 
HETATM   16  N1  UNL     1      19.513  -0.363  53.277  1.00  0.00    -0.280 NA
HETATM   17  C9  UNL     1      20.580   0.598  53.143  1.00  0.00     0.255 A 
BRANCH  17  18
HETATM   18  C10 UNL     1      20.809   0.964  51.725  1.00  0.00     0.248 C 
HETATM   19  O2  UNL     1      19.623   1.344  51.615  1.00  0.00    -0.271 OA
HETATM   20  N2  UNL     1      21.879   0.923  50.836  1.00  0.00    -0.363 N 
HETATM   21  C11 UNL     1      21.719   1.384  49.472  1.00  0.00     0.149 C 
HETATM   22  H12 UNL     1      22.696   0.538  51.328  1.00  0.00     0.162 HD
ENDBRANCH  17  18
ENDBRANCH  12  13
ENDBRANCH  11  12
ENDBRANCH  10  11
ENDBRANCH   7  10
ENDBRANCH   1   7
BRANCH   4  23
HETATM   23  C13 UNL     1      23.333   4.419  51.991  1.00  0.00     0.037 A 
HETATM   24  C14 UNL     1      21.969   4.367  52.230  1.00  0.00     0.031 A 
HETATM   25  C15 UNL     1      21.134   4.742  51.199  1.00  0.00     0.027 A 
HETATM   26  C16 UNL     1      21.624   5.154  49.977  1.00  0.00     0.049 A 
HETATM   27 CL1  UNL     1      20.480   5.617  48.711  1.00  0.00    -0.083 Cl
HETATM   28  C17 UNL     1      22.981   5.208  49.732  1.00  0.00     0.071 A 
HETATM   29  C19 UNL     1      23.848   4.832  50.762  1.00  0.00     0.047 A 
BRANCH  28  30
HETATM   30  C18 UNL     1      23.486   5.655  48.406  1.00  0.00     0.419 C 
HETATM   31  F1  UNL     1      23.011   6.906  48.054  1.00  0.00    -0.166 F 
HETATM   32  F2  UNL     1      24.844   5.555  48.414  1.00  0.00    -0.166 F 
HETATM   33  F3  UNL     1      23.018   4.704  47.494  1.00  0.00    -0.166 F 
ENDBRANCH  28  30
ENDBRANCH   4  23
TORSDOF 8
ENDMDL
MODEL 8
REMARK VINA RESULT:      -7.2      4.886      8.990
REMARK  8 active torsions:
REMARK  status: ('A' for Active; 'I' for Inactive)
REMARK    1  A    between atoms: C3_3  and  C4_4 
REMARK    2  A    between atoms: C3_3  and  N3_16 
REMARK    3  A    between atoms: C4_4  and  C5_5 
REMARK    4  A    between atoms: C5_5  and  O1_6 
REMARK    5  A    between atoms: O1_6  and  C6_7 
REMARK    6  A    between atoms: C9_11  and  C10_12 
REMARK       I    between atoms: C10_12  and  N2_14 
REMARK       I    between atoms: N3_16  and  C12_17 
REMARK       I    between atoms: C12_17  and  N4_19 
REMARK    7  A    between atoms: N4_19  and  C13_20 
REMARK    8  A    between atoms: C17_25  and  C18_26 
ROOT
HETATM    1  N3  UNL     1      23.907   5.739  49.847  1.00  0.00    -0.313 N 
HETATM    2  C12 UNL     1      24.316   4.490  50.384  1.00  0.00     0.325 C 
HETATM    3  O3  UNL     1      24.347   3.473  49.682  1.00  0.00    -0.247 OA
HETATM    4  N4  UNL     1      24.717   4.277  51.726  1.00  0.00    -0.309 N 
HETATM    5  H16 UNL     1      23.940   6.478  50.569  1.00  0.00     0.170 HD
HETATM    6  H17 UNL     1      24.714   5.109  52.389  1.00  0.00     0.170 HD
ENDROOT
BRANCH   1   7
HETATM    7  C3  UNL     1      23.502   5.981  48.509  1.00  0.00     0.011 C 
HETATM    8  C2  UNL     1      22.441   5.459  47.920  1.00  0.00    -0.006 C 
HETATM    9  C1  UNL     1      22.174   5.832  46.505  1.00  0.00     0.038 C 
BRANCH   7  10
HETATM   10  C4  UNL     1      24.379   6.907  47.750  1.00  0.00     0.083 C 
BRANCH  10  11
HETATM   11  C5  UNL     1      25.155   7.818  48.673  1.00  0.00     0.181 C 
BRANCH  11  12
HETATM   12  O1  UNL     1      26.286   7.247  49.215  1.00  0.00    -0.352 OA
BRANCH  12  13
HETATM   13  C6  UNL     1      27.426   6.794  48.588  1.00  0.00     0.081 A 
HETATM   14  C7  UNL     1      27.527   5.508  48.909  1.00  0.00     0.054 A 
HETATM   15  C8  UNL     1      28.753   5.118  48.204  1.00  0.00     0.114 A 
HETATM   16  N1  UNL     1      29.317   6.058  47.541  1.00  0.00    -0.280 NA
HETATM   17  C9  UNL     1      28.528   7.253  47.709  1.00  0.00     0.255 A 
BRANCH  17  18
HETATM   18  C10 UNL     1      29.329   8.358  48.287  1.00  0.00     0.248 C 
HETATM   19  O2  UNL     1      29.787   8.638  47.159  1.00  0.00    -0.271 OA
HETATM   20  N2  UNL     1      29.526   8.900  49.554  1.00  0.00    -0.363 N 
HETATM   21  C11 UNL     1      30.423  10.023  49.741  1.00  0.00     0.149 C 
HETATM   22  H12 UNL     1      28.952   8.376  50.227  1.00  0.00     0.162 HD
ENDBRANCH  17  18
ENDBRANCH  12  13
ENDBRANCH  11  12
ENDBRANCH  10  11
ENDBRANCH   7  10
ENDBRANCH   1   7
BRANCH   4  23
HETATM   23  C13 UNL     1      25.074   2.899  51.964  1.00  0.00     0.037 A 
HETATM   24  C14 UNL     1      26.309   2.468  51.504  1.00  0.00     0.031 A 
HETATM   25  C15 UNL     1      26.642   1.151  51.735  1.00  0.00     0.027 A 
HETATM   26  C16 UNL     1      25.792   0.287  52.394  1.00  0.00     0.049 A 
HETATM   27 CL1  UNL     1      26.302  -1.386  52.647  1.00  0.00    -0.083 Cl
HETATM   28  C17 UNL     1      24.561   0.710  52.855  1.00  0.00     0.071 A 
HETATM   29  C19 UNL     1      24.200   2.041  52.633  1.00  0.00     0.047 A 
BRANCH  28  30
HETATM   30  C18 UNL     1      23.661  -0.239  53.564  1.00  0.00     0.419 C 
HETATM   31  F1  UNL     1      23.235  -1.274  52.748  1.00  0.00    -0.166 F 
HETATM   32  F2  UNL     1      24.286  -0.648  54.702  1.00  0.00    -0.166 F 
HETATM   33  F3  UNL     1      22.560   0.525  53.962  1.00  0.00    -0.166 F 
ENDBRANCH  28  30
ENDBRANCH   4  23
TORSDOF 8
ENDMDL
MODEL 9
REMARK VINA RESULT:      -7.1      4.069      6.274
REMARK  8 active torsions:
REMARK  status: ('A' for Active; 'I' for Inactive)
REMARK    1  A    between atoms: C3_3  and  C4_4 
REMARK    2  A    between atoms: C3_3  and  N3_16 
REMARK    3  A    between atoms: C4_4  and  C5_5 
REMARK    4  A    between atoms: C5_5  and  O1_6 
REMARK    5  A    between atoms: O1_6  and  C6_7 
REMARK    6  A    between atoms: C9_11  and  C10_12 
REMARK       I    between atoms: C10_12  and  N2_14 
REMARK       I    between atoms: N3_16  and  C12_17 
REMARK       I    between atoms: C12_17  and  N4_19 
REMARK    7  A    between atoms: N4_19  and  C13_20 
REMARK    8  A    between atoms: C17_25  and  C18_26 
ROOT
HETATM    1  N3  UNL     1      24.459   4.346  51.704  1.00  0.00    -0.313 N 
HETATM    2  C12 UNL     1      25.414   3.349  52.037  1.00  0.00     0.325 C 
HETATM    3  O3  UNL     1      26.131   2.837  51.170  1.00  0.00    -0.247 OA
HETATM    4  N4  UNL     1      25.643   2.851  53.343  1.00  0.00    -0.309 N 
HETATM    5  H16 UNL     1      23.949   4.662  52.546  1.00  0.00     0.170 HD
HETATM    6  H17 UNL     1      25.060   3.247  54.141  1.00  0.00     0.170 HD
ENDROOT
BRANCH   1   7
HETATM    7  C3  UNL     1      24.209   4.863  50.406  1.00  0.00     0.011 C 
HETATM    8  C2  UNL     1      24.903   5.816  49.810  1.00  0.00    -0.006 C 
HETATM    9  C1  UNL     1      24.490   6.229  48.443  1.00  0.00     0.038 C 
BRANCH   7  10
HETATM   10  C4  UNL     1      23.057   4.246  49.702  1.00  0.00     0.083 C 
BRANCH  10  11
HETATM   11  C5  UNL     1      22.020   3.734  50.674  1.00  0.00     0.181 C 
BRANCH  11  12
HETATM   12  O1  UNL     1      22.210   2.428  51.071  1.00  0.00    -0.352 OA
BRANCH  12  13
HETATM   13  C6  UNL     1      21.640   1.739  52.120  1.00  0.00     0.081 A 
HETATM   14  C7  UNL     1      22.602   0.959  52.602  1.00  0.00     0.054 A 
HETATM   15  C8  UNL     1      21.911   0.274  53.700  1.00  0.00     0.114 A 
HETATM   16  N1  UNL     1      20.682   0.605  53.855  1.00  0.00    -0.280 NA
HETATM   17  C9  UNL     1      20.361   1.591  52.853  1.00  0.00     0.255 A 
BRANCH  17  18
HETATM   18  C10 UNL     1      19.233   1.150  51.997  1.00  0.00     0.248 C 
HETATM   19  O2  UNL     1      18.864   2.335  51.845  1.00  0.00    -0.271 OA
HETATM   20  N2  UNL     1      18.742  -0.064  51.527  1.00  0.00    -0.363 N 
HETATM   21  C11 UNL     1      17.568  -0.104  50.680  1.00  0.00     0.149 C 
HETATM   22  H12 UNL     1      19.344  -0.819  51.884  1.00  0.00     0.162 HD
ENDBRANCH  17  18
ENDBRANCH  12  13
ENDBRANCH  11  12
ENDBRANCH  10  11
ENDBRANCH   7  10
ENDBRANCH   1   7
BRANCH   4  23
HETATM   23  C13 UNL     1      26.677   1.844  53.357  1.00  0.00     0.037 A 
HETATM   24  C14 UNL     1      27.959   2.247  53.700  1.00  0.00     0.031 A 
HETATM   25  C15 UNL     1      28.941   1.279  53.710  1.00  0.00     0.027 A 
HETATM   26  C16 UNL     1      28.673  -0.036  53.394  1.00  0.00     0.049 A 
HETATM   27 CL1  UNL     1      29.995  -1.210  53.433  1.00  0.00    -0.083 Cl
HETATM   28  C17 UNL     1      27.399  -0.444  53.052  1.00  0.00     0.071 A 
HETATM   29  C19 UNL     1      26.386   0.518  53.034  1.00  0.00     0.047 A 
BRANCH  28  30
HETATM   30  C18 UNL     1      27.134  -1.868  52.715  1.00  0.00     0.419 C 
HETATM   31  F1  UNL     1      28.233  -2.679  52.944  1.00  0.00    -0.166 F 
HETATM   32  F2  UNL     1      26.007  -2.257  53.372  1.00  0.00    -0.166 F 
HETATM   33  F3  UNL     1      26.827  -1.874  51.351  1.00  0.00    -0.166 F 
ENDBRANCH  28  30
ENDBRANCH   4  23
TORSDOF 8
ENDMDL
