MODEL 1
REMARK VINA RESULT:      -8.9      0.000      0.000
REMARK  8 active torsions:
REMARK  status: ('A' for Active; 'I' for Inactive)
REMARK    1  A    between atoms: O1_2  and  C2_3 
REMARK    2  A    between atoms: C7_8  and  N1_9 
REMARK    3  A    between atoms: N1_9  and  C8_10 
REMARK    4  A    between atoms: N2_13  and  C11_14 
REMARK    5  A    between atoms: C11_14  and  N3_16 
REMARK    6  A    between atoms: N3_16  and  C12_17 
REMARK    7  A    between atoms: C12_17  and  C13_18 
REMARK    8  A    between atoms: C16_21  and  N4_22 
ROOT
HETATM    1  C11 UNL     1      23.768   3.793  52.332  1.00  0.00     0.508 C 
HETATM    2  F1  UNL     1      24.186   4.158  53.644  1.00  0.00    -0.193 F 
ENDROOT
BRANCH   1   3
HETATM    3  N2  UNL     1      23.461   2.378  52.319  1.00  0.00    -0.335 N 
HETATM    4  C10 UNL     1      22.417   1.612  52.908  1.00  0.00     0.088 C 
HETATM    5  C9  UNL     1      22.843   0.348  53.088  1.00  0.00     0.017 C 
HETATM    6  C8  UNL     1      24.240   0.256  52.601  1.00  0.00     0.124 C 
HETATM    7  C25 UNL     1      24.266   1.381  51.591  1.00  0.00     0.156 C 
BRANCH   6   8
HETATM    8  N1  UNL     1      25.120   0.617  53.683  1.00  0.00    -0.378 N 
HETATM    9  H8  UNL     1      24.725   0.784  54.658  1.00  0.00     0.160 HD
BRANCH   8  10
HETATM   10  C7  UNL     1      26.533   0.796  53.653  1.00  0.00     0.062 A 
HETATM   11  C2  UNL     1      27.470  -0.245  53.642  1.00  0.00     0.094 A 
HETATM   12  C3  UNL     1      28.803   0.038  53.620  1.00  0.00     0.039 A 
HETATM   13  C4  UNL     1      29.319   1.316  53.610  1.00  0.00     0.003 A 
HETATM   14  C5  UNL     1      28.419   2.346  53.621  1.00  0.00     0.002 A 
HETATM   15  C6  UNL     1      27.066   2.078  53.643  1.00  0.00     0.032 A 
BRANCH  11  16
HETATM   16  O1  UNL     1      26.942  -1.522  53.653  1.00  0.00    -0.354 OA
HETATM   17  C1  UNL     1      27.000  -2.298  52.472  1.00  0.00     0.210 C 
ENDBRANCH  11  16
ENDBRANCH   8  10
ENDBRANCH   6   8
ENDBRANCH   1   3
BRANCH   1  18
HETATM   18  N3  UNL     1      24.869   4.171  51.507  1.00  0.00     0.141 N 
HETATM   19  H13 UNL     1      25.295   3.286  51.133  1.00  0.00     0.322 HD
BRANCH  18  20
HETATM   20  C12 UNL     1      24.475   4.974  50.405  1.00  0.00     0.314 C 
BRANCH  20  21
HETATM   21  C13 UNL     1      25.756   5.310  49.666  1.00  0.00    -0.030 A 
HETATM   22  C14 UNL     1      26.039   6.625  49.366  1.00  0.00     0.011 A 
HETATM   23  C15 UNL     1      27.206   6.985  48.687  1.00  0.00     0.030 A 
HETATM   24  C16 UNL     1      28.105   6.040  48.300  1.00  0.00     0.030 A 
HETATM   25  C23 UNL     1      27.789   4.738  48.617  1.00  0.00     0.030 A 
HETATM   26  C24 UNL     1      26.653   4.335  49.283  1.00  0.00     0.011 A 
BRANCH  24  27
HETATM   27  N4  UNL     1      29.269   6.442  47.623  1.00  0.00    -0.379 N 
HETATM   28  C17 UNL     1      30.431   5.591  47.839  1.00  0.00     0.124 C 
HETATM   29  C18 UNL     1      31.050   6.111  49.118  1.00  0.00     0.039 C 
HETATM   30  C19 UNL     1      31.852   7.333  48.834  1.00  0.00     0.118 C 
HETATM   31  N5  UNL     1      31.558   8.076  47.686  1.00  0.00    -0.415 N 
HETATM   32  C20 UNL     1      32.520   8.159  46.653  1.00  0.00     0.143 C 
HETATM   33  C21 UNL     1      30.270   8.582  47.459  1.00  0.00     0.136 C 
HETATM   34  C22 UNL     1      29.327   7.617  46.777  1.00  0.00     0.142 C 
ENDBRANCH  24  27
ENDBRANCH  20  21
ENDBRANCH  18  20
ENDBRANCH   1  18
TORSDOF 8
ENDMDL
MODEL 2
REMARK VINA RESULT:      -8.8      1.605      2.226
REMARK  8 active torsions:
REMARK  status: ('A' for Active; 'I' for Inactive)
REMARK    1  A    between atoms: O1_2  and  C2_3 
REMARK    2  A    between atoms: C7_8  and  N1_9 
REMARK    3  A    between atoms: N1_9  and  C8_10 
REMARK    4  A    between atoms: N2_13  and  C11_14 
REMARK    5  A    between atoms: C11_14  and  N3_16 
REMARK    6  A    between atoms: N3_16  and  C12_17 
REMARK    7  A    between atoms: C12_17  and  C13_18 
REMARK    8  A    between atoms: C16_21  and  N4_22 
ROOT
HETATM    1  C11 UNL     1      24.628   4.186  50.602  1.00  0.00     0.508 C 
HETATM    2  F1  UNL     1      24.139   5.442  51.062  1.00  0.00    -0.193 F 
ENDROOT
BRANCH   1   3
HETATM    3  N2  UNL     1      24.245   3.161  51.551  1.00  0.00    -0.335 N 
HETATM    4  C10 UNL     1      24.182   3.138  52.972  1.00  0.00     0.088 C 
HETATM    5  C9  UNL     1      24.315   1.868  53.400  1.00  0.00     0.017 C 
HETATM    6  C8  UNL     1      24.478   0.994  52.213  1.00  0.00     0.124 C 
HETATM    7  C25 UNL     1      23.786   1.819  51.152  1.00  0.00     0.156 C 
BRANCH   6   8
HETATM    8  N1  UNL     1      25.879   0.940  51.882  1.00  0.00    -0.378 N 
HETATM    9  H8  UNL     1      26.184   0.873  50.864  1.00  0.00     0.160 HD
BRANCH   8  10
HETATM   10  C7  UNL     1      26.999   0.964  52.762  1.00  0.00     0.062 A 
HETATM   11  C2  UNL     1      27.422  -0.117  53.547  1.00  0.00     0.094 A 
HETATM   12  C3  UNL     1      28.505   0.015  54.363  1.00  0.00     0.039 A 
HETATM   13  C4  UNL     1      29.244   1.174  54.481  1.00  0.00     0.003 A 
HETATM   14  C5  UNL     1      28.846   2.239  53.723  1.00  0.00     0.002 A 
HETATM   15  C6  UNL     1      27.752   2.124  52.891  1.00  0.00     0.032 A 
BRANCH  11  16
HETATM   16  O1  UNL     1      26.674  -1.273  53.421  1.00  0.00    -0.354 OA
HETATM   17  C1  UNL     1      27.132  -2.295  52.559  1.00  0.00     0.210 C 
ENDBRANCH  11  16
ENDBRANCH   8  10
ENDBRANCH   6   8
ENDBRANCH   1   3
BRANCH   1  18
HETATM   18  N3  UNL     1      26.035   4.391  50.484  1.00  0.00     0.141 N 
HETATM   19  H13 UNL     1      26.499   3.785  51.206  1.00  0.00     0.322 HD
BRANCH  18  20
HETATM   20  C12 UNL     1      26.536   4.023  49.208  1.00  0.00     0.314 C 
BRANCH  20  21
HETATM   21  C13 UNL     1      27.309   5.229  48.710  1.00  0.00    -0.030 A 
HETATM   22  C14 UNL     1      28.643   5.094  48.392  1.00  0.00     0.011 A 
HETATM   23  C15 UNL     1      29.398   6.175  47.929  1.00  0.00     0.030 A 
HETATM   24  C16 UNL     1      28.832   7.403  47.777  1.00  0.00     0.030 A 
HETATM   25  C23 UNL     1      27.498   7.500  48.105  1.00  0.00     0.030 A 
HETATM   26  C24 UNL     1      26.715   6.464  48.565  1.00  0.00     0.011 A 
BRANCH  24  27
HETATM   27  N4  UNL     1      29.622   8.464  47.305  1.00  0.00    -0.379 N 
HETATM   28  C17 UNL     1      30.838   8.713  48.068  1.00  0.00     0.124 C 
HETATM   29  C18 UNL     1      30.396   9.610  49.204  1.00  0.00     0.039 C 
HETATM   30  C19 UNL     1      30.269  11.013  48.725  1.00  0.00     0.118 C 
HETATM   31  N5  UNL     1      30.075  11.241  47.358  1.00  0.00    -0.415 N 
HETATM   32  C20 UNL     1      31.078  11.910  46.620  1.00  0.00     0.143 C 
HETATM   33  C21 UNL     1      28.998  10.660  46.672  1.00  0.00     0.136 C 
HETATM   34  C22 UNL     1      29.263   9.266  46.152  1.00  0.00     0.142 C 
ENDBRANCH  24  27
ENDBRANCH  20  21
ENDBRANCH  18  20
ENDBRANCH   1  18
TORSDOF 8
ENDMDL
MODEL 3
REMARK VINA RESULT:      -8.7      2.046      3.988
REMARK  8 active torsions:
REMARK  status: ('A' for Active; 'I' for Inactive)
REMARK    1  A    between atoms: O1_2  and  C2_3 
REMARK    2  A    between atoms: C7_8  and  N1_9 
REMARK    3  A    between atoms: N1_9  and  C8_10 
REMARK    4  A    between atoms: N2_13  and  C11_14 
REMARK    5  A    between atoms: C11_14  and  N3_16 
REMARK    6  A    between atoms: N3_16  and  C12_17 
REMARK    7  A    between atoms: C12_17  and  C13_18 
REMARK    8  A    between atoms: C16_21  and  N4_22 
ROOT
HETATM    1  C11 UNL     1      26.917   2.557  51.427  1.00  0.00     0.508 C 
HETATM    2  F1  UNL     1      26.768   1.593  50.389  1.00  0.00    -0.193 F 
ENDROOT
BRANCH   1   3
HETATM    3  N2  UNL     1      27.010   1.864  52.695  1.00  0.00    -0.335 N 
HETATM    4  C10 UNL     1      27.897   0.866  53.185  1.00  0.00     0.088 C 
HETATM    5  C9  UNL     1      27.278   0.160  54.151  1.00  0.00     0.017 C 
HETATM    6  C8  UNL     1      25.909   0.704  54.318  1.00  0.00     0.124 C 
HETATM    7  C25 UNL     1      26.102   2.121  53.827  1.00  0.00     0.156 C 
BRANCH   6   8
HETATM    8  N1  UNL     1      25.040   0.031  53.387  1.00  0.00    -0.378 N 
HETATM    9  H8  UNL     1      25.444  -0.418  52.510  1.00  0.00     0.160 HD
BRANCH   8  10
HETATM   10  C7  UNL     1      23.628  -0.141  53.460  1.00  0.00     0.062 A 
HETATM   11  C2  UNL     1      22.704   0.465  52.599  1.00  0.00     0.094 A 
HETATM   12  C3  UNL     1      21.370   0.238  52.761  1.00  0.00     0.039 A 
HETATM   13  C4  UNL     1      20.840  -0.572  53.743  1.00  0.00     0.003 A 
HETATM   14  C5  UNL     1      21.728  -1.172  54.593  1.00  0.00     0.002 A 
HETATM   15  C6  UNL     1      23.081  -0.953  54.444  1.00  0.00     0.032 A 
BRANCH  11  16
HETATM   16  O1  UNL     1      23.245   1.275  51.618  1.00  0.00    -0.354 OA
HETATM   17  C1  UNL     1      22.519   1.484  50.423  1.00  0.00     0.210 C 
ENDBRANCH  11  16
ENDBRANCH   8  10
ENDBRANCH   6   8
ENDBRANCH   1   3
BRANCH   1  18
HETATM   18  N3  UNL     1      25.766   3.389  51.286  1.00  0.00     0.141 N 
HETATM   19  H13 UNL     1      26.007   4.324  51.699  1.00  0.00     0.322 HD
BRANCH  18  20
HETATM   20  C12 UNL     1      25.395   3.584  49.931  1.00  0.00     0.314 C 
BRANCH  20  21
HETATM   21  C13 UNL     1      26.158   4.810  49.471  1.00  0.00    -0.030 A 
HETATM   22  C14 UNL     1      27.340   4.651  48.779  1.00  0.00     0.011 A 
HETATM   23  C15 UNL     1      28.080   5.749  48.334  1.00  0.00     0.030 A 
HETATM   24  C16 UNL     1      27.652   7.019  48.572  1.00  0.00     0.030 A 
HETATM   25  C23 UNL     1      26.469   7.138  49.266  1.00  0.00     0.030 A 
HETATM   26  C24 UNL     1      25.706   6.087  49.724  1.00  0.00     0.011 A 
BRANCH  24  27
HETATM   27  N4  UNL     1      28.421   8.098  48.105  1.00  0.00    -0.379 N 
HETATM   28  C17 UNL     1      29.781   7.758  47.710  1.00  0.00     0.124 C 
HETATM   29  C18 UNL     1      30.575   7.811  48.997  1.00  0.00     0.039 C 
HETATM   30  C19 UNL     1      30.902   9.222  49.336  1.00  0.00     0.118 C 
HETATM   31  N5  UNL     1      30.104  10.242  48.806  1.00  0.00    -0.415 N 
HETATM   32  C20 UNL     1      30.671  11.156  47.888  1.00  0.00     0.143 C 
HETATM   33  C21 UNL     1      28.717  10.263  49.018  1.00  0.00     0.136 C 
HETATM   34  C22 UNL     1      27.916   9.454  48.024  1.00  0.00     0.142 C 
ENDBRANCH  24  27
ENDBRANCH  20  21
ENDBRANCH  18  20
ENDBRANCH   1  18
TORSDOF 8
ENDMDL
MODEL 4
REMARK VINA RESULT:      -8.6      0.793      1.662
REMARK  8 active torsions:
REMARK  status: ('A' for Active; 'I' for Inactive)
REMARK    1  A    between atoms: O1_2  and  C2_3 
REMARK    2  A    between atoms: C7_8  and  N1_9 
REMARK    3  A    between atoms: N1_9  and  C8_10 
REMARK    4  A    between atoms: N2_13  and  C11_14 
REMARK    5  A    between atoms: C11_14  and  N3_16 
REMARK    6  A    between atoms: N3_16  and  C12_17 
REMARK    7  A    between atoms: C12_17  and  C13_18 
REMARK    8  A    between atoms: C16_21  and  N4_22 
ROOT
HETATM    1  C11 UNL     1      23.763   3.942  52.244  1.00  0.00     0.508 C 
HETATM    2  F1  UNL     1      24.158   4.328  53.556  1.00  0.00    -0.193 F 
ENDROOT
BRANCH   1   3
HETATM    3  N2  UNL     1      23.439   2.530  52.253  1.00  0.00    -0.335 N 
HETATM    4  C10 UNL     1      22.622   1.734  53.103  1.00  0.00     0.088 C 
HETATM    5  C9  UNL     1      23.058   0.460  53.068  1.00  0.00     0.017 C 
HETATM    6  C8  UNL     1      24.224   0.394  52.155  1.00  0.00     0.124 C 
HETATM    7  C25 UNL     1      23.950   1.575  51.253  1.00  0.00     0.156 C 
BRANCH   6   8
HETATM    8  N1  UNL     1      25.410   0.690  52.917  1.00  0.00    -0.378 N 
HETATM    9  H8  UNL     1      25.481   1.603  53.460  1.00  0.00     0.160 HD
BRANCH   8  10
HETATM   10  C7  UNL     1      26.584  -0.102  53.071  1.00  0.00     0.062 A 
HETATM   11  C2  UNL     1      27.774   0.340  53.665  1.00  0.00     0.094 A 
HETATM   12  C3  UNL     1      28.844  -0.499  53.755  1.00  0.00     0.039 A 
HETATM   13  C4  UNL     1      28.847  -1.797  53.289  1.00  0.00     0.003 A 
HETATM   14  C5  UNL     1      27.694  -2.245  52.706  1.00  0.00     0.002 A 
HETATM   15  C6  UNL     1      26.601  -1.410  52.606  1.00  0.00     0.032 A 
BRANCH  11  16
HETATM   16  O1  UNL     1      27.760   1.642  54.129  1.00  0.00    -0.354 OA
HETATM   17  C1  UNL     1      28.698   2.565  53.611  1.00  0.00     0.210 C 
ENDBRANCH  11  16
ENDBRANCH   8  10
ENDBRANCH   6   8
ENDBRANCH   1   3
BRANCH   1  18
HETATM   18  N3  UNL     1      24.884   4.289  51.434  1.00  0.00     0.141 N 
HETATM   19  H13 UNL     1      25.305   3.393  51.084  1.00  0.00     0.322 HD
BRANCH  18  20
HETATM   20  C12 UNL     1      24.523   5.078  50.310  1.00  0.00     0.314 C 
BRANCH  20  21
HETATM   21  C13 UNL     1      25.823   5.391  49.596  1.00  0.00    -0.030 A 
HETATM   22  C14 UNL     1      26.142   6.703  49.315  1.00  0.00     0.011 A 
HETATM   23  C15 UNL     1      27.328   7.042  48.658  1.00  0.00     0.030 A 
HETATM   24  C16 UNL     1      28.211   6.080  48.275  1.00  0.00     0.030 A 
HETATM   25  C23 UNL     1      27.858   4.783  48.574  1.00  0.00     0.030 A 
HETATM   26  C24 UNL     1      26.703   4.400  49.217  1.00  0.00     0.011 A 
BRANCH  24  27
HETATM   27  N4  UNL     1      29.394   6.461  47.622  1.00  0.00    -0.379 N 
HETATM   28  C17 UNL     1      30.518   5.554  47.807  1.00  0.00     0.124 C 
HETATM   29  C18 UNL     1      31.151   5.994  49.110  1.00  0.00     0.039 C 
HETATM   30  C19 UNL     1      32.004   7.191  48.882  1.00  0.00     0.118 C 
HETATM   31  N5  UNL     1      31.749   7.994  47.765  1.00  0.00    -0.415 N 
HETATM   32  C20 UNL     1      32.720   8.080  46.740  1.00  0.00     0.143 C 
HETATM   33  C21 UNL     1      30.484   8.563  47.554  1.00  0.00     0.136 C 
HETATM   34  C22 UNL     1      29.506   7.668  46.827  1.00  0.00     0.142 C 
ENDBRANCH  24  27
ENDBRANCH  20  21
ENDBRANCH  18  20
ENDBRANCH   1  18
TORSDOF 8
ENDMDL
MODEL 5
REMARK VINA RESULT:      -8.6      1.819      2.726
REMARK  8 active torsions:
REMARK  status: ('A' for Active; 'I' for Inactive)
REMARK    1  A    between atoms: O1_2  and  C2_3 
REMARK    2  A    between atoms: C7_8  and  N1_9 
REMARK    3  A    between atoms: N1_9  and  C8_10 
REMARK    4  A    between atoms: N2_13  and  C11_14 
REMARK    5  A    between atoms: C11_14  and  N3_16 
REMARK    6  A    between atoms: N3_16  and  C12_17 
REMARK    7  A    between atoms: C12_17  and  C13_18 
REMARK    8  A    between atoms: C16_21  and  N4_22 
ROOT
HETATM    1  C11 UNL     1      24.638   4.451  50.634  1.00  0.00     0.508 C 
HETATM    2  F1  UNL     1      24.270   5.687  51.236  1.00  0.00    -0.193 F 
ENDROOT
BRANCH   1   3
HETATM    3  N2  UNL     1      24.185   3.367  51.481  1.00  0.00    -0.335 N 
HETATM    4  C10 UNL     1      24.050   3.237  52.891  1.00  0.00     0.088 C 
HETATM    5  C9  UNL     1      24.134   1.936  53.225  1.00  0.00     0.017 C 
HETATM    6  C8  UNL     1      24.338   1.151  51.984  1.00  0.00     0.124 C 
HETATM    7  C25 UNL     1      23.718   2.071  50.957  1.00  0.00     0.156 C 
BRANCH   6   8
HETATM    8  N1  UNL     1      25.752   1.086  51.718  1.00  0.00    -0.378 N 
HETATM    9  H8  UNL     1      26.200   1.779  51.045  1.00  0.00     0.160 HD
BRANCH   8  10
HETATM   10  C7  UNL     1      26.713   0.179  52.252  1.00  0.00     0.062 A 
HETATM   11  C2  UNL     1      27.948   0.553  52.797  1.00  0.00     0.094 A 
HETATM   12  C3  UNL     1      28.799  -0.398  53.275  1.00  0.00     0.039 A 
HETATM   13  C4  UNL     1      28.528  -1.750  53.262  1.00  0.00     0.003 A 
HETATM   14  C5  UNL     1      27.327  -2.134  52.734  1.00  0.00     0.002 A 
HETATM   15  C6  UNL     1      26.453  -1.185  52.245  1.00  0.00     0.032 A 
BRANCH  11  16
HETATM   16  O1  UNL     1      28.209   1.911  52.805  1.00  0.00    -0.354 OA
HETATM   17  C1  UNL     1      29.030   2.445  53.824  1.00  0.00     0.210 C 
ENDBRANCH  11  16
ENDBRANCH   8  10
ENDBRANCH   6   8
ENDBRANCH   1   3
BRANCH   1  18
HETATM   18  N3  UNL     1      26.056   4.547  50.498  1.00  0.00     0.141 N 
HETATM   19  H13 UNL     1      26.481   3.926  51.231  1.00  0.00     0.322 HD
BRANCH  18  20
HETATM   20  C12 UNL     1      26.514   4.111  49.227  1.00  0.00     0.314 C 
BRANCH  20  21
HETATM   21  C13 UNL     1      27.328   5.262  48.669  1.00  0.00    -0.030 A 
HETATM   22  C14 UNL     1      26.715   6.475  48.441  1.00  0.00     0.011 A 
HETATM   23  C15 UNL     1      27.422   7.566  47.928  1.00  0.00     0.030 A 
HETATM   24  C16 UNL     1      28.748   7.461  47.637  1.00  0.00     0.030 A 
HETATM   25  C23 UNL     1      29.324   6.234  47.878  1.00  0.00     0.030 A 
HETATM   26  C24 UNL     1      28.669   5.132  48.382  1.00  0.00     0.011 A 
BRANCH  24  27
HETATM   27  N4  UNL     1      29.425   8.580  47.127  1.00  0.00    -0.379 N 
HETATM   28  C17 UNL     1      30.775   8.768  47.640  1.00  0.00     0.124 C 
HETATM   29  C18 UNL     1      30.588   9.530  48.934  1.00  0.00     0.039 C 
HETATM   30  C19 UNL     1      30.370  10.974  48.648  1.00  0.00     0.118 C 
HETATM   31  N5  UNL     1      29.892  11.343  47.386  1.00  0.00    -0.415 N 
HETATM   32  C20 UNL     1      30.721  12.105  46.530  1.00  0.00     0.143 C 
HETATM   33  C21 UNL     1      28.692  10.820  46.882  1.00  0.00     0.136 C 
HETATM   34  C22 UNL     1      28.835   9.494  46.169  1.00  0.00     0.142 C 
ENDBRANCH  24  27
ENDBRANCH  20  21
ENDBRANCH  18  20
ENDBRANCH   1  18
TORSDOF 8
ENDMDL
MODEL 6
REMARK VINA RESULT:      -8.5      1.682      3.547
REMARK  8 active torsions:
REMARK  status: ('A' for Active; 'I' for Inactive)
REMARK    1  A    between atoms: O1_2  and  C2_3 
REMARK    2  A    between atoms: C7_8  and  N1_9 
REMARK    3  A    between atoms: N1_9  and  C8_10 
REMARK    4  A    between atoms: N2_13  and  C11_14 
REMARK    5  A    between atoms: C11_14  and  N3_16 
REMARK    6  A    between atoms: N3_16  and  C12_17 
REMARK    7  A    between atoms: C12_17  and  C13_18 
REMARK    8  A    between atoms: C16_21  and  N4_22 
ROOT
HETATM    1  C11 UNL     1      24.543   3.507  51.373  1.00  0.00     0.508 C 
HETATM    2  F1  UNL     1      23.442   3.683  52.258  1.00  0.00    -0.193 F 
ENDROOT
BRANCH   1   3
HETATM    3  N2  UNL     1      25.550   2.706  52.038  1.00  0.00    -0.335 N 
HETATM    4  C10 UNL     1      26.774   2.132  51.593  1.00  0.00     0.088 C 
HETATM    5  C9  UNL     1      27.063   1.061  52.355  1.00  0.00     0.017 C 
HETATM    6  C8  UNL     1      25.983   0.901  53.359  1.00  0.00     0.124 C 
HETATM    7  C25 UNL     1      25.472   2.320  53.458  1.00  0.00     0.156 C 
BRANCH   6   8
HETATM    8  N1  UNL     1      24.940   0.098  52.775  1.00  0.00    -0.378 N 
HETATM    9  H8  UNL     1      25.072  -0.324  51.806  1.00  0.00     0.160 HD
BRANCH   8  10
HETATM   10  C7  UNL     1      23.672  -0.245  53.327  1.00  0.00     0.062 A 
HETATM   11  C2  UNL     1      22.437   0.055  52.738  1.00  0.00     0.094 A 
HETATM   12  C3  UNL     1      21.280  -0.314  53.356  1.00  0.00     0.039 A 
HETATM   13  C4  UNL     1      21.228  -0.984  54.560  1.00  0.00     0.003 A 
HETATM   14  C5  UNL     1      22.425  -1.286  55.149  1.00  0.00     0.002 A 
HETATM   15  C6  UNL     1      23.606  -0.920  54.539  1.00  0.00     0.032 A 
BRANCH  11  16
HETATM   16  O1  UNL     1      22.499   0.727  51.532  1.00  0.00    -0.354 OA
HETATM   17  C1  UNL     1      21.307   1.241  50.971  1.00  0.00     0.210 C 
ENDBRANCH  11  16
ENDBRANCH   8  10
ENDBRANCH   6   8
ENDBRANCH   1   3
BRANCH   1  18
HETATM   18  N3  UNL     1      24.951   4.840  51.066  1.00  0.00     0.141 N 
HETATM   19  H13 UNL     1      25.985   4.897  51.244  1.00  0.00     0.322 HD
BRANCH  18  20
HETATM   20  C12 UNL     1      24.714   5.185  49.710  1.00  0.00     0.314 C 
BRANCH  20  21
HETATM   21  C13 UNL     1      26.064   5.585  49.149  1.00  0.00    -0.030 A 
HETATM   22  C14 UNL     1      27.021   4.617  48.932  1.00  0.00     0.011 A 
HETATM   23  C15 UNL     1      28.279   4.936  48.416  1.00  0.00     0.030 A 
HETATM   24  C16 UNL     1      28.600   6.222  48.110  1.00  0.00     0.030 A 
HETATM   25  C23 UNL     1      27.619   7.161  48.339  1.00  0.00     0.030 A 
HETATM   26  C24 UNL     1      26.366   6.896  48.845  1.00  0.00     0.011 A 
BRANCH  24  27
HETATM   27  N4  UNL     1      29.874   6.503  47.589  1.00  0.00    -0.379 N 
HETATM   28  C17 UNL     1      30.923   5.579  47.998  1.00  0.00     0.124 C 
HETATM   29  C18 UNL     1      31.401   6.115  49.330  1.00  0.00     0.039 C 
HETATM   30  C19 UNL     1      32.330   7.258  49.115  1.00  0.00     0.118 C 
HETATM   31  N5  UNL     1      32.257   7.964  47.909  1.00  0.00    -0.415 N 
HETATM   32  C20 UNL     1      33.355   7.923  47.019  1.00  0.00     0.143 C 
HETATM   33  C21 UNL     1      31.057   8.552  47.484  1.00  0.00     0.136 C 
HETATM   34  C22 UNL     1      30.142   7.627  46.715  1.00  0.00     0.142 C 
ENDBRANCH  24  27
ENDBRANCH  20  21
ENDBRANCH  18  20
ENDBRANCH   1  18
TORSDOF 8
ENDMDL
MODEL 7
REMARK VINA RESULT:      -8.2      3.658      9.252
REMARK  8 active torsions:
REMARK  status: ('A' for Active; 'I' for Inactive)
REMARK    1  A    between atoms: O1_2  and  C2_3 
REMARK    2  A    between atoms: C7_8  and  N1_9 
REMARK    3  A    between atoms: N1_9  and  C8_10 
REMARK    4  A    between atoms: N2_13  and  C11_14 
REMARK    5  A    between atoms: C11_14  and  N3_16 
REMARK    6  A    between atoms: N3_16  and  C12_17 
REMARK    7  A    between atoms: C12_17  and  C13_18 
REMARK    8  A    between atoms: C16_21  and  N4_22 
ROOT
HETATM    1  C11 UNL     1      29.154   7.811  47.991  1.00  0.00     0.508 C 
HETATM    2  F1  UNL     1      29.097   7.160  46.726  1.00  0.00    -0.193 F 
ENDROOT
BRANCH   1   3
HETATM    3  N2  UNL     1      30.508   8.271  48.218  1.00  0.00    -0.335 N 
HETATM    4  C10 UNL     1      31.248   9.376  47.715  1.00  0.00     0.088 C 
HETATM    5  C9  UNL     1      32.562   9.086  47.758  1.00  0.00     0.017 C 
HETATM    6  C8  UNL     1      32.716   7.719  48.312  1.00  0.00     0.124 C 
HETATM    7  C25 UNL     1      31.450   7.596  49.129  1.00  0.00     0.156 C 
BRANCH   6   8
HETATM    8  N1  UNL     1      32.630   6.779  47.224  1.00  0.00    -0.378 N 
HETATM    9  H8  UNL     1      32.346   7.112  46.253  1.00  0.00     0.160 HD
BRANCH   8  10
HETATM   10  C7  UNL     1      32.885   5.377  47.243  1.00  0.00     0.062 A 
HETATM   11  C2  UNL     1      34.102   4.791  47.613  1.00  0.00     0.094 A 
HETATM   12  C3  UNL     1      34.242   3.436  47.588  1.00  0.00     0.039 A 
HETATM   13  C4  UNL     1      33.242   2.565  47.213  1.00  0.00     0.003 A 
HETATM   14  C5  UNL     1      32.046   3.119  46.848  1.00  0.00     0.002 A 
HETATM   15  C6  UNL     1      31.886   4.489  46.867  1.00  0.00     0.032 A 
BRANCH  11  16
HETATM   16  O1  UNL     1      35.099   5.673  47.987  1.00  0.00    -0.354 OA
HETATM   17  C1  UNL     1      35.600   5.621  49.308  1.00  0.00     0.210 C 
ENDBRANCH  11  16
ENDBRANCH   8  10
ENDBRANCH   6   8
ENDBRANCH   1   3
BRANCH   1  18
HETATM   18  N3  UNL     1      28.702   6.816  48.907  1.00  0.00     0.141 N 
HETATM   19  H13 UNL     1      27.838   7.191  49.373  1.00  0.00     0.322 HD
BRANCH  18  20
HETATM   20  C12 UNL     1      28.365   5.595  48.266  1.00  0.00     0.314 C 
BRANCH  20  21
HETATM   21  C13 UNL     1      27.074   5.136  48.915  1.00  0.00    -0.030 A 
HETATM   22  C14 UNL     1      26.910   3.803  49.227  1.00  0.00     0.011 A 
HETATM   23  C15 UNL     1      25.739   3.331  49.825  1.00  0.00     0.030 A 
HETATM   24  C16 UNL     1      24.717   4.180  50.120  1.00  0.00     0.030 A 
HETATM   25  C23 UNL     1      24.917   5.503  49.793  1.00  0.00     0.030 A 
HETATM   26  C24 UNL     1      26.052   6.014  49.204  1.00  0.00     0.011 A 
BRANCH  24  27
HETATM   27  N4  UNL     1      23.558   3.669  50.725  1.00  0.00    -0.379 N 
HETATM   28  C17 UNL     1      23.384   4.031  52.125  1.00  0.00     0.124 C 
HETATM   29  C18 UNL     1      24.182   2.996  52.887  1.00  0.00     0.039 C 
HETATM   30  C19 UNL     1      23.403   1.732  52.996  1.00  0.00     0.118 C 
HETATM   31  N5  UNL     1      22.392   1.484  52.062  1.00  0.00    -0.415 N 
HETATM   32  C20 UNL     1      21.048   1.428  52.497  1.00  0.00     0.143 C 
HETATM   33  C21 UNL     1      22.662   1.476  50.685  1.00  0.00     0.136 C 
HETATM   34  C22 UNL     1      22.601   2.835  50.025  1.00  0.00     0.142 C 
ENDBRANCH  24  27
ENDBRANCH  20  21
ENDBRANCH  18  20
ENDBRANCH   1  18
TORSDOF 8
ENDMDL
MODEL 8
REMARK VINA RESULT:      -8.2      1.621      2.759
REMARK  8 active torsions:
REMARK  status: ('A' for Active; 'I' for Inactive)
REMARK    1  A    between atoms: O1_2  and  C2_3 
REMARK    2  A    between atoms: C7_8  and  N1_9 
REMARK    3  A    between atoms: N1_9  and  C8_10 
REMARK    4  A    between atoms: N2_13  and  C11_14 
REMARK    5  A    between atoms: C11_14  and  N3_16 
REMARK    6  A    between atoms: N3_16  and  C12_17 
REMARK    7  A    between atoms: C12_17  and  C13_18 
REMARK    8  A    between atoms: C16_21  and  N4_22 
ROOT
HETATM    1  C11 UNL     1      25.802   3.362  50.299  1.00  0.00     0.508 C 
HETATM    2  F1  UNL     1      25.416   3.049  48.964  1.00  0.00    -0.193 F 
ENDROOT
BRANCH   1   3
HETATM    3  N2  UNL     1      24.743   2.952  51.198  1.00  0.00    -0.335 N 
HETATM    4  C10 UNL     1      23.907   3.672  52.095  1.00  0.00     0.088 C 
HETATM    5  C9  UNL     1      23.496   2.847  53.076  1.00  0.00     0.017 C 
HETATM    6  C8  UNL     1      24.084   1.508  52.832  1.00  0.00     0.124 C 
HETATM    7  C25 UNL     1      24.293   1.555  51.336  1.00  0.00     0.156 C 
BRANCH   6   8
HETATM    8  N1  UNL     1      25.382   1.465  53.456  1.00  0.00    -0.378 N 
HETATM    9  H8  UNL     1      25.697   2.263  54.086  1.00  0.00     0.160 HD
BRANCH   8  10
HETATM   10  C7  UNL     1      26.378   0.452  53.357  1.00  0.00     0.062 A 
HETATM   11  C2  UNL     1      27.714   0.604  53.752  1.00  0.00     0.094 A 
HETATM   12  C3  UNL     1      28.590  -0.429  53.607  1.00  0.00     0.039 A 
HETATM   13  C4  UNL     1      28.252  -1.658  53.082  1.00  0.00     0.003 A 
HETATM   14  C5  UNL     1      26.952  -1.825  52.690  1.00  0.00     0.002 A 
HETATM   15  C6  UNL     1      26.052  -0.790  52.829  1.00  0.00     0.032 A 
BRANCH  11  16
HETATM   16  O1  UNL     1      28.042   1.840  54.277  1.00  0.00    -0.354 OA
HETATM   17  C1  UNL     1      29.220   2.484  53.832  1.00  0.00     0.210 C 
ENDBRANCH  11  16
ENDBRANCH   8  10
ENDBRANCH   6   8
ENDBRANCH   1   3
BRANCH   1  18
HETATM   18  N3  UNL     1      26.041   4.768  50.264  1.00  0.00     0.141 N 
HETATM   19  H13 UNL     1      27.018   4.926  50.615  1.00  0.00     0.322 HD
BRANCH  18  20
HETATM   20  C12 UNL     1      25.947   5.306  48.954  1.00  0.00     0.314 C 
BRANCH  20  21
HETATM   21  C13 UNL     1      27.307   5.909  48.662  1.00  0.00    -0.030 A 
HETATM   22  C14 UNL     1      27.438   7.280  48.590  1.00  0.00     0.011 A 
HETATM   23  C15 UNL     1      28.670   7.884  48.324  1.00  0.00     0.030 A 
HETATM   24  C16 UNL     1      29.785   7.129  48.126  1.00  0.00     0.030 A 
HETATM   25  C23 UNL     1      29.615   5.766  48.206  1.00  0.00     0.030 A 
HETATM   26  C24 UNL     1      28.424   5.126  48.465  1.00  0.00     0.011 A 
BRANCH  24  27
HETATM   27  N4  UNL     1      31.006   7.773  47.866  1.00  0.00    -0.379 N 
HETATM   28  C17 UNL     1      31.019   8.610  46.674  1.00  0.00     0.124 C 
HETATM   29  C18 UNL     1      31.334   7.655  45.543  1.00  0.00     0.039 C 
HETATM   30  C19 UNL     1      32.796   7.377  45.505  1.00  0.00     0.118 C 
HETATM   31  N5  UNL     1      33.546   7.566  46.670  1.00  0.00    -0.415 N 
HETATM   32  C20 UNL     1      34.536   8.575  46.698  1.00  0.00     0.143 C 
HETATM   33  C21 UNL     1      33.211   6.907  47.863  1.00  0.00     0.136 C 
HETATM   34  C22 UNL     1      32.177   7.619  48.706  1.00  0.00     0.142 C 
ENDBRANCH  24  27
ENDBRANCH  20  21
ENDBRANCH  18  20
ENDBRANCH   1  18
TORSDOF 8
ENDMDL
MODEL 9
REMARK VINA RESULT:      -8.1      2.146      3.585
REMARK  8 active torsions:
REMARK  status: ('A' for Active; 'I' for Inactive)
REMARK    1  A    between atoms: O1_2  and  C2_3 
REMARK    2  A    between atoms: C7_8  and  N1_9 
REMARK    3  A    between atoms: N1_9  and  C8_10 
REMARK    4  A    between atoms: N2_13  and  C11_14 
REMARK    5  A    between atoms: C11_14  and  N3_16 
REMARK    6  A    between atoms: N3_16  and  C12_17 
REMARK    7  A    between atoms: C12_17  and  C13_18 
REMARK    8  A    between atoms: C16_21  and  N4_22 
ROOT
HETATM    1  C11 UNL     1      25.120   3.552  50.565  1.00  0.00     0.508 C 
HETATM    2  F1  UNL     1      25.174   3.016  49.247  1.00  0.00    -0.193 F 
ENDROOT
BRANCH   1   3
HETATM    3  N2  UNL     1      23.736   3.609  50.988  1.00  0.00    -0.335 N 
HETATM    4  C10 UNL     1      23.120   3.914  52.233  1.00  0.00     0.088 C 
HETATM    5  C9  UNL     1      21.917   3.314  52.290  1.00  0.00     0.017 C 
HETATM    6  C8  UNL     1      21.711   2.566  51.027  1.00  0.00     0.124 C 
HETATM    7  C25 UNL     1      22.602   3.344  50.085  1.00  0.00     0.156 C 
BRANCH   6   8
HETATM    8  N1  UNL     1      22.279   1.252  51.183  1.00  0.00    -0.378 N 
HETATM    9  H8  UNL     1      22.769   0.782  50.362  1.00  0.00     0.160 HD
BRANCH   8  10
HETATM   10  C7  UNL     1      22.291   0.424  52.342  1.00  0.00     0.062 A 
HETATM   11  C2  UNL     1      23.438   0.094  53.077  1.00  0.00     0.094 A 
HETATM   12  C3  UNL     1      23.339  -0.714  54.169  1.00  0.00     0.039 A 
HETATM   13  C4  UNL     1      22.154  -1.253  54.624  1.00  0.00     0.003 A 
HETATM   14  C5  UNL     1      21.024  -0.942  53.920  1.00  0.00     0.002 A 
HETATM   15  C6  UNL     1      21.105  -0.125  52.811  1.00  0.00     0.032 A 
BRANCH  11  16
HETATM   16  O1  UNL     1      24.620   0.639  52.612  1.00  0.00    -0.354 OA
HETATM   17  C1  UNL     1      25.520   1.215  53.539  1.00  0.00     0.210 C 
ENDBRANCH  11  16
ENDBRANCH   8  10
ENDBRANCH   6   8
ENDBRANCH   1   3
BRANCH   1  18
HETATM   18  N3  UNL     1      25.758   4.823  50.443  1.00  0.00     0.141 N 
HETATM   19  H13 UNL     1      26.790   4.665  50.558  1.00  0.00     0.322 HD
BRANCH  18  20
HETATM   20  C12 UNL     1      25.539   5.424  49.176  1.00  0.00     0.314 C 
BRANCH  20  21
HETATM   21  C13 UNL     1      26.907   5.863  48.691  1.00  0.00    -0.030 A 
HETATM   22  C14 UNL     1      27.909   4.926  48.554  1.00  0.00     0.011 A 
HETATM   23  C15 UNL     1      29.185   5.281  48.111  1.00  0.00     0.030 A 
HETATM   24  C16 UNL     1      29.479   6.573  47.798  1.00  0.00     0.030 A 
HETATM   25  C23 UNL     1      28.453   7.479  47.947  1.00  0.00     0.030 A 
HETATM   26  C24 UNL     1      27.181   7.177  48.380  1.00  0.00     0.011 A 
BRANCH  24  27
HETATM   27  N4  UNL     1      30.772   6.890  47.351  1.00  0.00    -0.379 N 
HETATM   28  C17 UNL     1      31.671   5.752  47.212  1.00  0.00     0.124 C 
HETATM   29  C18 UNL     1      32.249   5.553  48.596  1.00  0.00     0.039 C 
HETATM   30  C19 UNL     1      33.340   6.535  48.838  1.00  0.00     0.118 C 
HETATM   31  N5  UNL     1      33.359   7.716  48.088  1.00  0.00    -0.415 N 
HETATM   32  C20 UNL     1      34.422   7.943  47.184  1.00  0.00     0.143 C 
HETATM   33  C21 UNL     1      32.259   8.586  48.076  1.00  0.00     0.136 C 
HETATM   34  C22 UNL     1      31.198   8.243  47.055  1.00  0.00     0.142 C 
ENDBRANCH  24  27
ENDBRANCH  20  21
ENDBRANCH  18  20
ENDBRANCH   1  18
TORSDOF 8
ENDMDL
