MODEL 1
REMARK VINA RESULT:      -9.6      0.000      0.000
REMARK  4 active torsions:
REMARK  status: ('A' for Active; 'I' for Inactive)
REMARK    1  A    between atoms: C2_2  and  C3_3 
REMARK       I    between atoms: C3_3  and  N1_5 
REMARK    2  A    between atoms: N1_5  and  C4_6 
REMARK    3  A    between atoms: C12_15  and  N3_16 
REMARK    4  A    between atoms: N3_16  and  C13_17 
ROOT
HETATM    1  C4  UNL     1      25.286  -0.050  53.219  1.00  0.00     0.035 A 
HETATM    2  C5  UNL     1      25.031   0.976  52.340  1.00  0.00     0.032 A 
HETATM    3  C6  UNL     1      23.780   1.522  52.187  1.00  0.00     0.040 A 
HETATM    4  C7  UNL     1      22.705   1.063  52.916  1.00  0.00     0.086 A 
HETATM    5  C8  UNL     1      22.899   0.029  53.820  1.00  0.00    -0.004 A 
HETATM    6  C9  UNL     1      24.183  -0.471  53.920  1.00  0.00     0.041 A 
HETATM    7  C10 UNL     1      21.960  -0.650  54.716  1.00  0.00     0.161 C 
HETATM    8  N2  UNL     1      20.643  -0.853  54.179  1.00  0.00    -0.379 N 
HETATM    9  C11 UNL     1      19.821  -0.132  53.249  1.00  0.00     0.129 A 
HETATM   10  C12 UNL     1      18.571  -0.689  53.068  1.00  0.00     0.160 A 
HETATM   11  N4  UNL     1      17.714  -0.099  52.220  1.00  0.00    -0.222 NA
HETATM   12  C19 UNL     1      18.107   1.006  51.583  1.00  0.00     0.238 A 
HETATM   13  N5  UNL     1      19.331   1.570  51.747  1.00  0.00    -0.215 NA
HETATM   14  C20 UNL     1      20.232   1.026  52.583  1.00  0.00     0.202 A 
HETATM   15  O2  UNL     1      21.473   1.686  52.684  1.00  0.00    -0.289 OA
HETATM   16  H10 UNL     1      20.149  -1.709  54.522  1.00  0.00     0.160 HD
ENDROOT
BRANCH  10  17
HETATM   17  N3  UNL     1      18.281  -1.855  53.801  1.00  0.00    -0.339 N 
HETATM   18  H11 UNL     1      18.871  -1.946  54.657  1.00  0.00     0.167 HD
BRANCH  17  19
HETATM   19  C13 UNL     1      17.294  -2.837  53.451  1.00  0.00     0.035 A 
HETATM   20  C14 UNL     1      17.417  -4.154  53.831  1.00  0.00     0.032 A 
HETATM   21  C15 UNL     1      16.494  -5.097  53.502  1.00  0.00     0.046 A 
HETATM   22  C16 UNL     1      15.391  -4.675  52.751  1.00  0.00     0.138 A 
HETATM   23  F1  UNL     1      14.461  -5.618  52.418  1.00  0.00    -0.204 F 
HETATM   24  C17 UNL     1      15.250  -3.352  52.359  1.00  0.00     0.074 A 
HETATM   25 CL1  UNL     1      13.838  -2.875  51.411  1.00  0.00    -0.081 Cl
HETATM   26  C18 UNL     1      16.208  -2.421  52.711  1.00  0.00     0.056 A 
ENDBRANCH  17  19
ENDBRANCH  10  17
BRANCH   1  27
HETATM   27  N1  UNL     1      26.601  -0.560  53.319  1.00  0.00    -0.324 N 
HETATM   28  C3  UNL     1      27.669  -0.151  54.148  1.00  0.00     0.244 C 
HETATM   29  O1  UNL     1      27.481   0.806  54.936  1.00  0.00    -0.268 OA
HETATM   30  H4  UNL     1      26.876  -1.365  52.707  1.00  0.00     0.169 HD
BRANCH  28  31
HETATM   31  C2  UNL     1      28.983  -0.775  54.147  1.00  0.00     0.064 C 
HETATM   32  C1  UNL     1      30.048  -0.427  53.457  1.00  0.00     0.017 C 
ENDBRANCH  28  31
ENDBRANCH   1  27
TORSDOF 4
ENDMDL
MODEL 2
REMARK VINA RESULT:      -9.5      5.177      9.865
REMARK  4 active torsions:
REMARK  status: ('A' for Active; 'I' for Inactive)
REMARK    1  A    between atoms: C2_2  and  C3_3 
REMARK       I    between atoms: C3_3  and  N1_5 
REMARK    2  A    between atoms: N1_5  and  C4_6 
REMARK    3  A    between atoms: C12_15  and  N3_16 
REMARK    4  A    between atoms: N3_16  and  C13_17 
ROOT
HETATM    1  C4  UNL     1      18.112   0.170  50.499  1.00  0.00     0.035 A 
HETATM    2  C5  UNL     1      17.639  -0.463  51.623  1.00  0.00     0.032 A 
HETATM    3  C6  UNL     1      18.366  -0.545  52.786  1.00  0.00     0.040 A 
HETATM    4  C7  UNL     1      19.622   0.012  52.885  1.00  0.00     0.086 A 
HETATM    5  C8  UNL     1      20.155   0.665  51.783  1.00  0.00    -0.004 A 
HETATM    6  C9  UNL     1      19.367   0.707  50.649  1.00  0.00     0.041 A 
HETATM    7  C10 UNL     1      21.442   1.341  51.599  1.00  0.00     0.161 C 
HETATM    8  N2  UNL     1      22.559   0.713  52.250  1.00  0.00    -0.379 N 
HETATM    9  C11 UNL     1      22.710  -0.064  53.447  1.00  0.00     0.129 A 
HETATM   10  C12 UNL     1      24.016  -0.424  53.713  1.00  0.00     0.160 A 
HETATM   11  N4  UNL     1      24.279  -1.153  54.808  1.00  0.00    -0.222 NA
HETATM   12  C19 UNL     1      23.263  -1.504  55.599  1.00  0.00     0.238 A 
HETATM   13  N5  UNL     1      21.972  -1.161  55.356  1.00  0.00    -0.215 NA
HETATM   14  C20 UNL     1      21.646  -0.431  54.276  1.00  0.00     0.202 A 
HETATM   15  O2  UNL     1      20.279  -0.127  54.112  1.00  0.00    -0.289 OA
HETATM   16  H10 UNL     1      23.479   0.831  51.767  1.00  0.00     0.160 HD
ENDROOT
BRANCH  10  17
HETATM   17  N3  UNL     1      24.994   0.012  52.799  1.00  0.00    -0.339 N 
HETATM   18  H11 UNL     1      24.579   0.404  51.926  1.00  0.00     0.167 HD
BRANCH  17  19
HETATM   19  C13 UNL     1      26.413  -0.056  53.001  1.00  0.00     0.035 A 
HETATM   20  C14 UNL     1      27.109  -1.235  52.864  1.00  0.00     0.032 A 
HETATM   21  C15 UNL     1      28.452  -1.317  53.058  1.00  0.00     0.046 A 
HETATM   22  C16 UNL     1      29.119  -0.138  53.408  1.00  0.00     0.138 A 
HETATM   23  F1  UNL     1      30.468  -0.214  53.604  1.00  0.00    -0.204 F 
HETATM   24  C17 UNL     1      28.435   1.061  53.551  1.00  0.00     0.074 A 
HETATM   25 CL1  UNL     1      29.327   2.520  53.995  1.00  0.00    -0.081 Cl
HETATM   26  C18 UNL     1      27.070   1.107  53.346  1.00  0.00     0.056 A 
ENDBRANCH  17  19
ENDBRANCH  10  17
BRANCH   1  27
HETATM   27  N1  UNL     1      17.305   0.211  49.340  1.00  0.00    -0.324 N 
HETATM   28  C3  UNL     1      16.262   1.099  48.994  1.00  0.00     0.244 C 
HETATM   29  O1  UNL     1      15.961   2.010  49.801  1.00  0.00    -0.268 OA
HETATM   30  H4  UNL     1      17.464  -0.505  48.590  1.00  0.00     0.169 HD
BRANCH  28  31
HETATM   31  C2  UNL     1      15.508   1.023  47.752  1.00  0.00     0.064 C 
HETATM   32  C1  UNL     1      15.088  -0.052  47.120  1.00  0.00     0.017 C 
ENDBRANCH  28  31
ENDBRANCH   1  27
TORSDOF 4
ENDMDL
MODEL 3
REMARK VINA RESULT:      -9.3      8.509     11.375
REMARK  4 active torsions:
REMARK  status: ('A' for Active; 'I' for Inactive)
REMARK    1  A    between atoms: C2_2  and  C3_3 
REMARK       I    between atoms: C3_3  and  N1_5 
REMARK    2  A    between atoms: N1_5  and  C4_6 
REMARK    3  A    between atoms: C12_15  and  N3_16 
REMARK    4  A    between atoms: N3_16  and  C13_17 
ROOT
HETATM    1  C4  UNL     1      26.698   1.102  52.429  1.00  0.00     0.035 A 
HETATM    2  C5  UNL     1      25.719   1.529  53.292  1.00  0.00     0.032 A 
HETATM    3  C6  UNL     1      24.852   2.548  52.980  1.00  0.00     0.040 A 
HETATM    4  C7  UNL     1      24.923   3.201  51.770  1.00  0.00     0.086 A 
HETATM    5  C8  UNL     1      25.891   2.815  50.854  1.00  0.00    -0.004 A 
HETATM    6  C9  UNL     1      26.727   1.784  51.237  1.00  0.00     0.041 A 
HETATM    7  C10 UNL     1      26.198   3.318  49.513  1.00  0.00     0.161 C 
HETATM    8  N2  UNL     1      26.060   4.739  49.348  1.00  0.00    -0.379 N 
HETATM    9  C11 UNL     1      25.213   5.736  49.939  1.00  0.00     0.129 A 
HETATM   10  C12 UNL     1      25.402   7.001  49.421  1.00  0.00     0.160 A 
HETATM   11  N4  UNL     1      24.665   8.015  49.898  1.00  0.00    -0.222 NA
HETATM   12  C19 UNL     1      23.774   7.759  50.858  1.00  0.00     0.238 A 
HETATM   13  N5  UNL     1      23.572   6.522  51.382  1.00  0.00    -0.215 NA
HETATM   14  C20 UNL     1      24.279   5.467  50.944  1.00  0.00     0.202 A 
HETATM   15  O2  UNL     1      23.996   4.226  51.550  1.00  0.00    -0.289 OA
HETATM   16  H10 UNL     1      26.707   5.171  48.649  1.00  0.00     0.160 HD
ENDROOT
BRANCH  10  17
HETATM   17  N3  UNL     1      26.373   7.136  48.410  1.00  0.00    -0.339 N 
HETATM   18  H11 UNL     1      26.014   6.853  47.471  1.00  0.00     0.167 HD
BRANCH  17  19
HETATM   19  C13 UNL     1      27.715   7.605  48.599  1.00  0.00     0.035 A 
HETATM   20  C14 UNL     1      27.983   8.800  49.227  1.00  0.00     0.032 A 
HETATM   21  C15 UNL     1      29.249   9.261  49.409  1.00  0.00     0.046 A 
HETATM   22  C16 UNL     1      30.293   8.463  48.929  1.00  0.00     0.138 A 
HETATM   23  F1  UNL     1      31.567   8.921  49.110  1.00  0.00    -0.204 F 
HETATM   24  C17 UNL     1      30.043   7.256  48.294  1.00  0.00     0.074 A 
HETATM   25 CL1  UNL     1      31.401   6.288  47.706  1.00  0.00    -0.081 Cl
HETATM   26  C18 UNL     1      28.744   6.819  48.126  1.00  0.00     0.056 A 
ENDBRANCH  17  19
ENDBRANCH  10  17
BRANCH   1  27
HETATM   27  N1  UNL     1      27.552   0.046  52.823  1.00  0.00    -0.324 N 
HETATM   28  C3  UNL     1      28.808   0.091  53.468  1.00  0.00     0.244 C 
HETATM   29  O1  UNL     1      29.289   1.212  53.760  1.00  0.00    -0.268 OA
HETATM   30  H4  UNL     1      27.254  -0.941  52.631  1.00  0.00     0.169 HD
BRANCH  28  31
HETATM   31  C2  UNL     1      29.584  -1.088  53.819  1.00  0.00     0.064 C 
HETATM   32  C1  UNL     1      29.411  -2.327  53.411  1.00  0.00     0.017 C 
ENDBRANCH  28  31
ENDBRANCH   1  27
TORSDOF 4
ENDMDL
MODEL 4
REMARK VINA RESULT:      -9.2      8.022     10.677
REMARK  4 active torsions:
REMARK  status: ('A' for Active; 'I' for Inactive)
REMARK    1  A    between atoms: C2_2  and  C3_3 
REMARK       I    between atoms: C3_3  and  N1_5 
REMARK    2  A    between atoms: N1_5  and  C4_6 
REMARK    3  A    between atoms: C12_15  and  N3_16 
REMARK    4  A    between atoms: N3_16  and  C13_17 
ROOT
HETATM    1  C4  UNL     1      26.425   1.612  52.320  1.00  0.00     0.035 A 
HETATM    2  C5  UNL     1      25.328   1.699  53.142  1.00  0.00     0.032 A 
HETATM    3  C6  UNL     1      24.221   2.447  52.821  1.00  0.00     0.040 A 
HETATM    4  C7  UNL     1      24.157   3.158  51.643  1.00  0.00     0.086 A 
HETATM    5  C8  UNL     1      25.234   3.111  50.769  1.00  0.00    -0.004 A 
HETATM    6  C9  UNL     1      26.311   2.338  51.160  1.00  0.00     0.041 A 
HETATM    7  C10 UNL     1      25.443   3.751  49.469  1.00  0.00     0.161 C 
HETATM    8  N2  UNL     1      24.913   5.082  49.352  1.00  0.00    -0.379 N 
HETATM    9  C11 UNL     1      23.793   5.766  49.932  1.00  0.00     0.129 A 
HETATM   10  C12 UNL     1      23.636   7.059  49.476  1.00  0.00     0.160 A 
HETATM   11  N4  UNL     1      22.621   7.796  49.949  1.00  0.00    -0.222 NA
HETATM   12  C19 UNL     1      21.798   7.248  50.847  1.00  0.00     0.238 A 
HETATM   13  N5  UNL     1      21.934   5.978  51.308  1.00  0.00    -0.215 NA
HETATM   14  C20 UNL     1      22.931   5.191  50.871  1.00  0.00     0.202 A 
HETATM   15  O2  UNL     1      22.987   3.890  51.410  1.00  0.00    -0.289 OA
HETATM   16  H10 UNL     1      25.441   5.716  48.709  1.00  0.00     0.160 HD
ENDROOT
BRANCH  10  17
HETATM   17  N3  UNL     1      24.572   7.517  48.528  1.00  0.00    -0.339 N 
HETATM   18  H11 UNL     1      24.212   7.457  47.550  1.00  0.00     0.167 HD
BRANCH  17  19
HETATM   19  C13 UNL     1      25.883   8.018  48.825  1.00  0.00     0.035 A 
HETATM   20  C14 UNL     1      26.132   8.776  49.946  1.00  0.00     0.032 A 
HETATM   21  C15 UNL     1      27.368   9.262  50.238  1.00  0.00     0.046 A 
HETATM   22  C16 UNL     1      28.400   8.959  49.344  1.00  0.00     0.138 A 
HETATM   23  F1  UNL     1      29.643   9.445  49.632  1.00  0.00    -0.204 F 
HETATM   24  C17 UNL     1      28.168   8.197  48.208  1.00  0.00     0.074 A 
HETATM   25 CL1  UNL     1      29.509   7.845  47.112  1.00  0.00    -0.081 Cl
HETATM   26  C18 UNL     1      26.900   7.719  47.943  1.00  0.00     0.056 A 
ENDBRANCH  17  19
ENDBRANCH  10  17
BRANCH   1  27
HETATM   27  N1  UNL     1      27.526   0.821  52.720  1.00  0.00    -0.324 N 
HETATM   28  C3  UNL     1      28.625   1.151  53.545  1.00  0.00     0.244 C 
HETATM   29  O1  UNL     1      28.687   2.309  54.021  1.00  0.00    -0.268 OA
HETATM   30  H4  UNL     1      27.583  -0.170  52.382  1.00  0.00     0.169 HD
BRANCH  28  31
HETATM   31  C2  UNL     1      29.697   0.226  53.878  1.00  0.00     0.064 C 
HETATM   32  C1  UNL     1      29.772  -1.061  53.617  1.00  0.00     0.017 C 
ENDBRANCH  28  31
ENDBRANCH   1  27
TORSDOF 4
ENDMDL
MODEL 5
REMARK VINA RESULT:      -9.1      3.462      4.800
REMARK  4 active torsions:
REMARK  status: ('A' for Active; 'I' for Inactive)
REMARK    1  A    between atoms: C2_2  and  C3_3 
REMARK       I    between atoms: C3_3  and  N1_5 
REMARK    2  A    between atoms: N1_5  and  C4_6 
REMARK    3  A    between atoms: C12_15  and  N3_16 
REMARK    4  A    between atoms: N3_16  and  C13_17 
ROOT
HETATM    1  C4  UNL     1      25.678   3.722  50.445  1.00  0.00     0.035 A 
HETATM    2  C5  UNL     1      26.620   3.041  51.178  1.00  0.00     0.032 A 
HETATM    3  C6  UNL     1      26.337   1.869  51.836  1.00  0.00     0.040 A 
HETATM    4  C7  UNL     1      25.078   1.310  51.792  1.00  0.00     0.086 A 
HETATM    5  C8  UNL     1      24.084   1.951  51.068  1.00  0.00    -0.004 A 
HETATM    6  C9  UNL     1      24.442   3.125  50.433  1.00  0.00     0.041 A 
HETATM    7  C10 UNL     1      22.680   1.597  50.846  1.00  0.00     0.161 C 
HETATM    8  N2  UNL     1      22.013   1.011  51.975  1.00  0.00    -0.379 N 
HETATM    9  C11 UNL     1      22.439   0.187  53.071  1.00  0.00     0.129 A 
HETATM   10  C12 UNL     1      21.413  -0.191  53.912  1.00  0.00     0.160 A 
HETATM   11  N4  UNL     1      21.693  -0.964  54.972  1.00  0.00    -0.222 NA
HETATM   12  C19 UNL     1      22.959  -1.337  55.173  1.00  0.00     0.238 A 
HETATM   13  N5  UNL     1      23.984  -0.975  54.358  1.00  0.00    -0.215 NA
HETATM   14  C20 UNL     1      23.765  -0.204  53.280  1.00  0.00     0.202 A 
HETATM   15  O2  UNL     1      24.893   0.115  52.497  1.00  0.00    -0.289 OA
HETATM   16  H10 UNL     1      20.988   1.212  52.041  1.00  0.00     0.160 HD
ENDROOT
BRANCH  10  17
HETATM   17  N3  UNL     1      20.122   0.268  53.588  1.00  0.00    -0.339 N 
HETATM   18  H11 UNL     1      20.045   1.308  53.631  1.00  0.00     0.167 HD
BRANCH  17  19
HETATM   19  C13 UNL     1      19.007  -0.561  53.231  1.00  0.00     0.035 A 
HETATM   20  C14 UNL     1      18.752  -1.749  53.877  1.00  0.00     0.032 A 
HETATM   21  C15 UNL     1      17.703  -2.548  53.546  1.00  0.00     0.046 A 
HETATM   22  C16 UNL     1      16.872  -2.114  52.508  1.00  0.00     0.138 A 
HETATM   23  F1  UNL     1      15.817  -2.913  52.172  1.00  0.00    -0.204 F 
HETATM   24  C17 UNL     1      17.113  -0.920  51.845  1.00  0.00     0.074 A 
HETATM   25 CL1  UNL     1      16.032  -0.420  50.539  1.00  0.00    -0.081 Cl
HETATM   26  C18 UNL     1      18.188  -0.133  52.207  1.00  0.00     0.056 A 
ENDBRANCH  17  19
ENDBRANCH  10  17
BRANCH   1  27
HETATM   27  N1  UNL     1      26.046   4.923  49.797  1.00  0.00    -0.324 N 
HETATM   28  C3  UNL     1      27.119   5.185  48.915  1.00  0.00     0.244 C 
HETATM   29  O1  UNL     1      27.898   4.245  48.628  1.00  0.00    -0.268 OA
HETATM   30  H4  UNL     1      25.467   5.782  49.961  1.00  0.00     0.169 HD
BRANCH  28  31
HETATM   31  C2  UNL     1      27.380   6.483  48.315  1.00  0.00     0.064 C 
HETATM   32  C1  UNL     1      28.435   6.865  47.629  1.00  0.00     0.017 C 
ENDBRANCH  28  31
ENDBRANCH   1  27
TORSDOF 4
ENDMDL
MODEL 6
REMARK VINA RESULT:      -9.0      9.576     14.330
REMARK  4 active torsions:
REMARK  status: ('A' for Active; 'I' for Inactive)
REMARK    1  A    between atoms: C2_2  and  C3_3 
REMARK       I    between atoms: C3_3  and  N1_5 
REMARK    2  A    between atoms: N1_5  and  C4_6 
REMARK    3  A    between atoms: C12_15  and  N3_16 
REMARK    4  A    between atoms: N3_16  and  C13_17 
ROOT
HETATM    1  C4  UNL     1      24.389   5.829  49.281  1.00  0.00     0.035 A 
HETATM    2  C5  UNL     1      24.218   7.074  48.724  1.00  0.00     0.032 A 
HETATM    3  C6  UNL     1      25.234   7.747  48.091  1.00  0.00     0.040 A 
HETATM    4  C7  UNL     1      26.494   7.199  47.981  1.00  0.00     0.086 A 
HETATM    5  C8  UNL     1      26.730   5.944  48.523  1.00  0.00    -0.004 A 
HETATM    6  C9  UNL     1      25.661   5.329  49.144  1.00  0.00     0.041 A 
HETATM    7  C10 UNL     1      27.946   5.128  48.556  1.00  0.00     0.161 C 
HETATM    8  N2  UNL     1      29.168   5.861  48.740  1.00  0.00    -0.379 N 
HETATM    9  C11 UNL     1      29.609   7.176  48.373  1.00  0.00     0.129 A 
HETATM   10  C12 UNL     1      30.918   7.439  48.722  1.00  0.00     0.160 A 
HETATM   11  N4  UNL     1      31.440   8.639  48.428  1.00  0.00    -0.222 NA
HETATM   12  C19 UNL     1      30.669   9.536  47.809  1.00  0.00     0.238 A 
HETATM   13  N5  UNL     1      29.379   9.298  47.458  1.00  0.00    -0.215 NA
HETATM   14  C20 UNL     1      28.801   8.115  47.724  1.00  0.00     0.202 A 
HETATM   15  O2  UNL     1      27.459   7.966  47.319  1.00  0.00    -0.289 OA
HETATM   16  H10 UNL     1      29.922   5.347  49.252  1.00  0.00     0.160 HD
ENDROOT
BRANCH  10  17
HETATM   17  N3  UNL     1      31.624   6.407  49.370  1.00  0.00    -0.339 N 
HETATM   18  H11 UNL     1      31.338   6.293  50.367  1.00  0.00     0.167 HD
BRANCH  17  19
HETATM   19  C13 UNL     1      32.630   5.580  48.769  1.00  0.00     0.035 A 
HETATM   20  C14 UNL     1      33.959   5.939  48.770  1.00  0.00     0.032 A 
HETATM   21  C15 UNL     1      34.923   5.169  48.200  1.00  0.00     0.046 A 
HETATM   22  C16 UNL     1      34.513   3.974  47.600  1.00  0.00     0.138 A 
HETATM   23  F1  UNL     1      35.477   3.196  47.025  1.00  0.00    -0.204 F 
HETATM   24  C17 UNL     1      33.178   3.595  47.588  1.00  0.00     0.074 A 
HETATM   25 CL1  UNL     1      32.716   2.074  46.815  1.00  0.00    -0.081 Cl
HETATM   26  C18 UNL     1      32.226   4.402  48.177  1.00  0.00     0.056 A 
ENDBRANCH  17  19
ENDBRANCH  10  17
BRANCH   1  27
HETATM   27  N1  UNL     1      23.294   5.202  49.916  1.00  0.00    -0.324 N 
HETATM   28  C3  UNL     1      22.966   5.125  51.288  1.00  0.00     0.244 C 
HETATM   29  O1  UNL     1      23.727   5.680  52.116  1.00  0.00    -0.268 OA
HETATM   30  H4  UNL     1      22.587   4.702  49.324  1.00  0.00     0.169 HD
BRANCH  28  31
HETATM   31  C2  UNL     1      21.793   4.439  51.806  1.00  0.00     0.064 C 
HETATM   32  C1  UNL     1      20.574   4.423  51.310  1.00  0.00     0.017 C 
ENDBRANCH  28  31
ENDBRANCH   1  27
TORSDOF 4
ENDMDL
MODEL 7
REMARK VINA RESULT:      -9.0      5.380      7.733
REMARK  4 active torsions:
REMARK  status: ('A' for Active; 'I' for Inactive)
REMARK    1  A    between atoms: C2_2  and  C3_3 
REMARK       I    between atoms: C3_3  and  N1_5 
REMARK    2  A    between atoms: N1_5  and  C4_6 
REMARK    3  A    between atoms: C12_15  and  N3_16 
REMARK    4  A    between atoms: N3_16  and  C13_17 
ROOT
HETATM    1  C4  UNL     1      25.971   6.691  48.545  1.00  0.00     0.035 A 
HETATM    2  C5  UNL     1      27.218   6.113  48.551  1.00  0.00     0.032 A 
HETATM    3  C6  UNL     1      27.433   4.825  48.977  1.00  0.00     0.040 A 
HETATM    4  C7  UNL     1      26.396   4.038  49.426  1.00  0.00     0.086 A 
HETATM    5  C8  UNL     1      25.112   4.564  49.443  1.00  0.00    -0.004 A 
HETATM    6  C9  UNL     1      24.973   5.865  49.001  1.00  0.00     0.041 A 
HETATM    7  C10 UNL     1      23.838   3.972  49.859  1.00  0.00     0.161 C 
HETATM    8  N2  UNL     1      23.913   3.106  51.002  1.00  0.00    -0.379 N 
HETATM    9  C11 UNL     1      24.923   2.234  51.532  1.00  0.00     0.129 A 
HETATM   10  C12 UNL     1      24.522   1.539  52.655  1.00  0.00     0.160 A 
HETATM   11  N4  UNL     1      25.384   0.693  53.238  1.00  0.00    -0.222 NA
HETATM   12  C19 UNL     1      26.601   0.557  52.706  1.00  0.00     0.238 A 
HETATM   13  N5  UNL     1      27.016   1.231  51.603  1.00  0.00    -0.215 NA
HETATM   14  C20 UNL     1      26.197   2.091  50.975  1.00  0.00     0.202 A 
HETATM   15  O2  UNL     1      26.720   2.741  49.839  1.00  0.00    -0.289 OA
HETATM   16  H10 UNL     1      23.055   3.085  51.602  1.00  0.00     0.160 HD
ENDROOT
BRANCH  10  17
HETATM   17  N3  UNL     1      23.211   1.773  53.114  1.00  0.00    -0.339 N 
HETATM   18  H11 UNL     1      23.021   2.785  53.284  1.00  0.00     0.167 HD
BRANCH  17  19
HETATM   19  C13 UNL     1      22.214   0.766  53.336  1.00  0.00     0.035 A 
HETATM   20  C14 UNL     1      22.370  -0.209  54.295  1.00  0.00     0.032 A 
HETATM   21  C15 UNL     1      21.437  -1.174  54.514  1.00  0.00     0.046 A 
HETATM   22  C16 UNL     1      20.288  -1.142  53.716  1.00  0.00     0.138 A 
HETATM   23  F1  UNL     1      19.348  -2.108  53.932  1.00  0.00    -0.204 F 
HETATM   24  C17 UNL     1      20.113  -0.168  52.745  1.00  0.00     0.074 A 
HETATM   25 CL1  UNL     1      18.642  -0.176  51.765  1.00  0.00    -0.081 Cl
HETATM   26  C18 UNL     1      21.081   0.797  52.550  1.00  0.00     0.056 A 
ENDBRANCH  17  19
ENDBRANCH  10  17
BRANCH   1  27
HETATM   27  N1  UNL     1      25.831   8.023  48.092  1.00  0.00    -0.324 N 
HETATM   28  C3  UNL     1      25.921   9.237  48.809  1.00  0.00     0.244 C 
HETATM   29  O1  UNL     1      26.159   9.187  50.039  1.00  0.00    -0.268 OA
HETATM   30  H4  UNL     1      25.629   8.190  47.077  1.00  0.00     0.169 HD
BRANCH  28  31
HETATM   31  C2  UNL     1      25.753  10.550  48.207  1.00  0.00     0.064 C 
HETATM   32  C1  UNL     1      25.390  10.840  46.976  1.00  0.00     0.017 C 
ENDBRANCH  28  31
ENDBRANCH   1  27
TORSDOF 4
ENDMDL
MODEL 8
REMARK VINA RESULT:      -8.8      5.607      7.263
REMARK  4 active torsions:
REMARK  status: ('A' for Active; 'I' for Inactive)
REMARK    1  A    between atoms: C2_2  and  C3_3 
REMARK       I    between atoms: C3_3  and  N1_5 
REMARK    2  A    between atoms: N1_5  and  C4_6 
REMARK    3  A    between atoms: C12_15  and  N3_16 
REMARK    4  A    between atoms: N3_16  and  C13_17 
ROOT
HETATM    1  C4  UNL     1      28.189   5.694  48.218  1.00  0.00     0.035 A 
HETATM    2  C5  UNL     1      27.482   6.873  48.210  1.00  0.00     0.032 A 
HETATM    3  C6  UNL     1      26.294   7.026  48.881  1.00  0.00     0.040 A 
HETATM    4  C7  UNL     1      25.744   5.991  49.605  1.00  0.00     0.086 A 
HETATM    5  C8  UNL     1      26.410   4.775  49.653  1.00  0.00    -0.004 A 
HETATM    6  C9  UNL     1      27.599   4.696  48.953  1.00  0.00     0.041 A 
HETATM    7  C10 UNL     1      26.072   3.522  50.331  1.00  0.00     0.161 C 
HETATM    8  N2  UNL     1      24.673   3.192  50.341  1.00  0.00    -0.379 N 
HETATM    9  C11 UNL     1      23.465   3.966  50.356  1.00  0.00     0.129 A 
HETATM   10  C12 UNL     1      22.317   3.201  50.417  1.00  0.00     0.160 A 
HETATM   11  N4  UNL     1      21.126   3.817  50.436  1.00  0.00    -0.222 NA
HETATM   12  C19 UNL     1      21.097   5.151  50.395  1.00  0.00     0.238 A 
HETATM   13  N5  UNL     1      22.213   5.922  50.335  1.00  0.00    -0.215 NA
HETATM   14  C20 UNL     1      23.434   5.363  50.314  1.00  0.00     0.202 A 
HETATM   15  O2  UNL     1      24.529   6.249  50.251  1.00  0.00    -0.289 OA
HETATM   16  H10 UNL     1      24.457   2.169  50.336  1.00  0.00     0.160 HD
ENDROOT
BRANCH  10  17
HETATM   17  N3  UNL     1      22.486   1.803  50.457  1.00  0.00    -0.339 N 
HETATM   18  H11 UNL     1      22.747   1.405  49.528  1.00  0.00     0.167 HD
BRANCH  17  19
HETATM   19  C13 UNL     1      22.329   0.978  51.620  1.00  0.00     0.035 A 
HETATM   20  C14 UNL     1      23.398   0.641  52.419  1.00  0.00     0.032 A 
HETATM   21  C15 UNL     1      23.266  -0.145  53.521  1.00  0.00     0.046 A 
HETATM   22  C16 UNL     1      21.981  -0.609  53.823  1.00  0.00     0.138 A 
HETATM   23  F1  UNL     1      21.843  -1.399  54.928  1.00  0.00    -0.204 F 
HETATM   24  C17 UNL     1      20.892  -0.280  53.029  1.00  0.00     0.074 A 
HETATM   25 CL1  UNL     1      19.291  -0.895  53.457  1.00  0.00    -0.081 Cl
HETATM   26  C18 UNL     1      21.062   0.520  51.918  1.00  0.00     0.056 A 
ENDBRANCH  17  19
ENDBRANCH  10  17
BRANCH   1  27
HETATM   27  N1  UNL     1      29.405   5.615  47.502  1.00  0.00    -0.324 N 
HETATM   28  C3  UNL     1      30.731   5.512  47.978  1.00  0.00     0.244 C 
HETATM   29  O1  UNL     1      30.920   5.482  49.217  1.00  0.00    -0.268 OA
HETATM   30  H4  UNL     1      29.374   5.631  46.453  1.00  0.00     0.169 HD
BRANCH  28  31
HETATM   31  C2  UNL     1      31.901   5.437  47.116  1.00  0.00     0.064 C 
HETATM   32  C1  UNL     1      32.545   4.363  46.711  1.00  0.00     0.017 C 
ENDBRANCH  28  31
ENDBRANCH   1  27
TORSDOF 4
ENDMDL
MODEL 9
REMARK VINA RESULT:      -8.7      9.628     13.933
REMARK  4 active torsions:
REMARK  status: ('A' for Active; 'I' for Inactive)
REMARK    1  A    between atoms: C2_2  and  C3_3 
REMARK       I    between atoms: C3_3  and  N1_5 
REMARK    2  A    between atoms: N1_5  and  C4_6 
REMARK    3  A    between atoms: C12_15  and  N3_16 
REMARK    4  A    between atoms: N3_16  and  C13_17 
ROOT
HETATM    1  C4  UNL     1      24.626   3.985  49.979  1.00  0.00     0.035 A 
HETATM    2  C5  UNL     1      23.901   5.118  49.696  1.00  0.00     0.032 A 
HETATM    3  C6  UNL     1      24.447   6.203  49.054  1.00  0.00     0.040 A 
HETATM    4  C7  UNL     1      25.766   6.209  48.657  1.00  0.00     0.086 A 
HETATM    5  C8  UNL     1      26.550   5.094  48.913  1.00  0.00    -0.004 A 
HETATM    6  C9  UNL     1      25.933   4.042  49.562  1.00  0.00     0.041 A 
HETATM    7  C10 UNL     1      27.957   4.821  48.611  1.00  0.00     0.161 C 
HETATM    8  N2  UNL     1      28.839   5.947  48.743  1.00  0.00    -0.379 N 
HETATM    9  C11 UNL     1      28.685   7.363  48.566  1.00  0.00     0.129 A 
HETATM   10  C12 UNL     1      29.851   8.076  48.757  1.00  0.00     0.160 A 
HETATM   11  N4  UNL     1      29.827   9.410  48.617  1.00  0.00    -0.222 NA
HETATM   12  C19 UNL     1      28.672   9.997  48.299  1.00  0.00     0.238 A 
HETATM   13  N5  UNL     1      27.514   9.315  48.107  1.00  0.00    -0.215 NA
HETATM   14  C20 UNL     1      27.474   7.978  48.231  1.00  0.00     0.202 A 
HETATM   15  O2  UNL     1      26.225   7.363  48.012  1.00  0.00    -0.289 OA
HETATM   16  H10 UNL     1      29.818   5.715  49.031  1.00  0.00     0.160 HD
ENDROOT
BRANCH  10  17
HETATM   17  N3  UNL     1      31.002   7.336  49.088  1.00  0.00    -0.339 N 
HETATM   18  H11 UNL     1      31.125   7.227  50.119  1.00  0.00     0.167 HD
BRANCH  17  19
HETATM   19  C13 UNL     1      31.931   6.774  48.150  1.00  0.00     0.035 A 
HETATM   20  C14 UNL     1      31.931   7.141  46.823  1.00  0.00     0.032 A 
HETATM   21  C15 UNL     1      32.801   6.614  45.921  1.00  0.00     0.046 A 
HETATM   22  C16 UNL     1      33.716   5.668  46.395  1.00  0.00     0.138 A 
HETATM   23  F1  UNL     1      34.592   5.136  45.493  1.00  0.00    -0.204 F 
HETATM   24  C17 UNL     1      33.732   5.286  47.728  1.00  0.00     0.074 A 
HETATM   25 CL1  UNL     1      34.909   4.086  48.272  1.00  0.00    -0.081 Cl
HETATM   26  C18 UNL     1      32.833   5.842  48.617  1.00  0.00     0.056 A 
ENDBRANCH  17  19
ENDBRANCH  10  17
BRANCH   1  27
HETATM   27  N1  UNL     1      23.993   2.910  50.643  1.00  0.00    -0.324 N 
HETATM   28  C3  UNL     1      23.704   2.738  52.015  1.00  0.00     0.244 C 
HETATM   29  O1  UNL     1      24.039   3.645  52.814  1.00  0.00    -0.268 OA
HETATM   30  H4  UNL     1      23.667   2.090  50.076  1.00  0.00     0.169 HD
BRANCH  28  31
HETATM   31  C2  UNL     1      23.039   1.567  52.565  1.00  0.00     0.064 C 
HETATM   32  C1  UNL     1      23.574   0.417  52.915  1.00  0.00     0.017 C 
ENDBRANCH  28  31
ENDBRANCH   1  27
TORSDOF 4
ENDMDL
