MODEL 1
REMARK VINA RESULT:      -8.7      0.000      0.000
REMARK  4 active torsions:
REMARK  status: ('A' for Active; 'I' for Inactive)
REMARK    1  A    between atoms: C2_2  and  N1_4 
REMARK    2  A    between atoms: C4_6  and  C5_7 
REMARK    3  A    between atoms: C8_10  and  O1_11 
REMARK    4  A    between atoms: C13_17  and  N4_18 
ROOT
HETATM    1  N1  UNL     1      22.515   1.266  52.811  1.00  0.00    -0.247 N 
HETATM    2  N2  UNL     1      23.497   0.525  53.207  1.00  0.00    -0.167 NA
HETATM    3  C4  UNL     1      24.707   1.005  52.773  1.00  0.00     0.121 A 
HETATM    4  C12 UNL     1      24.313   2.109  52.083  1.00  0.00     0.084 A 
HETATM    5  C13 UNL     1      25.142   2.995  51.453  1.00  0.00     0.118 A 
HETATM    6  N5  UNL     1      24.651   4.067  50.816  1.00  0.00    -0.229 NA
HETATM    7  C14 UNL     1      23.299   4.256  50.813  1.00  0.00     0.237 A 
HETATM    8  N6  UNL     1      22.463   3.378  51.444  1.00  0.00    -0.222 NA
HETATM    9  C15 UNL     1      22.951   2.304  52.084  1.00  0.00     0.163 A 
ENDROOT
BRANCH   3  10
HETATM   10  C5  UNL     1      25.906   0.287  53.174  1.00  0.00     0.061 C 
HETATM   11  C6  UNL     1      26.397  -0.852  52.663  1.00  0.00     0.022 C 
HETATM   12  C7  UNL     1      27.551  -1.051  53.499  1.00  0.00     0.117 A 
HETATM   13  C8  UNL     1      28.617  -1.962  53.221  1.00  0.00     0.057 A 
HETATM   14  C11 UNL     1      28.117   0.241  53.778  1.00  0.00     0.024 A 
HETATM   15  C9  UNL     1      29.766  -1.275  53.348  1.00  0.00     0.035 A 
HETATM   16  C10 UNL     1      29.458   0.127  53.705  1.00  0.00     0.028 A 
HETATM   17  N3  UNL     1      26.911   1.048  53.918  1.00  0.00    -0.357 N 
HETATM   18  H13 UNL     1      27.151   1.890  54.471  1.00  0.00     0.166 HD
BRANCH  13  19
HETATM   19  O1  UNL     1      28.554  -3.309  52.877  1.00  0.00    -0.364 OA
HETATM   20  H10 UNL     1      27.668  -3.831  52.902  1.00  0.00     0.217 HD
ENDBRANCH  13  19
ENDBRANCH   3  10
BRANCH   1  21
HETATM   21  C2  UNL     1      21.114   1.034  53.097  1.00  0.00     0.104 C 
HETATM   22  C1  UNL     1      20.429   0.298  51.951  1.00  0.00     0.034 C 
HETATM   23  C3  UNL     1      20.911   0.229  54.339  1.00  0.00     0.034 C 
ENDBRANCH   1  21
BRANCH   5  24
HETATM   24  N4  UNL     1      26.547   2.901  51.462  1.00  0.00    -0.286 NA
HETATM   25  H14 UNL     1      26.745   2.799  50.426  1.00  0.00     0.125 HD
HETATM   26  H15 UNL     1      27.391   2.795  50.878  1.00  0.00     0.125 HD
ENDBRANCH   5  24
TORSDOF 4
ENDMDL
MODEL 2
REMARK VINA RESULT:      -8.5      1.632      3.421
REMARK  4 active torsions:
REMARK  status: ('A' for Active; 'I' for Inactive)
REMARK    1  A    between atoms: C2_2  and  N1_4 
REMARK    2  A    between atoms: C4_6  and  C5_7 
REMARK    3  A    between atoms: C8_10  and  O1_11 
REMARK    4  A    between atoms: C13_17  and  N4_18 
ROOT
HETATM    1  N1  UNL     1      22.822   1.031  51.856  1.00  0.00    -0.247 N 
HETATM    2  N2  UNL     1      24.091   0.899  52.069  1.00  0.00    -0.167 NA
HETATM    3  C4  UNL     1      24.344   0.143  53.186  1.00  0.00     0.121 A 
HETATM    4  C12 UNL     1      23.079  -0.149  53.591  1.00  0.00     0.084 A 
HETATM    5  C13 UNL     1      22.745  -0.920  54.669  1.00  0.00     0.118 A 
HETATM    6  N5  UNL     1      21.462  -1.163  54.972  1.00  0.00    -0.229 NA
HETATM    7  C14 UNL     1      20.494  -0.624  54.175  1.00  0.00     0.237 A 
HETATM    8  N6  UNL     1      20.819   0.145  53.094  1.00  0.00    -0.222 NA
HETATM    9  C15 UNL     1      22.102   0.390  52.786  1.00  0.00     0.163 A 
ENDROOT
BRANCH   3  10
HETATM   10  C5  UNL     1      25.733  -0.118  53.528  1.00  0.00     0.061 C 
HETATM   11  C6  UNL     1      26.515  -1.120  53.101  1.00  0.00     0.022 C 
HETATM   12  C7  UNL     1      27.732  -0.841  53.817  1.00  0.00     0.117 A 
HETATM   13  C8  UNL     1      29.005  -1.423  53.526  1.00  0.00     0.057 A 
HETATM   14  C11 UNL     1      27.886   0.587  53.875  1.00  0.00     0.024 A 
HETATM   15  C9  UNL     1      29.889  -0.413  53.439  1.00  0.00     0.035 A 
HETATM   16  C10 UNL     1      29.187   0.869  53.663  1.00  0.00     0.028 A 
HETATM   17  N3  UNL     1      26.503   1.009  54.058  1.00  0.00    -0.357 N 
HETATM   18  H13 UNL     1      26.508   1.956  54.477  1.00  0.00     0.166 HD
BRANCH  13  19
HETATM   19  O1  UNL     1      29.339  -2.762  53.353  1.00  0.00    -0.364 OA
HETATM   20  H10 UNL     1      29.078  -3.478  54.043  1.00  0.00     0.217 HD
ENDBRANCH  13  19
ENDBRANCH   3  10
BRANCH   1  21
HETATM   21  C2  UNL     1      22.224   1.770  50.762  1.00  0.00     0.104 C 
HETATM   22  C1  UNL     1      23.263   2.607  50.024  1.00  0.00     0.034 C 
HETATM   23  C3  UNL     1      21.567   0.876  49.762  1.00  0.00     0.034 C 
ENDBRANCH   1  21
BRANCH   5  24
HETATM   24  N4  UNL     1      23.683  -1.559  55.502  1.00  0.00    -0.286 NA
HETATM   25  H14 UNL     1      24.259  -2.084  54.785  1.00  0.00     0.125 HD
HETATM   26  H15 UNL     1      24.499  -2.190  55.528  1.00  0.00     0.125 HD
ENDBRANCH   5  24
TORSDOF 4
ENDMDL
MODEL 3
REMARK VINA RESULT:      -8.4      2.190      3.755
REMARK  4 active torsions:
REMARK  status: ('A' for Active; 'I' for Inactive)
REMARK    1  A    between atoms: C2_2  and  N1_4 
REMARK    2  A    between atoms: C4_6  and  C5_7 
REMARK    3  A    between atoms: C8_10  and  O1_11 
REMARK    4  A    between atoms: C13_17  and  N4_18 
ROOT
HETATM    1  N1  UNL     1      22.487   0.984  51.983  1.00  0.00    -0.247 N 
HETATM    2  N2  UNL     1      23.768   1.151  51.933  1.00  0.00    -0.167 NA
HETATM    3  C4  UNL     1      24.411   0.462  52.931  1.00  0.00     0.121 A 
HETATM    4  C12 UNL     1      23.358  -0.123  53.560  1.00  0.00     0.084 A 
HETATM    5  C13 UNL     1      23.437  -0.964  54.635  1.00  0.00     0.118 A 
HETATM    6  N5  UNL     1      22.333  -1.506  55.170  1.00  0.00    -0.229 NA
HETATM    7  C14 UNL     1      21.126  -1.199  54.614  1.00  0.00     0.237 A 
HETATM    8  N6  UNL     1      21.037  -0.362  53.537  1.00  0.00    -0.222 NA
HETATM    9  C15 UNL     1      22.139   0.181  52.997  1.00  0.00     0.163 A 
ENDROOT
BRANCH   3  10
HETATM   10  C5  UNL     1      25.863   0.531  52.976  1.00  0.00     0.061 C 
HETATM   11  C6  UNL     1      26.630   1.281  53.781  1.00  0.00     0.022 C 
HETATM   12  C7  UNL     1      27.944   0.929  53.312  1.00  0.00     0.117 A 
HETATM   13  C8  UNL     1      29.164   1.212  54.004  1.00  0.00     0.057 A 
HETATM   14  C11 UNL     1      27.927  -0.467  52.971  1.00  0.00     0.024 A 
HETATM   15  C9  UNL     1      29.860   0.063  54.058  1.00  0.00     0.035 A 
HETATM   16  C10 UNL     1      29.083  -1.010  53.401  1.00  0.00     0.028 A 
HETATM   17  N3  UNL     1      26.594  -0.595  52.394  1.00  0.00    -0.357 N 
HETATM   18  H13 UNL     1      26.587  -1.433  51.785  1.00  0.00     0.166 HD
BRANCH  13  19
HETATM   19  O1  UNL     1      29.608   2.414  54.544  1.00  0.00    -0.364 OA
HETATM   20  H10 UNL     1      28.984   3.225  54.644  1.00  0.00     0.217 HD
ENDBRANCH  13  19
ENDBRANCH   3  10
BRANCH   1  21
HETATM   21  C2  UNL     1      21.524   1.575  51.076  1.00  0.00     0.104 C 
HETATM   22  C1  UNL     1      22.055   2.868  50.469  1.00  0.00     0.034 C 
HETATM   23  C3  UNL     1      21.164   0.660  49.951  1.00  0.00     0.034 C 
ENDBRANCH   1  21
BRANCH   5  24
HETATM   24  N4  UNL     1      24.647  -1.374  55.226  1.00  0.00    -0.286 NA
HETATM   25  H14 UNL     1      25.193  -0.467  55.211  1.00  0.00     0.125 HD
HETATM   26  H15 UNL     1      25.587  -1.073  55.526  1.00  0.00     0.125 HD
ENDBRANCH   5  24
TORSDOF 4
ENDMDL
MODEL 4
REMARK VINA RESULT:      -8.3      1.445      3.636
REMARK  4 active torsions:
REMARK  status: ('A' for Active; 'I' for Inactive)
REMARK    1  A    between atoms: C2_2  and  N1_4 
REMARK    2  A    between atoms: C4_6  and  C5_7 
REMARK    3  A    between atoms: C8_10  and  O1_11 
REMARK    4  A    between atoms: C13_17  and  N4_18 
ROOT
HETATM    1  N1  UNL     1      25.479   3.502  50.267  1.00  0.00    -0.247 N 
HETATM    2  N2  UNL     1      26.348   2.749  50.859  1.00  0.00    -0.167 NA
HETATM    3  C4  UNL     1      25.748   1.809  51.659  1.00  0.00     0.121 A 
HETATM    4  C12 UNL     1      24.435   2.102  51.460  1.00  0.00     0.084 A 
HETATM    5  C13 UNL     1      23.377   1.436  52.011  1.00  0.00     0.118 A 
HETATM    6  N5  UNL     1      22.115   1.794  51.733  1.00  0.00    -0.229 NA
HETATM    7  C14 UNL     1      21.912   2.841  50.882  1.00  0.00     0.237 A 
HETATM    8  N6  UNL     1      22.964   3.511  50.323  1.00  0.00    -0.222 NA
HETATM    9  C15 UNL     1      24.228   3.154  50.597  1.00  0.00     0.163 A 
ENDROOT
BRANCH   3  10
HETATM   10  C5  UNL     1      26.606   0.869  52.361  1.00  0.00     0.061 C 
HETATM   11  C6  UNL     1      26.892  -0.398  52.027  1.00  0.00     0.022 C 
HETATM   12  C7  UNL     1      27.744  -0.785  53.121  1.00  0.00     0.117 A 
HETATM   13  C8  UNL     1      28.577  -1.946  53.139  1.00  0.00     0.057 A 
HETATM   14  C11 UNL     1      28.544   0.357  53.475  1.00  0.00     0.024 A 
HETATM   15  C9  UNL     1      29.806  -1.542  53.509  1.00  0.00     0.035 A 
HETATM   16  C10 UNL     1      29.794  -0.080  53.727  1.00  0.00     0.028 A 
HETATM   17  N3  UNL     1      27.582   1.437  53.293  1.00  0.00    -0.357 N 
HETATM   18  H13 UNL     1      27.900   2.248  53.853  1.00  0.00     0.166 HD
BRANCH  13  19
HETATM   19  O1  UNL     1      28.251  -3.265  52.844  1.00  0.00    -0.364 OA
HETATM   20  H10 UNL     1      28.231  -3.613  51.876  1.00  0.00     0.217 HD
ENDBRANCH  13  19
ENDBRANCH   3  10
BRANCH   1  21
HETATM   21  C2  UNL     1      25.784   4.589  49.359  1.00  0.00     0.104 C 
HETATM   22  C1  UNL     1      25.537   5.943  50.013  1.00  0.00     0.034 C 
HETATM   23  C3  UNL     1      27.203   4.561  48.893  1.00  0.00     0.034 C 
ENDBRANCH   1  21
BRANCH   5  24
HETATM   24  N4  UNL     1      23.504   0.311  52.849  1.00  0.00    -0.286 NA
HETATM   25  H14 UNL     1      22.485   0.056  52.993  1.00  0.00     0.125 HD
HETATM   26  H15 UNL     1      22.991  -0.420  53.367  1.00  0.00     0.125 HD
ENDBRANCH   5  24
TORSDOF 4
ENDMDL
MODEL 5
REMARK VINA RESULT:      -8.0      3.469      5.644
REMARK  4 active torsions:
REMARK  status: ('A' for Active; 'I' for Inactive)
REMARK    1  A    between atoms: C2_2  and  N1_4 
REMARK    2  A    between atoms: C4_6  and  C5_7 
REMARK    3  A    between atoms: C8_10  and  O1_11 
REMARK    4  A    between atoms: C13_17  and  N4_18 
ROOT
HETATM    1  N1  UNL     1      23.679   0.926  52.256  1.00  0.00    -0.247 N 
HETATM    2  N2  UNL     1      23.879   1.800  51.324  1.00  0.00    -0.167 NA
HETATM    3  C4  UNL     1      25.128   2.362  51.412  1.00  0.00     0.121 A 
HETATM    4  C12 UNL     1      25.627   1.712  52.497  1.00  0.00     0.084 A 
HETATM    5  C13 UNL     1      26.880   1.876  53.019  1.00  0.00     0.118 A 
HETATM    6  N5  UNL     1      27.282   1.169  54.084  1.00  0.00    -0.229 NA
HETATM    7  C14 UNL     1      26.409   0.276  54.636  1.00  0.00     0.237 A 
HETATM    8  N6  UNL     1      25.156   0.103  54.119  1.00  0.00    -0.222 NA
HETATM    9  C15 UNL     1      24.750   0.809  53.052  1.00  0.00     0.163 A 
ENDROOT
BRANCH   3  10
HETATM   10  C5  UNL     1      25.504   3.340  50.404  1.00  0.00     0.061 C 
HETATM   11  C6  UNL     1      25.182   4.642  50.355  1.00  0.00     0.022 C 
HETATM   12  C7  UNL     1      25.814   5.033  49.122  1.00  0.00     0.117 A 
HETATM   13  C8  UNL     1      26.043   6.383  48.712  1.00  0.00     0.057 A 
HETATM   14  C11 UNL     1      27.051   4.309  49.017  1.00  0.00     0.024 A 
HETATM   15  C9  UNL     1      27.335   6.471  48.353  1.00  0.00     0.035 A 
HETATM   16  C10 UNL     1      27.985   5.156  48.541  1.00  0.00     0.028 A 
HETATM   17  N3  UNL     1      26.666   3.018  49.574  1.00  0.00    -0.357 N 
HETATM   18  H13 UNL     1      27.333   2.306  49.227  1.00  0.00     0.166 HD
BRANCH  13  19
HETATM   19  O1  UNL     1      25.152   7.451  48.669  1.00  0.00    -0.364 OA
HETATM   20  H10 UNL     1      25.427   8.369  48.296  1.00  0.00     0.217 HD
ENDBRANCH  13  19
ENDBRANCH   3  10
BRANCH   1  21
HETATM   21  C2  UNL     1      22.465   0.156  52.444  1.00  0.00     0.104 C 
HETATM   22  C1  UNL     1      21.698   0.624  53.675  1.00  0.00     0.034 C 
HETATM   23  C3  UNL     1      21.544   0.249  51.272  1.00  0.00     0.034 C 
ENDBRANCH   1  21
BRANCH   5  24
HETATM   24  N4  UNL     1      27.856   2.730  52.471  1.00  0.00    -0.286 NA
HETATM   25  H14 UNL     1      28.168   3.255  53.337  1.00  0.00     0.125 HD
HETATM   26  H15 UNL     1      28.541   3.473  52.678  1.00  0.00     0.125 HD
ENDBRANCH   5  24
TORSDOF 4
ENDMDL
MODEL 6
REMARK VINA RESULT:      -7.5      3.090      6.520
REMARK  4 active torsions:
REMARK  status: ('A' for Active; 'I' for Inactive)
REMARK    1  A    between atoms: C2_2  and  N1_4 
REMARK    2  A    between atoms: C4_6  and  C5_7 
REMARK    3  A    between atoms: C8_10  and  O1_11 
REMARK    4  A    between atoms: C13_17  and  N4_18 
ROOT
HETATM    1  N1  UNL     1      24.430   0.115  53.592  1.00  0.00    -0.247 N 
HETATM    2  N2  UNL     1      24.470   1.255  52.982  1.00  0.00    -0.167 NA
HETATM    3  C4  UNL     1      23.211   1.737  52.721  1.00  0.00     0.121 A 
HETATM    4  C12 UNL     1      22.442   0.748  53.251  1.00  0.00     0.084 A 
HETATM    5  C13 UNL     1      21.076   0.734  53.288  1.00  0.00     0.118 A 
HETATM    6  N5  UNL     1      20.411  -0.284  53.854  1.00  0.00    -0.229 NA
HETATM    7  C14 UNL     1      21.134  -1.307  54.396  1.00  0.00     0.237 A 
HETATM    8  N6  UNL     1      22.500  -1.300  54.367  1.00  0.00    -0.222 NA
HETATM    9  C15 UNL     1      23.169  -0.282  53.803  1.00  0.00     0.163 A 
ENDROOT
BRANCH   3  10
HETATM   10  C5  UNL     1      23.103   3.031  52.068  1.00  0.00     0.061 C 
HETATM   11  C6  UNL     1      23.798   4.148  52.327  1.00  0.00     0.022 C 
HETATM   12  C7  UNL     1      23.207   5.063  51.386  1.00  0.00     0.117 A 
HETATM   13  C8  UNL     1      23.758   6.330  51.018  1.00  0.00     0.057 A 
HETATM   14  C11 UNL     1      22.917   4.326  50.185  1.00  0.00     0.024 A 
HETATM   15  C9  UNL     1      23.778   6.375  49.674  1.00  0.00     0.035 A 
HETATM   16  C10 UNL     1      23.242   5.107  49.136  1.00  0.00     0.028 A 
HETATM   17  N3  UNL     1      22.486   3.049  50.741  1.00  0.00    -0.357 N 
HETATM   18  H13 UNL     1      21.910   2.567  50.027  1.00  0.00     0.166 HD
BRANCH  13  19
HETATM   19  O1  UNL     1      24.208   7.362  51.835  1.00  0.00    -0.364 OA
HETATM   20  H10 UNL     1      23.776   8.295  51.814  1.00  0.00     0.217 HD
ENDBRANCH  13  19
ENDBRANCH   3  10
BRANCH   1  21
HETATM   21  C2  UNL     1      25.583  -0.659  54.007  1.00  0.00     0.104 C 
HETATM   22  C1  UNL     1      26.401  -1.121  52.807  1.00  0.00     0.034 C 
HETATM   23  C3  UNL     1      26.493   0.111  54.907  1.00  0.00     0.034 C 
ENDBRANCH   1  21
BRANCH   5  24
HETATM   24  N4  UNL     1      20.263   1.778  52.805  1.00  0.00    -0.286 NA
HETATM   25  H14 UNL     1      19.309   1.455  53.135  1.00  0.00     0.125 HD
HETATM   26  H15 UNL     1      19.299   2.138  52.741  1.00  0.00     0.125 HD
ENDBRANCH   5  24
TORSDOF 4
ENDMDL
MODEL 7
REMARK VINA RESULT:      -7.4      1.263      3.365
REMARK  4 active torsions:
REMARK  status: ('A' for Active; 'I' for Inactive)
REMARK    1  A    between atoms: C2_2  and  N1_4 
REMARK    2  A    between atoms: C4_6  and  C5_7 
REMARK    3  A    between atoms: C8_10  and  O1_11 
REMARK    4  A    between atoms: C13_17  and  N4_18 
ROOT
HETATM    1  N1  UNL     1      23.248   3.419  51.574  1.00  0.00    -0.247 N 
HETATM    2  N2  UNL     1      24.415   3.034  51.976  1.00  0.00    -0.167 NA
HETATM    3  C4  UNL     1      24.339   1.908  52.758  1.00  0.00     0.121 A 
HETATM    4  C12 UNL     1      22.998   1.686  52.759  1.00  0.00     0.084 A 
HETATM    5  C13 UNL     1      22.362   0.647  53.380  1.00  0.00     0.118 A 
HETATM    6  N5  UNL     1      21.031   0.507  53.302  1.00  0.00    -0.229 NA
HETATM    7  C14 UNL     1      20.324   1.427  52.583  1.00  0.00     0.237 A 
HETATM    8  N6  UNL     1      20.951   2.467  51.956  1.00  0.00    -0.222 NA
HETATM    9  C15 UNL     1      22.283   2.609  52.031  1.00  0.00     0.163 A 
ENDROOT
BRANCH   3  10
HETATM   10  C5  UNL     1      25.583   1.342  53.254  1.00  0.00     0.061 C 
HETATM   11  C6  UNL     1      26.199   0.221  52.851  1.00  0.00     0.022 C 
HETATM   12  C7  UNL     1      27.332   0.197  53.739  1.00  0.00     0.117 A 
HETATM   13  C8  UNL     1      28.489  -0.625  53.568  1.00  0.00     0.057 A 
HETATM   14  C11 UNL     1      27.762   1.555  53.933  1.00  0.00     0.024 A 
HETATM   15  C9  UNL     1      29.562   0.178  53.679  1.00  0.00     0.035 A 
HETATM   16  C10 UNL     1      29.110   1.566  53.913  1.00  0.00     0.028 A 
HETATM   17  N3  UNL     1      26.481   2.250  53.969  1.00  0.00    -0.357 N 
HETATM   18  H13 UNL     1      26.618   3.151  54.461  1.00  0.00     0.166 HD
BRANCH  13  19
HETATM   19  O1  UNL     1      28.566  -1.993  53.330  1.00  0.00    -0.364 OA
HETATM   20  H10 UNL     1      27.991  -2.666  53.853  1.00  0.00     0.217 HD
ENDBRANCH  13  19
ENDBRANCH   3  10
BRANCH   1  21
HETATM   21  C2  UNL     1      22.983   4.572  50.737  1.00  0.00     0.104 C 
HETATM   22  C1  UNL     1      23.712   5.808  51.250  1.00  0.00     0.034 C 
HETATM   23  C3  UNL     1      23.399   4.355  49.319  1.00  0.00     0.034 C 
ENDBRANCH   1  21
BRANCH   5  24
HETATM   24  N4  UNL     1      23.025  -0.373  54.087  1.00  0.00    -0.286 NA
HETATM   25  H14 UNL     1      23.748   0.192  54.619  1.00  0.00     0.125 HD
HETATM   26  H15 UNL     1      23.781  -0.584  54.757  1.00  0.00     0.125 HD
ENDBRANCH   5  24
TORSDOF 4
ENDMDL
MODEL 8
REMARK VINA RESULT:      -7.1      3.462      7.461
REMARK  4 active torsions:
REMARK  status: ('A' for Active; 'I' for Inactive)
REMARK    1  A    between atoms: C2_2  and  N1_4 
REMARK    2  A    between atoms: C4_6  and  C5_7 
REMARK    3  A    between atoms: C8_10  and  O1_11 
REMARK    4  A    between atoms: C13_17  and  N4_18 
ROOT
HETATM    1  N1  UNL     1      24.665   0.570  52.781  1.00  0.00    -0.247 N 
HETATM    2  N2  UNL     1      23.809   1.213  52.056  1.00  0.00    -0.167 NA
HETATM    3  C4  UNL     1      22.519   0.977  52.461  1.00  0.00     0.121 A 
HETATM    4  C12 UNL     1      22.727   0.128  53.502  1.00  0.00     0.084 A 
HETATM    5  C13 UNL     1      21.756  -0.410  54.300  1.00  0.00     0.118 A 
HETATM    6  N5  UNL     1      22.071  -1.224  55.317  1.00  0.00    -0.229 NA
HETATM    7  C14 UNL     1      23.389  -1.503  55.540  1.00  0.00     0.237 A 
HETATM    8  N6  UNL     1      24.366  -0.967  54.750  1.00  0.00    -0.222 NA
HETATM    9  C15 UNL     1      24.055  -0.151  53.732  1.00  0.00     0.163 A 
ENDROOT
BRANCH   3  10
HETATM   10  C5  UNL     1      21.450   1.664  51.754  1.00  0.00     0.061 C 
HETATM   11  C6  UNL     1      20.922   1.361  50.559  1.00  0.00     0.022 C 
HETATM   12  C7  UNL     1      19.956   2.418  50.412  1.00  0.00     0.117 A 
HETATM   13  C8  UNL     1      18.898   2.433  49.451  1.00  0.00     0.057 A 
HETATM   14  C11 UNL     1      19.397   2.682  51.710  1.00  0.00     0.024 A 
HETATM   15  C9  UNL     1      17.765   2.715  50.118  1.00  0.00     0.035 A 
HETATM   16  C10 UNL     1      18.072   2.879  51.554  1.00  0.00     0.028 A 
HETATM   17  N3  UNL     1      20.571   2.515  52.557  1.00  0.00    -0.357 N 
HETATM   18  H13 UNL     1      20.403   3.025  53.443  1.00  0.00     0.166 HD
BRANCH  13  19
HETATM   19  O1  UNL     1      18.954   2.207  48.079  1.00  0.00    -0.364 OA
HETATM   20  H10 UNL     1      18.639   1.320  47.665  1.00  0.00     0.217 HD
ENDBRANCH  13  19
ENDBRANCH   3  10
BRANCH   1  21
HETATM   21  C2  UNL     1      26.104   0.603  52.614  1.00  0.00     0.104 C 
HETATM   22  C1  UNL     1      26.645  -0.761  52.200  1.00  0.00     0.034 C 
HETATM   23  C3  UNL     1      26.537   1.594  51.584  1.00  0.00     0.034 C 
ENDBRANCH   1  21
BRANCH   5  24
HETATM   24  N4  UNL     1      20.384  -0.124  54.172  1.00  0.00    -0.286 NA
HETATM   25  H14 UNL     1      20.038  -1.013  53.710  1.00  0.00     0.125 HD
HETATM   26  H15 UNL     1      19.473  -0.480  53.843  1.00  0.00     0.125 HD
ENDBRANCH   5  24
TORSDOF 4
ENDMDL
MODEL 9
REMARK VINA RESULT:      -6.9      2.980      6.562
REMARK  4 active torsions:
REMARK  status: ('A' for Active; 'I' for Inactive)
REMARK    1  A    between atoms: C2_2  and  N1_4 
REMARK    2  A    between atoms: C4_6  and  C5_7 
REMARK    3  A    between atoms: C8_10  and  O1_11 
REMARK    4  A    between atoms: C13_17  and  N4_18 
ROOT
HETATM    1  N1  UNL     1      24.833   0.029  53.031  1.00  0.00    -0.247 N 
HETATM    2  N2  UNL     1      23.552  -0.146  53.049  1.00  0.00    -0.167 NA
HETATM    3  C4  UNL     1      22.903   0.760  52.248  1.00  0.00     0.121 A 
HETATM    4  C12 UNL     1      23.953   1.475  51.764  1.00  0.00     0.084 A 
HETATM    5  C13 UNL     1      23.872   2.510  50.874  1.00  0.00     0.118 A 
HETATM    6  N5  UNL     1      24.975   3.138  50.443  1.00  0.00    -0.229 NA
HETATM    7  C14 UNL     1      26.186   2.716  50.912  1.00  0.00     0.237 A 
HETATM    8  N6  UNL     1      26.277   1.680  51.799  1.00  0.00    -0.222 NA
HETATM    9  C15 UNL     1      25.175   1.048  52.231  1.00  0.00     0.163 A 
ENDROOT
BRANCH   3  10
HETATM   10  C5  UNL     1      21.456   0.659  52.144  1.00  0.00     0.061 C 
HETATM   11  C6  UNL     1      20.721   0.400  51.052  1.00  0.00     0.022 C 
HETATM   12  C7  UNL     1      19.390   0.474  51.594  1.00  0.00     0.117 A 
HETATM   13  C8  UNL     1      18.212  -0.003  50.940  1.00  0.00     0.057 A 
HETATM   14  C11 UNL     1      19.429  -0.077  52.922  1.00  0.00     0.024 A 
HETATM   15  C9  UNL     1      17.557  -0.776  51.825  1.00  0.00     0.035 A 
HETATM   16  C10 UNL     1      18.321  -0.827  53.089  1.00  0.00     0.028 A 
HETATM   17  N3  UNL     1      20.723   0.409  53.386  1.00  0.00    -0.357 N 
HETATM   18  H13 UNL     1      20.716   0.402  54.422  1.00  0.00     0.166 HD
BRANCH  13  19
HETATM   19  O1  UNL     1      17.767   0.241  49.645  1.00  0.00    -0.364 OA
HETATM   20  H10 UNL     1      17.987  -0.397  48.869  1.00  0.00     0.217 HD
ENDBRANCH  13  19
ENDBRANCH   3  10
BRANCH   1  21
HETATM   21  C2  UNL     1      25.802  -0.758  53.768  1.00  0.00     0.104 C 
HETATM   22  C1  UNL     1      26.791  -1.439  52.830  1.00  0.00     0.034 C 
HETATM   23  C3  UNL     1      26.587   0.065  54.736  1.00  0.00     0.034 C 
ENDBRANCH   1  21
BRANCH   5  24
HETATM   24  N4  UNL     1      22.669   2.962  50.300  1.00  0.00    -0.286 NA
HETATM   25  H14 UNL     1      22.299   2.063  49.880  1.00  0.00     0.125 HD
HETATM   26  H15 UNL     1      21.832   2.687  49.763  1.00  0.00     0.125 HD
ENDBRANCH   5  24
TORSDOF 4
ENDMDL
