MODEL 1
REMARK VINA RESULT:      -7.6      0.000      0.000
REMARK  5 active torsions:
REMARK  status: ('A' for Active; 'I' for Inactive)
REMARK       I    between atoms: N1_1  and  C1_2 
REMARK       I    between atoms: C1_2  and  N2_4 
REMARK    1  A    between atoms: N2_4  and  C2_5 
REMARK    2  A    between atoms: C7_12  and  N5_13 
REMARK    3  A    between atoms: N5_13  and  C8_14 
REMARK    4  A    between atoms: C8_14  and  C9_15 
REMARK    5  A    between atoms: C8_14  and  C11_18 
ROOT
HETATM    1  C2  UNL     1      26.342   0.018  53.010  1.00  0.00     0.037 A 
HETATM    2  C3  UNL     1      25.364  -0.847  53.468  1.00  0.00     0.032 A 
HETATM    3  C4  UNL     1      24.061  -0.409  53.398  1.00  0.00     0.035 A 
HETATM    4  C5  UNL     1      23.730   0.840  52.894  1.00  0.00     0.072 A 
HETATM    5  N3  UNL     1      22.439   1.245  52.838  1.00  0.00    -0.241 NA
HETATM    6  C6  UNL     1      22.167   2.478  52.335  1.00  0.00     0.235 A 
HETATM    7  N4  UNL     1      23.147   3.289  51.901  1.00  0.00    -0.224 NA
HETATM    8  C7  UNL     1      24.447   2.954  51.927  1.00  0.00     0.138 A 
HETATM    9  C13 UNL     1      24.696   1.701  52.440  1.00  0.00     0.041 A 
HETATM   10  C14 UNL     1      25.998   1.255  52.513  1.00  0.00     0.047 A 
ENDROOT
BRANCH   8  11
HETATM   11  N5  UNL     1      25.449   3.844  51.457  1.00  0.00    -0.363 N 
HETATM   12  H7  UNL     1      26.227   4.241  51.989  1.00  0.00     0.162 HD
BRANCH  11  13
HETATM   13  C8  UNL     1      25.394   4.261  50.061  1.00  0.00     0.132 C 
BRANCH  13  14
HETATM   14  C9  UNL     1      26.629   3.944  49.312  1.00  0.00     0.031 C 
HETATM   15  C10 UNL     1      27.436   4.851  48.808  1.00  0.00     0.186 C 
HETATM   16  F1  UNL     1      28.594   4.599  48.107  1.00  0.00    -0.220 F 
ENDBRANCH  13  14
BRANCH  13  17
HETATM   17  C11 UNL     1      25.062   5.726  49.964  1.00  0.00     0.014 C 
HETATM   18  C12 UNL     1      24.780   6.911  50.493  1.00  0.00     0.083 C 
HETATM   19 CL1  UNL     1      24.418   8.551  49.925  1.00  0.00    -0.097 Cl
ENDBRANCH  13  17
ENDBRANCH  11  13
ENDBRANCH   8  11
BRANCH   1  20
HETATM   20  N2  UNL     1      27.679  -0.471  53.099  1.00  0.00    -0.309 N 
HETATM   21  C1  UNL     1      28.684  -0.233  54.095  1.00  0.00     0.318 C 
HETATM   22  N1  UNL     1      29.947  -0.857  53.930  1.00  0.00    -0.352 N 
HETATM   23  O1  UNL     1      28.247   0.528  54.990  1.00  0.00    -0.247 OA
HETATM   24  H1  UNL     1      30.226  -1.252  54.853  1.00  0.00     0.160 HD
HETATM   25  H2  UNL     1      30.361  -0.817  52.960  1.00  0.00     0.160 HD
HETATM   26  H3  UNL     1      27.826  -1.079  52.258  1.00  0.00     0.170 HD
ENDBRANCH   1  20
TORSDOF 5
ENDMDL
MODEL 2
REMARK VINA RESULT:      -7.4      2.049      2.368
REMARK  5 active torsions:
REMARK  status: ('A' for Active; 'I' for Inactive)
REMARK       I    between atoms: N1_1  and  C1_2 
REMARK       I    between atoms: C1_2  and  N2_4 
REMARK    1  A    between atoms: N2_4  and  C2_5 
REMARK    2  A    between atoms: C7_12  and  N5_13 
REMARK    3  A    between atoms: N5_13  and  C8_14 
REMARK    4  A    between atoms: C8_14  and  C9_15 
REMARK    5  A    between atoms: C8_14  and  C11_18 
ROOT
HETATM    1  C2  UNL     1      26.409   0.417  52.919  1.00  0.00     0.037 A 
HETATM    2  C3  UNL     1      25.661  -0.615  53.460  1.00  0.00     0.032 A 
HETATM    3  C4  UNL     1      24.297  -0.435  53.515  1.00  0.00     0.035 A 
HETATM    4  C5  UNL     1      23.688   0.723  53.052  1.00  0.00     0.072 A 
HETATM    5  N3  UNL     1      22.344   0.872  53.119  1.00  0.00    -0.241 NA
HETATM    6  C6  UNL     1      21.796   2.025  52.653  1.00  0.00     0.235 A 
HETATM    7  N4  UNL     1      22.558   3.004  52.136  1.00  0.00    -0.224 NA
HETATM    8  C7  UNL     1      23.894   2.924  52.039  1.00  0.00     0.138 A 
HETATM    9  C13 UNL     1      24.425   1.747  52.517  1.00  0.00     0.041 A 
HETATM   10  C14 UNL     1      25.790   1.560  52.465  1.00  0.00     0.047 A 
ENDROOT
BRANCH   8  11
HETATM   11  N5  UNL     1      24.659   3.984  51.484  1.00  0.00    -0.363 N 
HETATM   12  H7  UNL     1      25.296   4.615  51.975  1.00  0.00     0.162 HD
BRANCH  11  13
HETATM   13  C8  UNL     1      24.550   4.231  50.050  1.00  0.00     0.132 C 
BRANCH  13  14
HETATM   14  C9  UNL     1      24.035   3.067  49.298  1.00  0.00     0.031 C 
HETATM   15  C10 UNL     1      23.050   3.129  48.431  1.00  0.00     0.186 C 
HETATM   16  F1  UNL     1      22.543   2.072  47.710  1.00  0.00    -0.220 F 
ENDBRANCH  13  14
BRANCH  13  17
HETATM   17  C11 UNL     1      25.870   4.693  49.495  1.00  0.00     0.014 C 
HETATM   18  C12 UNL     1      27.077   4.479  48.983  1.00  0.00     0.083 C 
HETATM   19 CL1  UNL     1      28.451   5.441  48.410  1.00  0.00    -0.097 Cl
ENDBRANCH  13  17
ENDBRANCH  11  13
ENDBRANCH   8  11
BRANCH   1  20
HETATM   20  N2  UNL     1      27.816   0.193  52.880  1.00  0.00    -0.309 N 
HETATM   21  C1  UNL     1      28.839   0.585  53.807  1.00  0.00     0.318 C 
HETATM   22  N1  UNL     1      30.179   0.225  53.514  1.00  0.00    -0.352 N 
HETATM   23  O1  UNL     1      28.343   1.213  54.771  1.00  0.00    -0.247 OA
HETATM   24  H1  UNL     1      30.606  -0.142  54.391  1.00  0.00     0.160 HD
HETATM   25  H2  UNL     1      30.494   0.380  52.518  1.00  0.00     0.160 HD
HETATM   26  H3  UNL     1      28.005  -0.343  51.999  1.00  0.00     0.170 HD
ENDBRANCH   1  20
TORSDOF 5
ENDMDL
MODEL 3
REMARK VINA RESULT:      -7.3      4.239      6.067
REMARK  5 active torsions:
REMARK  status: ('A' for Active; 'I' for Inactive)
REMARK       I    between atoms: N1_1  and  C1_2 
REMARK       I    between atoms: C1_2  and  N2_4 
REMARK    1  A    between atoms: N2_4  and  C2_5 
REMARK    2  A    between atoms: C7_12  and  N5_13 
REMARK    3  A    between atoms: N5_13  and  C8_14 
REMARK    4  A    between atoms: C8_14  and  C9_15 
REMARK    5  A    between atoms: C8_14  and  C11_18 
ROOT
HETATM    1  C2  UNL     1      25.892   1.098  52.211  1.00  0.00     0.037 A 
HETATM    2  C3  UNL     1      26.373   2.195  51.517  1.00  0.00     0.032 A 
HETATM    3  C4  UNL     1      25.456   2.935  50.806  1.00  0.00     0.035 A 
HETATM    4  C5  UNL     1      24.108   2.606  50.778  1.00  0.00     0.072 A 
HETATM    5  N3  UNL     1      23.228   3.352  50.068  1.00  0.00    -0.241 NA
HETATM    6  C6  UNL     1      21.919   2.989  50.072  1.00  0.00     0.235 A 
HETATM    7  N4  UNL     1      21.492   1.915  50.759  1.00  0.00    -0.224 NA
HETATM    8  C7  UNL     1      22.307   1.131  51.482  1.00  0.00     0.138 A 
HETATM    9  C13 UNL     1      23.628   1.520  51.462  1.00  0.00     0.041 A 
HETATM   10  C14 UNL     1      24.552   0.785  52.173  1.00  0.00     0.047 A 
ENDROOT
BRANCH   8  11
HETATM   11  N5  UNL     1      21.812   0.006  52.193  1.00  0.00    -0.363 N 
HETATM   12  H7  UNL     1      21.960  -0.982  51.975  1.00  0.00     0.162 HD
BRANCH  11  13
HETATM   13  C8  UNL     1      20.994   0.249  53.376  1.00  0.00     0.132 C 
BRANCH  13  14
HETATM   14  C9  UNL     1      21.673  -0.120  54.637  1.00  0.00     0.031 C 
HETATM   15  C10 UNL     1      22.431  -1.184  54.779  1.00  0.00     0.186 C 
HETATM   16  F1  UNL     1      23.081  -1.561  55.932  1.00  0.00    -0.220 F 
ENDBRANCH  13  14
BRANCH  13  17
HETATM   17  C11 UNL     1      19.668  -0.452  53.250  1.00  0.00     0.014 C 
HETATM   18  C12 UNL     1      18.488  -0.653  52.674  1.00  0.00     0.083 C 
HETATM   19 CL1  UNL     1      17.084  -1.714  52.890  1.00  0.00    -0.097 Cl
ENDBRANCH  13  17
ENDBRANCH  11  13
ENDBRANCH   8  11
BRANCH   1  20
HETATM   20  N2  UNL     1      26.873   0.358  52.935  1.00  0.00    -0.309 N 
HETATM   21  C1  UNL     1      27.290   0.471  54.303  1.00  0.00     0.318 C 
HETATM   22  N1  UNL     1      28.302  -0.407  54.766  1.00  0.00    -0.352 N 
HETATM   23  O1  UNL     1      26.651   1.378  54.886  1.00  0.00    -0.247 OA
HETATM   24  H1  UNL     1      28.003  -0.770  55.696  1.00  0.00     0.160 HD
HETATM   25  H2  UNL     1      29.134  -0.535  54.128  1.00  0.00     0.160 HD
HETATM   26  H3  UNL     1      27.274  -0.337  52.260  1.00  0.00     0.170 HD
ENDBRANCH   1  20
TORSDOF 5
ENDMDL
MODEL 4
REMARK VINA RESULT:      -7.3      2.605      3.297
REMARK  5 active torsions:
REMARK  status: ('A' for Active; 'I' for Inactive)
REMARK       I    between atoms: N1_1  and  C1_2 
REMARK       I    between atoms: C1_2  and  N2_4 
REMARK    1  A    between atoms: N2_4  and  C2_5 
REMARK    2  A    between atoms: C7_12  and  N5_13 
REMARK    3  A    between atoms: N5_13  and  C8_14 
REMARK    4  A    between atoms: C8_14  and  C9_15 
REMARK    5  A    between atoms: C8_14  and  C11_18 
ROOT
HETATM    1  C2  UNL     1      24.681  -0.505  54.156  1.00  0.00     0.037 A 
HETATM    2  C3  UNL     1      23.848  -1.190  55.023  1.00  0.00     0.032 A 
HETATM    3  C4  UNL     1      22.495  -0.985  54.882  1.00  0.00     0.035 A 
HETATM    4  C5  UNL     1      21.976  -0.132  53.918  1.00  0.00     0.072 A 
HETATM    5  N3  UNL     1      20.640   0.052  53.802  1.00  0.00    -0.241 NA
HETATM    6  C6  UNL     1      20.182   0.898  52.843  1.00  0.00     0.235 A 
HETATM    7  N4  UNL     1      21.025   1.545  52.019  1.00  0.00    -0.224 NA
HETATM    8  C7  UNL     1      22.359   1.411  52.078  1.00  0.00     0.138 A 
HETATM    9  C13 UNL     1      22.798   0.549  53.058  1.00  0.00     0.041 A 
HETATM   10  C14 UNL     1      24.152   0.338  53.204  1.00  0.00     0.047 A 
ENDROOT
BRANCH   8  11
HETATM   11  N5  UNL     1      23.212   2.116  51.187  1.00  0.00    -0.363 N 
HETATM   12  H7  UNL     1      23.366   1.927  50.194  1.00  0.00     0.162 HD
BRANCH  11  13
HETATM   13  C8  UNL     1      23.972   3.244  51.714  1.00  0.00     0.132 C 
BRANCH  13  14
HETATM   14  C9  UNL     1      23.120   4.393  52.088  1.00  0.00     0.031 C 
HETATM   15  C10 UNL     1      22.551   5.199  51.220  1.00  0.00     0.186 C 
HETATM   16  F1  UNL     1      21.751   6.277  51.526  1.00  0.00    -0.220 F 
ENDBRANCH  13  14
BRANCH  13  17
HETATM   17  C11 UNL     1      25.042   3.656  50.739  1.00  0.00     0.014 C 
HETATM   18  C12 UNL     1      26.274   3.606  50.246  1.00  0.00     0.083 C 
HETATM   19 CL1  UNL     1      27.195   4.358  48.931  1.00  0.00    -0.097 Cl
ENDBRANCH  13  17
ENDBRANCH  11  13
ENDBRANCH   8  11
BRANCH   1  20
HETATM   20  N2  UNL     1      26.075  -0.745  54.333  1.00  0.00    -0.309 N 
HETATM   21  C1  UNL     1      27.118   0.146  54.757  1.00  0.00     0.318 C 
HETATM   22  N1  UNL     1      28.437  -0.366  54.846  1.00  0.00    -0.352 N 
HETATM   23  O1  UNL     1      26.656   1.287  54.988  1.00  0.00    -0.247 OA
HETATM   24  H1  UNL     1      28.846  -0.030  55.744  1.00  0.00     0.160 HD
HETATM   25  H2  UNL     1      28.758  -0.965  54.038  1.00  0.00     0.160 HD
HETATM   26  H3  UNL     1      26.235  -1.751  54.086  1.00  0.00     0.170 HD
ENDBRANCH   1  20
TORSDOF 5
ENDMDL
MODEL 5
REMARK VINA RESULT:      -7.2      3.296      5.286
REMARK  5 active torsions:
REMARK  status: ('A' for Active; 'I' for Inactive)
REMARK       I    between atoms: N1_1  and  C1_2 
REMARK       I    between atoms: C1_2  and  N2_4 
REMARK    1  A    between atoms: N2_4  and  C2_5 
REMARK    2  A    between atoms: C7_12  and  N5_13 
REMARK    3  A    between atoms: N5_13  and  C8_14 
REMARK    4  A    between atoms: C8_14  and  C9_15 
REMARK    5  A    between atoms: C8_14  and  C11_18 
ROOT
HETATM    1  C2  UNL     1      22.704  -0.962  54.169  1.00  0.00     0.037 A 
HETATM    2  C3  UNL     1      23.246  -1.519  55.314  1.00  0.00     0.032 A 
HETATM    3  C4  UNL     1      24.566  -1.236  55.582  1.00  0.00     0.035 A 
HETATM    4  C5  UNL     1      25.329  -0.430  54.750  1.00  0.00     0.072 A 
HETATM    5  N3  UNL     1      26.626  -0.168  55.038  1.00  0.00    -0.241 NA
HETATM    6  C6  UNL     1      27.331   0.627  54.191  1.00  0.00     0.235 A 
HETATM    7  N4  UNL     1      26.767   1.149  53.088  1.00  0.00    -0.224 NA
HETATM    8  C7  UNL     1      25.489   0.932  52.741  1.00  0.00     0.138 A 
HETATM    9  C13 UNL     1      24.796   0.123  53.614  1.00  0.00     0.041 A 
HETATM   10  C14 UNL     1      23.474  -0.164  53.353  1.00  0.00     0.047 A 
ENDROOT
BRANCH   8  11
HETATM   11  N5  UNL     1      24.935   1.504  51.565  1.00  0.00    -0.363 N 
HETATM   12  H7  UNL     1      24.651   1.019  50.711  1.00  0.00     0.162 HD
BRANCH  11  13
HETATM   13  C8  UNL     1      24.734   2.949  51.536  1.00  0.00     0.132 C 
BRANCH  13  14
HETATM   14  C9  UNL     1      23.332   3.334  51.265  1.00  0.00     0.031 C 
HETATM   15  C10 UNL     1      22.299   2.852  51.918  1.00  0.00     0.186 C 
HETATM   16  F1  UNL     1      20.981   3.185  51.699  1.00  0.00    -0.220 F 
ENDBRANCH  13  14
BRANCH  13  17
HETATM   17  C11 UNL     1      25.672   3.589  50.548  1.00  0.00     0.014 C 
HETATM   18  C12 UNL     1      26.675   3.555  49.678  1.00  0.00     0.083 C 
HETATM   19 CL1  UNL     1      27.541   4.689  48.626  1.00  0.00    -0.097 Cl
ENDBRANCH  13  17
ENDBRANCH  11  13
ENDBRANCH   8  11
BRANCH   1  20
HETATM   20  N2  UNL     1      21.335  -1.279  53.926  1.00  0.00    -0.309 N 
HETATM   21  C1  UNL     1      20.179  -0.429  53.915  1.00  0.00     0.318 C 
HETATM   22  N1  UNL     1      18.919  -1.019  53.641  1.00  0.00    -0.352 N 
HETATM   23  O1  UNL     1      20.500   0.757  54.163  1.00  0.00    -0.247 OA
HETATM   24  H1  UNL     1      18.423  -0.403  52.963  1.00  0.00     0.160 HD
HETATM   25  H2  UNL     1      18.714  -1.927  54.139  1.00  0.00     0.160 HD
HETATM   26  H3  UNL     1      21.300  -2.310  53.744  1.00  0.00     0.170 HD
ENDBRANCH   1  20
TORSDOF 5
ENDMDL
MODEL 6
REMARK VINA RESULT:      -7.1      4.181      6.337
REMARK  5 active torsions:
REMARK  status: ('A' for Active; 'I' for Inactive)
REMARK       I    between atoms: N1_1  and  C1_2 
REMARK       I    between atoms: C1_2  and  N2_4 
REMARK    1  A    between atoms: N2_4  and  C2_5 
REMARK    2  A    between atoms: C7_12  and  N5_13 
REMARK    3  A    between atoms: N5_13  and  C8_14 
REMARK    4  A    between atoms: C8_14  and  C9_15 
REMARK    5  A    between atoms: C8_14  and  C11_18 
ROOT
HETATM    1  C2  UNL     1      21.211   0.095  52.317  1.00  0.00     0.037 A 
HETATM    2  C3  UNL     1      20.374  -0.480  53.258  1.00  0.00     0.032 A 
HETATM    3  C4  UNL     1      20.969  -1.023  54.374  1.00  0.00     0.035 A 
HETATM    4  C5  UNL     1      22.344  -1.001  54.559  1.00  0.00     0.072 A 
HETATM    5  N3  UNL     1      22.902  -1.544  55.667  1.00  0.00    -0.241 NA
HETATM    6  C6  UNL     1      24.253  -1.498  55.802  1.00  0.00     0.235 A 
HETATM    7  N4  UNL     1      25.032  -0.930  54.864  1.00  0.00    -0.224 NA
HETATM    8  C7  UNL     1      24.547  -0.374  53.742  1.00  0.00     0.138 A 
HETATM    9  C13 UNL     1      23.176  -0.434  53.630  1.00  0.00     0.041 A 
HETATM   10  C14 UNL     1      22.573   0.108  52.515  1.00  0.00     0.047 A 
ENDROOT
BRANCH   8  11
HETATM   11  N5  UNL     1      25.408   0.215  52.779  1.00  0.00    -0.363 N 
HETATM   12  H7  UNL     1      25.369   0.109  51.762  1.00  0.00     0.162 HD
BRANCH  11  13
HETATM   13  C8  UNL     1      26.484   1.076  53.256  1.00  0.00     0.132 C 
BRANCH  13  14
HETATM   14  C9  UNL     1      26.716   2.250  52.389  1.00  0.00     0.031 C 
HETATM   15  C10 UNL     1      26.636   2.223  51.078  1.00  0.00     0.186 C 
HETATM   16  F1  UNL     1      26.843   3.292  50.235  1.00  0.00    -0.220 F 
ENDBRANCH  13  14
BRANCH  13  17
HETATM   17  C11 UNL     1      27.749   0.281  53.442  1.00  0.00     0.014 C 
HETATM   18  C12 UNL     1      29.065   0.170  53.576  1.00  0.00     0.083 C 
HETATM   19 CL1  UNL     1      30.260  -1.121  53.797  1.00  0.00    -0.097 Cl
ENDBRANCH  13  17
ENDBRANCH  11  13
ENDBRANCH   8  11
BRANCH   1  20
HETATM   20  N2  UNL     1      20.557   0.646  51.176  1.00  0.00    -0.309 N 
HETATM   21  C1  UNL     1      20.007   1.956  50.970  1.00  0.00     0.318 C 
HETATM   22  N1  UNL     1      19.405   2.236  49.718  1.00  0.00    -0.352 N 
HETATM   23  O1  UNL     1      20.164   2.665  51.991  1.00  0.00    -0.247 OA
HETATM   24  H1  UNL     1      19.740   3.174  49.410  1.00  0.00     0.160 HD
HETATM   25  H2  UNL     1      18.760   1.493  49.336  1.00  0.00     0.160 HD
HETATM   26  H3  UNL     1      20.538  -0.113  50.453  1.00  0.00     0.170 HD
ENDBRANCH   1  20
TORSDOF 5
ENDMDL
MODEL 7
REMARK VINA RESULT:      -7.1      2.267      2.548
REMARK  5 active torsions:
REMARK  status: ('A' for Active; 'I' for Inactive)
REMARK       I    between atoms: N1_1  and  C1_2 
REMARK       I    between atoms: C1_2  and  N2_4 
REMARK    1  A    between atoms: N2_4  and  C2_5 
REMARK    2  A    between atoms: C7_12  and  N5_13 
REMARK    3  A    between atoms: N5_13  and  C8_14 
REMARK    4  A    between atoms: C8_14  and  C9_15 
REMARK    5  A    between atoms: C8_14  and  C11_18 
ROOT
HETATM    1  C2  UNL     1      26.125   1.111  54.056  1.00  0.00     0.037 A 
HETATM    2  C3  UNL     1      25.810  -0.099  54.651  1.00  0.00     0.032 A 
HETATM    3  C4  UNL     1      24.620  -0.684  54.283  1.00  0.00     0.035 A 
HETATM    4  C5  UNL     1      23.766  -0.099  53.359  1.00  0.00     0.072 A 
HETATM    5  N3  UNL     1      22.601  -0.698  53.016  1.00  0.00    -0.241 NA
HETATM    6  C6  UNL     1      21.799  -0.083  52.107  1.00  0.00     0.235 A 
HETATM    7  N4  UNL     1      22.142   1.092  51.552  1.00  0.00    -0.224 NA
HETATM    8  C7  UNL     1      23.280   1.742  51.845  1.00  0.00     0.138 A 
HETATM    9  C13 UNL     1      24.074   1.099  52.769  1.00  0.00     0.041 A 
HETATM   10  C14 UNL     1      25.267   1.679  53.142  1.00  0.00     0.047 A 
ENDROOT
BRANCH   8  11
HETATM   11  N5  UNL     1      23.600   2.983  51.234  1.00  0.00    -0.363 N 
HETATM   12  H7  UNL     1      23.344   3.919  51.555  1.00  0.00     0.162 HD
BRANCH  11  13
HETATM   13  C8  UNL     1      24.386   2.959  50.005  1.00  0.00     0.132 C 
BRANCH  13  14
HETATM   14  C9  UNL     1      25.489   3.943  50.002  1.00  0.00     0.031 C 
HETATM   15  C10 UNL     1      26.567   3.835  49.260  1.00  0.00     0.186 C 
HETATM   16  F1  UNL     1      27.615   4.728  49.225  1.00  0.00    -0.220 F 
ENDBRANCH  13  14
BRANCH  13  17
HETATM   17  C11 UNL     1      23.492   3.142  48.808  1.00  0.00     0.014 C 
HETATM   18  C12 UNL     1      22.311   3.353  48.236  1.00  0.00     0.083 C 
HETATM   19 CL1  UNL     1      21.655   3.511  46.597  1.00  0.00    -0.097 Cl
ENDBRANCH  13  17
ENDBRANCH  11  13
ENDBRANCH   8  11
BRANCH   1  20
HETATM   20  N2  UNL     1      27.365   1.685  54.464  1.00  0.00    -0.309 N 
HETATM   21  C1  UNL     1      28.691   1.473  53.958  1.00  0.00     0.318 C 
HETATM   22  N1  UNL     1      29.757   2.187  54.560  1.00  0.00    -0.352 N 
HETATM   23  O1  UNL     1      28.677   0.645  53.016  1.00  0.00    -0.247 OA
HETATM   24  H1  UNL     1      30.359   2.559  53.795  1.00  0.00     0.160 HD
HETATM   25  H2  UNL     1      29.757   2.218  55.615  1.00  0.00     0.160 HD
HETATM   26  H3  UNL     1      27.142   2.338  55.253  1.00  0.00     0.170 HD
ENDBRANCH   1  20
TORSDOF 5
ENDMDL
MODEL 8
REMARK VINA RESULT:      -6.9      3.261      3.745
REMARK  5 active torsions:
REMARK  status: ('A' for Active; 'I' for Inactive)
REMARK       I    between atoms: N1_1  and  C1_2 
REMARK       I    between atoms: C1_2  and  N2_4 
REMARK    1  A    between atoms: N2_4  and  C2_5 
REMARK    2  A    between atoms: C7_12  and  N5_13 
REMARK    3  A    between atoms: N5_13  and  C8_14 
REMARK    4  A    between atoms: C8_14  and  C9_15 
REMARK    5  A    between atoms: C8_14  and  C11_18 
ROOT
HETATM    1  C2  UNL     1      24.835  -0.733  54.278  1.00  0.00     0.037 A 
HETATM    2  C3  UNL     1      24.148  -1.310  55.332  1.00  0.00     0.032 A 
HETATM    3  C4  UNL     1      22.775  -1.232  55.300  1.00  0.00     0.035 A 
HETATM    4  C5  UNL     1      22.097  -0.606  54.264  1.00  0.00     0.072 A 
HETATM    5  N3  UNL     1      20.744  -0.544  54.259  1.00  0.00    -0.241 NA
HETATM    6  C6  UNL     1      20.127   0.080  53.222  1.00  0.00     0.235 A 
HETATM    7  N4  UNL     1      20.830   0.629  52.216  1.00  0.00    -0.224 NA
HETATM    8  C7  UNL     1      22.171   0.605  52.156  1.00  0.00     0.138 A 
HETATM    9  C13 UNL     1      22.772  -0.033  53.219  1.00  0.00     0.041 A 
HETATM   10  C14 UNL     1      24.147  -0.115  53.257  1.00  0.00     0.047 A 
ENDROOT
BRANCH   8  11
HETATM   11  N5  UNL     1      22.873   1.198  51.074  1.00  0.00    -0.363 N 
HETATM   12  H7  UNL     1      23.397   0.722  50.337  1.00  0.00     0.162 HD
BRANCH  11  13
HETATM   13  C8  UNL     1      22.867   2.653  50.969  1.00  0.00     0.132 C 
BRANCH  13  14
HETATM   14  C9  UNL     1      22.928   3.330  52.281  1.00  0.00     0.031 C 
HETATM   15  C10 UNL     1      23.649   4.402  52.523  1.00  0.00     0.186 C 
HETATM   16  F1  UNL     1      23.733   5.063  53.728  1.00  0.00    -0.220 F 
ENDBRANCH  13  14
BRANCH  13  17
HETATM   17  C11 UNL     1      21.676   3.117  50.175  1.00  0.00     0.014 C 
HETATM   18  C12 UNL     1      20.830   4.048  49.748  1.00  0.00     0.083 C 
HETATM   19 CL1  UNL     1      19.406   4.148  48.696  1.00  0.00    -0.097 Cl
ENDBRANCH  13  17
ENDBRANCH  11  13
ENDBRANCH   8  11
BRANCH   1  20
HETATM   20  N2  UNL     1      26.255  -0.834  54.347  1.00  0.00    -0.309 N 
HETATM   21  C1  UNL     1      27.230   0.129  54.775  1.00  0.00     0.318 C 
HETATM   22  N1  UNL     1      28.597  -0.245  54.739  1.00  0.00    -0.352 N 
HETATM   23  O1  UNL     1      26.671   1.194  55.127  1.00  0.00    -0.247 OA
HETATM   24  H1  UNL     1      29.032   0.066  55.633  1.00  0.00     0.160 HD
HETATM   25  H2  UNL     1      28.919  -0.743  53.866  1.00  0.00     0.160 HD
HETATM   26  H3  UNL     1      26.498  -1.796  54.009  1.00  0.00     0.170 HD
ENDBRANCH   1  20
TORSDOF 5
ENDMDL
MODEL 9
REMARK VINA RESULT:      -6.9      2.383      4.275
REMARK  5 active torsions:
REMARK  status: ('A' for Active; 'I' for Inactive)
REMARK       I    between atoms: N1_1  and  C1_2 
REMARK       I    between atoms: C1_2  and  N2_4 
REMARK    1  A    between atoms: N2_4  and  C2_5 
REMARK    2  A    between atoms: C7_12  and  N5_13 
REMARK    3  A    between atoms: N5_13  and  C8_14 
REMARK    4  A    between atoms: C8_14  and  C9_15 
REMARK    5  A    between atoms: C8_14  and  C11_18 
ROOT
HETATM    1  C2  UNL     1      23.685   0.203  53.463  1.00  0.00     0.037 A 
HETATM    2  C3  UNL     1      24.322  -0.734  54.259  1.00  0.00     0.032 A 
HETATM    3  C4  UNL     1      25.687  -0.620  54.387  1.00  0.00     0.035 A 
HETATM    4  C5  UNL     1      26.405   0.384  53.753  1.00  0.00     0.072 A 
HETATM    5  N3  UNL     1      27.748   0.471  53.897  1.00  0.00    -0.241 NA
HETATM    6  C6  UNL     1      28.406   1.472  53.255  1.00  0.00     0.235 A 
HETATM    7  N4  UNL     1      27.751   2.363  52.490  1.00  0.00    -0.224 NA
HETATM    8  C7  UNL     1      26.422   2.336  52.302  1.00  0.00     0.138 A 
HETATM    9  C13 UNL     1      25.779   1.312  52.963  1.00  0.00     0.041 A 
HETATM   10  C14 UNL     1      24.412   1.193  52.839  1.00  0.00     0.047 A 
ENDROOT
BRANCH   8  11
HETATM   11  N5  UNL     1      25.772   3.297  51.484  1.00  0.00    -0.363 N 
HETATM   12  H7  UNL     1      25.293   4.149  51.787  1.00  0.00     0.162 HD
BRANCH  11  13
HETATM   13  C8  UNL     1      25.765   3.078  50.042  1.00  0.00     0.132 C 
BRANCH  13  14
HETATM   14  C9  UNL     1      26.869   3.771  49.345  1.00  0.00     0.031 C 
HETATM   15  C10 UNL     1      26.794   5.000  48.888  1.00  0.00     0.186 C 
HETATM   16  F1  UNL     1      27.798   5.681  48.236  1.00  0.00    -0.220 F 
ENDBRANCH  13  14
BRANCH  13  17
HETATM   17  C11 UNL     1      24.431   3.463  49.460  1.00  0.00     0.014 C 
HETATM   18  C12 UNL     1      23.106   3.547  49.497  1.00  0.00     0.083 C 
HETATM   19 CL1  UNL     1      21.798   4.148  48.461  1.00  0.00    -0.097 Cl
ENDBRANCH  13  17
ENDBRANCH  11  13
ENDBRANCH   8  11
BRANCH   1  20
HETATM   20  N2  UNL     1      22.272   0.051  53.354  1.00  0.00    -0.309 N 
HETATM   21  C1  UNL     1      21.324  -0.467  54.299  1.00  0.00     0.318 C 
HETATM   22  N1  UNL     1      19.958  -0.503  53.922  1.00  0.00    -0.352 N 
HETATM   23  O1  UNL     1      21.900  -0.818  55.355  1.00  0.00    -0.247 OA
HETATM   24  H1  UNL     1      19.399  -0.148  54.727  1.00  0.00     0.160 HD
HETATM   25  H2  UNL     1      19.754  -0.860  52.949  1.00  0.00     0.160 HD
HETATM   26  H3  UNL     1      22.010   0.403  52.402  1.00  0.00     0.170 HD
ENDBRANCH   1  20
TORSDOF 5
ENDMDL
