MODEL 1
REMARK VINA RESULT:      -8.4      0.000      0.000
REMARK  5 active torsions:
REMARK  status: ('A' for Active; 'I' for Inactive)
REMARK    1  A    between atoms: C2_2  and  C3_3 
REMARK    2  A    between atoms: C4_4  and  C5_5 
REMARK    3  A    between atoms: C5_5  and  C6_6 
REMARK    4  A    between atoms: C11_13  and  N2_14 
REMARK    5  A    between atoms: N2_14  and  C12_15 
ROOT
HETATM    1  C6  UNL     1      25.248   1.647  52.900  1.00  0.00     0.013 C 
HETATM    2  C7  UNL     1      26.303   2.181  53.844  1.00  0.00     0.116 C 
HETATM    3  C8  UNL     1      27.670   1.975  53.311  1.00  0.00     0.222 C 
HETATM    4  O1  UNL     1      28.643   2.751  53.019  1.00  0.00    -0.273 OA
HETATM    5  N1  UNL     1      28.057   0.611  53.038  1.00  0.00    -0.337 N 
HETATM    6  C9  UNL     1      27.360  -0.638  53.077  1.00  0.00     0.089 C 
HETATM    7  C10 UNL     1      26.016  -0.665  53.174  1.00  0.00     0.016 C 
HETATM    8  C11 UNL     1      24.824   0.260  53.269  1.00  0.00     0.116 C 
HETATM    9  H9  UNL     1      29.061   0.458  52.743  1.00  0.00     0.168 HD
ENDROOT
BRANCH   1  10
HETATM   10  C5  UNL     1      24.991   2.560  51.981  1.00  0.00     0.060 C 
BRANCH  10  11
HETATM   11  C4  UNL     1      24.449   3.547  51.089  1.00  0.00     0.035 C 
HETATM   12  C3  UNL     1      25.333   3.843  50.108  1.00  0.00     0.027 C 
HETATM   13  N4  UNL     1      24.832   4.845  49.194  1.00  0.00    -0.390 N 
HETATM   14  C21 UNL     1      23.476   5.309  48.902  1.00  0.00     0.139 C 
HETATM   15  H28 UNL     1      25.495   5.402  48.576  1.00  0.00     0.159 HD
HETATM   16  C20 UNL     1      22.495   4.683  49.871  1.00  0.00     0.141 C 
HETATM   17  N3  UNL     1      23.204   4.235  51.069  1.00  0.00    -0.385 N 
HETATM   18  C19 UNL     1      22.629   4.494  52.367  1.00  0.00     0.149 C 
BRANCH  12  19
HETATM   19  C2  UNL     1      26.697   3.410  49.728  1.00  0.00     0.054 C 
HETATM   20  C1  UNL     1      27.315   4.528  48.888  1.00  0.00     0.011 C 
ENDBRANCH  12  19
ENDBRANCH  10  11
ENDBRANCH   1  10
BRANCH   8  21
HETATM   21  N2  UNL     1      23.854  -0.313  52.379  1.00  0.00    -0.381 N 
HETATM   22  H13 UNL     1      23.952  -0.704  51.436  1.00  0.00     0.160 HD
BRANCH  21  23
HETATM   23  C12 UNL     1      22.483  -0.409  52.807  1.00  0.00     0.034 A 
HETATM   24  C13 UNL     1      22.138  -1.090  53.958  1.00  0.00     0.029 A 
HETATM   25  C14 UNL     1      20.837  -1.222  54.416  1.00  0.00     0.002 A 
HETATM   26  C15 UNL     1      19.802  -0.647  53.697  1.00  0.00     0.001 A 
HETATM   27  C16 UNL     1      20.118   0.028  52.562  1.00  0.00     0.009 A 
HETATM   28  C17 UNL     1      21.411   0.147  52.125  1.00  0.00    -0.036 A 
HETATM   29  C18 UNL     1      21.737   0.896  50.867  1.00  0.00     0.050 C 
ENDBRANCH  21  23
ENDBRANCH   8  21
TORSDOF 5
ENDMDL
MODEL 2
REMARK VINA RESULT:      -8.3      2.197      6.102
REMARK  5 active torsions:
REMARK  status: ('A' for Active; 'I' for Inactive)
REMARK    1  A    between atoms: C2_2  and  C3_3 
REMARK    2  A    between atoms: C4_4  and  C5_5 
REMARK    3  A    between atoms: C5_5  and  C6_6 
REMARK    4  A    between atoms: C11_13  and  N2_14 
REMARK    5  A    between atoms: N2_14  and  C12_15 
ROOT
HETATM    1  C6  UNL     1      24.026   2.028  52.819  1.00  0.00     0.013 C 
HETATM    2  C7  UNL     1      23.767   3.505  52.615  1.00  0.00     0.116 C 
HETATM    3  C8  UNL     1      23.699   3.856  51.178  1.00  0.00     0.222 C 
HETATM    4  O1  UNL     1      22.810   4.385  50.426  1.00  0.00    -0.273 OA
HETATM    5  N1  UNL     1      24.870   3.561  50.386  1.00  0.00    -0.337 N 
HETATM    6  C9  UNL     1      26.104   2.892  50.663  1.00  0.00     0.089 C 
HETATM    7  C10 UNL     1      26.246   2.165  51.788  1.00  0.00     0.016 C 
HETATM    8  C11 UNL     1      25.481   1.744  53.022  1.00  0.00     0.116 C 
HETATM    9  H9  UNL     1      24.854   3.894  49.382  1.00  0.00     0.168 HD
ENDROOT
BRANCH   1  10
HETATM   10  C5  UNL     1      22.881   1.376  52.748  1.00  0.00     0.060 C 
BRANCH  10  11
HETATM   11  C4  UNL     1      21.599   0.811  52.429  1.00  0.00     0.035 C 
HETATM   12  C3  UNL     1      21.111   0.107  53.477  1.00  0.00     0.027 C 
HETATM   13  N4  UNL     1      19.826  -0.492  53.193  1.00  0.00    -0.390 N 
HETATM   14  C21 UNL     1      18.811  -0.192  52.182  1.00  0.00     0.139 C 
HETATM   15  H28 UNL     1      19.463  -1.307  53.771  1.00  0.00     0.159 HD
HETATM   16  C20 UNL     1      19.338   0.845  51.212  1.00  0.00     0.141 C 
HETATM   17  N3  UNL     1      20.800   0.860  51.253  1.00  0.00    -0.385 N 
HETATM   18  C19 UNL     1      21.539   0.927  50.015  1.00  0.00     0.149 C 
BRANCH  12  19
HETATM   19  C2  UNL     1      21.559  -0.219  54.849  1.00  0.00     0.054 C 
HETATM   20  C1  UNL     1      22.190  -1.612  54.805  1.00  0.00     0.011 C 
ENDBRANCH  12  19
ENDBRANCH  10  11
ENDBRANCH   1  10
BRANCH   8  21
HETATM   21  N2  UNL     1      25.791   0.351  53.179  1.00  0.00    -0.381 N 
HETATM   22  H13 UNL     1      25.188  -0.479  53.161  1.00  0.00     0.160 HD
BRANCH  21  23
HETATM   23  C12 UNL     1      27.159  -0.043  53.389  1.00  0.00     0.034 A 
HETATM   24  C13 UNL     1      28.051   0.786  54.040  1.00  0.00     0.029 A 
HETATM   25  C14 UNL     1      29.380   0.464  54.265  1.00  0.00     0.002 A 
HETATM   26  C15 UNL     1      29.868  -0.754  53.822  1.00  0.00     0.001 A 
HETATM   27  C16 UNL     1      29.009  -1.585  53.180  1.00  0.00     0.009 A 
HETATM   28  C17 UNL     1      27.698  -1.249  52.966  1.00  0.00    -0.036 A 
HETATM   29  C18 UNL     1      26.766  -2.182  52.252  1.00  0.00     0.050 C 
ENDBRANCH  21  23
ENDBRANCH   8  21
TORSDOF 5
ENDMDL
MODEL 3
REMARK VINA RESULT:      -8.1      2.734      4.973
REMARK  5 active torsions:
REMARK  status: ('A' for Active; 'I' for Inactive)
REMARK    1  A    between atoms: C2_2  and  C3_3 
REMARK    2  A    between atoms: C4_4  and  C5_5 
REMARK    3  A    between atoms: C5_5  and  C6_6 
REMARK    4  A    between atoms: C11_13  and  N2_14 
REMARK    5  A    between atoms: N2_14  and  C12_15 
ROOT
HETATM    1  C6  UNL     1      22.594   2.164  49.743  1.00  0.00     0.013 C 
HETATM    2  C7  UNL     1      22.170   1.870  48.320  1.00  0.00     0.116 C 
HETATM    3  C8  UNL     1      20.816   2.395  48.031  1.00  0.00     0.222 C 
HETATM    4  O1  UNL     1      20.339   3.224  47.183  1.00  0.00    -0.273 OA
HETATM    5  N1  UNL     1      19.742   1.898  48.859  1.00  0.00    -0.337 N 
HETATM    6  C9  UNL     1      19.696   1.047  50.008  1.00  0.00     0.089 C 
HETATM    7  C10 UNL     1      20.826   0.745  50.677  1.00  0.00     0.016 C 
HETATM    8  C11 UNL     1      22.314   1.010  50.654  1.00  0.00     0.116 C 
HETATM    9  H9  UNL     1      18.765   2.205  48.594  1.00  0.00     0.168 HD
ENDROOT
BRANCH   1  10
HETATM   10  C5  UNL     1      23.091   3.385  49.800  1.00  0.00     0.060 C 
BRANCH  10  11
HETATM   11  C4  UNL     1      23.670   4.656  50.138  1.00  0.00     0.035 C 
HETATM   12  C3  UNL     1      25.014   4.626  49.985  1.00  0.00     0.027 C 
HETATM   13  N4  UNL     1      25.640   5.884  50.328  1.00  0.00    -0.390 N 
HETATM   14  C21 UNL     1      25.105   7.242  50.439  1.00  0.00     0.139 C 
HETATM   15  H28 UNL     1      26.676   5.934  50.559  1.00  0.00     0.159 HD
HETATM   16  C20 UNL     1      23.598   7.218  50.294  1.00  0.00     0.141 C 
HETATM   17  N3  UNL     1      23.096   5.877  50.589  1.00  0.00    -0.385 N 
HETATM   18  C19 UNL     1      21.918   5.730  51.410  1.00  0.00     0.149 C 
BRANCH  12  19
HETATM   19  C2  UNL     1      26.022   3.629  49.561  1.00  0.00     0.054 C 
HETATM   20  C1  UNL     1      27.202   4.396  48.962  1.00  0.00     0.011 C 
ENDBRANCH  12  19
ENDBRANCH  10  11
ENDBRANCH   1  10
BRANCH   8  21
HETATM   21  N2  UNL     1      22.657   1.250  52.027  1.00  0.00    -0.381 N 
HETATM   22  H13 UNL     1      22.170   1.776  52.761  1.00  0.00     0.160 HD
BRANCH  21  23
HETATM   23  C12 UNL     1      23.870   0.684  52.555  1.00  0.00     0.034 A 
HETATM   24  C13 UNL     1      25.106   1.045  52.057  1.00  0.00     0.029 A 
HETATM   25  C14 UNL     1      26.306   0.530  52.520  1.00  0.00     0.002 A 
HETATM   26  C15 UNL     1      26.294  -0.405  53.542  1.00  0.00     0.001 A 
HETATM   27  C16 UNL     1      25.090  -0.775  54.048  1.00  0.00     0.009 A 
HETATM   28  C17 UNL     1      23.914  -0.255  53.576  1.00  0.00    -0.036 A 
HETATM   29  C18 UNL     1      22.595  -0.680  54.148  1.00  0.00     0.050 C 
ENDBRANCH  21  23
ENDBRANCH   8  21
TORSDOF 5
ENDMDL
MODEL 4
REMARK VINA RESULT:      -8.0      2.304      4.960
REMARK  5 active torsions:
REMARK  status: ('A' for Active; 'I' for Inactive)
REMARK    1  A    between atoms: C2_2  and  C3_3 
REMARK    2  A    between atoms: C4_4  and  C5_5 
REMARK    3  A    between atoms: C5_5  and  C6_6 
REMARK    4  A    between atoms: C11_13  and  N2_14 
REMARK    5  A    between atoms: N2_14  and  C12_15 
ROOT
HETATM    1  C6  UNL     1      23.415   0.527  52.498  1.00  0.00     0.013 C 
HETATM    2  C7  UNL     1      22.119  -0.212  52.245  1.00  0.00     0.116 C 
HETATM    3  C8  UNL     1      21.154  -0.020  53.351  1.00  0.00     0.222 C 
HETATM    4  O1  UNL     1      19.968   0.453  53.433  1.00  0.00    -0.273 OA
HETATM    5  N1  UNL     1      21.584  -0.443  54.663  1.00  0.00    -0.337 N 
HETATM    6  C9  UNL     1      22.821  -0.941  55.183  1.00  0.00     0.089 C 
HETATM    7  C10 UNL     1      23.949  -0.855  54.451  1.00  0.00     0.016 C 
HETATM    8  C11 UNL     1      24.450  -0.362  53.113  1.00  0.00     0.116 C 
HETATM    9  H9  UNL     1      20.862  -0.388  55.435  1.00  0.00     0.168 HD
ENDROOT
BRANCH   1  10
HETATM   10  C5  UNL     1      23.276   1.783  52.114  1.00  0.00     0.060 C 
BRANCH  10  11
HETATM   11  C4  UNL     1      23.176   3.046  51.437  1.00  0.00     0.035 C 
HETATM   12  C3  UNL     1      24.394   3.463  51.019  1.00  0.00     0.027 C 
HETATM   13  N4  UNL     1      24.341   4.740  50.343  1.00  0.00    -0.390 N 
HETATM   14  C21 UNL     1      23.238   5.465  49.710  1.00  0.00     0.139 C 
HETATM   15  H28 UNL     1      25.212   5.339  50.236  1.00  0.00     0.159 HD
HETATM   16  C20 UNL     1      21.929   4.752  49.978  1.00  0.00     0.141 C 
HETATM   17  N3  UNL     1      22.068   3.891  51.152  1.00  0.00    -0.385 N 
HETATM   18  C19 UNL     1      21.014   3.869  52.139  1.00  0.00     0.149 C 
BRANCH  12  19
HETATM   19  C2  UNL     1      25.781   2.951  51.082  1.00  0.00     0.054 C 
HETATM   20  C1  UNL     1      26.432   3.227  49.726  1.00  0.00     0.011 C 
ENDBRANCH  12  19
ENDBRANCH  10  11
ENDBRANCH   1  10
BRANCH   8  21
HETATM   21  N2  UNL     1      25.688   0.300  53.414  1.00  0.00    -0.381 N 
HETATM   22  H13 UNL     1      25.882   1.262  53.713  1.00  0.00     0.160 HD
BRANCH  21  23
HETATM   23  C12 UNL     1      26.918  -0.441  53.321  1.00  0.00     0.034 A 
HETATM   24  C13 UNL     1      26.927  -1.771  52.950  1.00  0.00     0.029 A 
HETATM   25  C14 UNL     1      28.079  -2.536  52.849  1.00  0.00     0.002 A 
HETATM   26  C15 UNL     1      29.305  -1.958  53.132  1.00  0.00     0.001 A 
HETATM   27  C16 UNL     1      29.320  -0.652  53.498  1.00  0.00     0.009 A 
HETATM   28  C17 UNL     1      28.172   0.089  53.593  1.00  0.00    -0.036 A 
HETATM   29  C18 UNL     1      28.212   1.531  54.003  1.00  0.00     0.050 C 
ENDBRANCH  21  23
ENDBRANCH   8  21
TORSDOF 5
ENDMDL
MODEL 5
REMARK VINA RESULT:      -7.9      0.788      2.197
REMARK  5 active torsions:
REMARK  status: ('A' for Active; 'I' for Inactive)
REMARK    1  A    between atoms: C2_2  and  C3_3 
REMARK    2  A    between atoms: C4_4  and  C5_5 
REMARK    3  A    between atoms: C5_5  and  C6_6 
REMARK    4  A    between atoms: C11_13  and  N2_14 
REMARK    5  A    between atoms: N2_14  and  C12_15 
ROOT
HETATM    1  C6  UNL     1      25.288   1.806  52.959  1.00  0.00     0.013 C 
HETATM    2  C7  UNL     1      26.369   2.126  53.968  1.00  0.00     0.116 C 
HETATM    3  C8  UNL     1      27.722   1.873  53.421  1.00  0.00     0.222 C 
HETATM    4  O1  UNL     1      28.761   2.594  53.233  1.00  0.00    -0.273 OA
HETATM    5  N1  UNL     1      27.997   0.525  52.982  1.00  0.00    -0.337 N 
HETATM    6  C9  UNL     1      27.198  -0.655  52.860  1.00  0.00     0.089 C 
HETATM    7  C10 UNL     1      25.856  -0.579  52.945  1.00  0.00     0.016 C 
HETATM    8  C11 UNL     1      24.744   0.425  53.149  1.00  0.00     0.116 C 
HETATM    9  H9  UNL     1      28.991   0.325  52.675  1.00  0.00     0.168 HD
ENDROOT
BRANCH   1  10
HETATM   10  C5  UNL     1      25.123   2.844  52.160  1.00  0.00     0.060 C 
BRANCH  10  11
HETATM   11  C4  UNL     1      24.713   3.834  51.203  1.00  0.00     0.035 C 
HETATM   12  C3  UNL     1      23.412   4.160  51.379  1.00  0.00     0.027 C 
HETATM   13  N4  UNL     1      22.954   5.145  50.425  1.00  0.00    -0.390 N 
HETATM   14  C21 UNL     1      23.676   6.102  49.585  1.00  0.00     0.139 C 
HETATM   15  H28 UNL     1      21.917   5.274  50.227  1.00  0.00     0.159 HD
HETATM   16  C20 UNL     1      25.167   5.855  49.686  1.00  0.00     0.141 C 
HETATM   17  N3  UNL     1      25.410   4.490  50.150  1.00  0.00    -0.385 N 
HETATM   18  C19 UNL     1      26.435   3.700  49.512  1.00  0.00     0.149 C 
BRANCH  12  19
HETATM   19  C2  UNL     1      22.322   3.762  52.297  1.00  0.00     0.054 C 
HETATM   20  C1  UNL     1      20.998   4.113  51.617  1.00  0.00     0.011 C 
ENDBRANCH  12  19
ENDBRANCH  10  11
ENDBRANCH   1  10
BRANCH   8  21
HETATM   21  N2  UNL     1      23.743   0.051  52.190  1.00  0.00    -0.381 N 
HETATM   22  H13 UNL     1      23.820  -0.190  51.195  1.00  0.00     0.160 HD
BRANCH  21  23
HETATM   23  C12 UNL     1      22.370  -0.040  52.610  1.00  0.00     0.034 A 
HETATM   24  C13 UNL     1      22.038  -0.420  53.895  1.00  0.00     0.029 A 
HETATM   25  C14 UNL     1      20.735  -0.532  54.356  1.00  0.00     0.002 A 
HETATM   26  C15 UNL     1      19.686  -0.252  53.497  1.00  0.00     0.001 A 
HETATM   27  C16 UNL     1      19.988   0.125  52.228  1.00  0.00     0.009 A 
HETATM   28  C17 UNL     1      21.282   0.229  51.792  1.00  0.00    -0.036 A 
HETATM   29  C18 UNL     1      21.594   0.645  50.385  1.00  0.00     0.050 C 
ENDBRANCH  21  23
ENDBRANCH   8  21
TORSDOF 5
ENDMDL
MODEL 6
REMARK VINA RESULT:      -7.7      2.931      6.781
REMARK  5 active torsions:
REMARK  status: ('A' for Active; 'I' for Inactive)
REMARK    1  A    between atoms: C2_2  and  C3_3 
REMARK    2  A    between atoms: C4_4  and  C5_5 
REMARK    3  A    between atoms: C5_5  and  C6_6 
REMARK    4  A    between atoms: C11_13  and  N2_14 
REMARK    5  A    between atoms: N2_14  and  C12_15 
ROOT
HETATM    1  C6  UNL     1      21.594   2.385  52.023  1.00  0.00     0.013 C 
HETATM    2  C7  UNL     1      20.852   3.663  52.347  1.00  0.00     0.116 C 
HETATM    3  C8  UNL     1      20.171   4.218  51.155  1.00  0.00     0.222 C 
HETATM    4  O1  UNL     1      18.957   4.498  50.866  1.00  0.00    -0.273 OA
HETATM    5  N1  UNL     1      21.011   4.541  50.025  1.00  0.00    -0.337 N 
HETATM    6  C9  UNL     1      22.401   4.351  49.744  1.00  0.00     0.089 C 
HETATM    7  C10 UNL     1      23.147   3.540  50.518  1.00  0.00     0.016 C 
HETATM    8  C11 UNL     1      23.039   2.642  51.730  1.00  0.00     0.116 C 
HETATM    9  H9  UNL     1      20.537   5.020  49.209  1.00  0.00     0.168 HD
ENDROOT
BRANCH   1  10
HETATM   10  C5  UNL     1      20.750   1.372  52.075  1.00  0.00     0.060 C 
BRANCH  10  11
HETATM   11  C4  UNL     1      19.728   0.402  52.360  1.00  0.00     0.035 C 
HETATM   12  C3  UNL     1      20.043  -0.315  53.463  1.00  0.00     0.027 C 
HETATM   13  N4  UNL     1      19.046  -1.314  53.778  1.00  0.00    -0.390 N 
HETATM   14  C21 UNL     1      17.642  -1.449  53.387  1.00  0.00     0.139 C 
HETATM   15  H28 UNL     1      19.280  -2.142  54.401  1.00  0.00     0.159 HD
HETATM   16  C20 UNL     1      17.288  -0.398  52.356  1.00  0.00     0.141 C 
HETATM   17  N3  UNL     1      18.506   0.083  51.705  1.00  0.00    -0.385 N 
HETATM   18  C19 UNL     1      18.516   0.261  50.273  1.00  0.00     0.149 C 
BRANCH  12  19
HETATM   19  C2  UNL     1      21.157  -0.350  54.436  1.00  0.00     0.054 C 
HETATM   20  C1  UNL     1      21.684  -1.785  54.478  1.00  0.00     0.011 C 
ENDBRANCH  12  19
ENDBRANCH  10  11
ENDBRANCH   1  10
BRANCH   8  21
HETATM   21  N2  UNL     1      23.783   1.467  51.374  1.00  0.00    -0.381 N 
HETATM   22  H13 UNL     1      23.725   0.856  50.551  1.00  0.00     0.160 HD
BRANCH  21  23
HETATM   23  C12 UNL     1      24.820   1.001  52.256  1.00  0.00     0.034 A 
HETATM   24  C13 UNL     1      24.530   0.191  53.336  1.00  0.00     0.029 A 
HETATM   25  C14 UNL     1      25.483  -0.284  54.224  1.00  0.00     0.002 A 
HETATM   26  C15 UNL     1      26.812   0.059  54.040  1.00  0.00     0.001 A 
HETATM   27  C16 UNL     1      27.121   0.855  52.984  1.00  0.00     0.009 A 
HETATM   28  C17 UNL     1      26.164   1.314  52.118  1.00  0.00    -0.036 A 
HETATM   29  C18 UNL     1      26.527   2.195  50.959  1.00  0.00     0.050 C 
ENDBRANCH  21  23
ENDBRANCH   8  21
TORSDOF 5
ENDMDL
MODEL 7
REMARK VINA RESULT:      -7.7      2.275      6.230
REMARK  5 active torsions:
REMARK  status: ('A' for Active; 'I' for Inactive)
REMARK    1  A    between atoms: C2_2  and  C3_3 
REMARK    2  A    between atoms: C4_4  and  C5_5 
REMARK    3  A    between atoms: C5_5  and  C6_6 
REMARK    4  A    between atoms: C11_13  and  N2_14 
REMARK    5  A    between atoms: N2_14  and  C12_15 
ROOT
HETATM    1  C6  UNL     1      24.251   2.200  52.929  1.00  0.00     0.013 C 
HETATM    2  C7  UNL     1      24.025   3.655  52.582  1.00  0.00     0.116 C 
HETATM    3  C8  UNL     1      23.769   3.840  51.135  1.00  0.00     0.222 C 
HETATM    4  O1  UNL     1      22.804   4.328  50.452  1.00  0.00    -0.273 OA
HETATM    5  N1  UNL     1      24.803   3.389  50.234  1.00  0.00    -0.337 N 
HETATM    6  C9  UNL     1      26.036   2.686  50.421  1.00  0.00     0.089 C 
HETATM    7  C10 UNL     1      26.306   2.088  51.597  1.00  0.00     0.016 C 
HETATM    8  C11 UNL     1      25.707   1.858  52.966  1.00  0.00     0.116 C 
HETATM    9  H9  UNL     1      24.658   3.603  49.208  1.00  0.00     0.168 HD
ENDROOT
BRANCH   1  10
HETATM   10  C5  UNL     1      23.081   1.611  53.095  1.00  0.00     0.060 C 
BRANCH  10  11
HETATM   11  C4  UNL     1      21.963   0.751  53.370  1.00  0.00     0.035 C 
HETATM   12  C3  UNL     1      20.802   1.343  53.005  1.00  0.00     0.027 C 
HETATM   13  N4  UNL     1      19.648   0.517  53.278  1.00  0.00    -0.390 N 
HETATM   14  C21 UNL     1      19.510  -0.922  53.509  1.00  0.00     0.139 C 
HETATM   15  H28 UNL     1      18.676   0.940  53.342  1.00  0.00     0.159 HD
HETATM   16  C20 UNL     1      20.878  -1.564  53.605  1.00  0.00     0.141 C 
HETATM   17  N3  UNL     1      21.876  -0.549  53.940  1.00  0.00    -0.385 N 
HETATM   18  C19 UNL     1      22.879  -0.848  54.934  1.00  0.00     0.149 C 
BRANCH  12  19
HETATM   19  C2  UNL     1      20.403   2.633  52.399  1.00  0.00     0.054 C 
HETATM   20  C1  UNL     1      19.041   2.424  51.734  1.00  0.00     0.011 C 
ENDBRANCH  12  19
ENDBRANCH  10  11
ENDBRANCH   1  10
BRANCH   8  21
HETATM   21  N2  UNL     1      25.979   0.477  53.249  1.00  0.00    -0.381 N 
HETATM   22  H13 UNL     1      25.348  -0.324  53.363  1.00  0.00     0.160 HD
BRANCH  21  23
HETATM   23  C12 UNL     1      27.344   0.049  53.403  1.00  0.00     0.034 A 
HETATM   24  C13 UNL     1      28.296   0.880  53.959  1.00  0.00     0.029 A 
HETATM   25  C14 UNL     1      29.626   0.526  54.127  1.00  0.00     0.002 A 
HETATM   26  C15 UNL     1      30.051  -0.728  53.722  1.00  0.00     0.001 A 
HETATM   27  C16 UNL     1      29.132  -1.562  53.173  1.00  0.00     0.009 A 
HETATM   28  C17 UNL     1      27.822  -1.194  53.014  1.00  0.00    -0.036 A 
HETATM   29  C18 UNL     1      26.823  -2.131  52.403  1.00  0.00     0.050 C 
ENDBRANCH  21  23
ENDBRANCH   8  21
TORSDOF 5
ENDMDL
MODEL 8
REMARK VINA RESULT:      -7.4      2.408      4.222
REMARK  5 active torsions:
REMARK  status: ('A' for Active; 'I' for Inactive)
REMARK    1  A    between atoms: C2_2  and  C3_3 
REMARK    2  A    between atoms: C4_4  and  C5_5 
REMARK    3  A    between atoms: C5_5  and  C6_6 
REMARK    4  A    between atoms: C11_13  and  N2_14 
REMARK    5  A    between atoms: N2_14  and  C12_15 
ROOT
HETATM    1  C6  UNL     1      23.647   3.404  50.720  1.00  0.00     0.013 C 
HETATM    2  C7  UNL     1      24.246   4.785  50.883  1.00  0.00     0.116 C 
HETATM    3  C8  UNL     1      25.443   4.968  50.031  1.00  0.00     0.222 C 
HETATM    4  O1  UNL     1      25.763   5.784  49.100  1.00  0.00    -0.273 OA
HETATM    5  N1  UNL     1      26.536   4.050  50.250  1.00  0.00    -0.337 N 
HETATM    6  C9  UNL     1      26.701   2.891  51.073  1.00  0.00     0.089 C 
HETATM    7  C10 UNL     1      25.632   2.314  51.656  1.00  0.00     0.016 C 
HETATM    8  C11 UNL     1      24.133   2.461  51.775  1.00  0.00     0.116 C 
HETATM    9  H9  UNL     1      27.423   4.237  49.704  1.00  0.00     0.168 HD
ENDROOT
BRANCH   1  10
HETATM   10  C5  UNL     1      22.855   3.401  49.664  1.00  0.00     0.060 C 
BRANCH  10  11
HETATM   11  C4  UNL     1      21.801   3.508  48.692  1.00  0.00     0.035 C 
HETATM   12  C3  UNL     1      21.058   2.377  48.666  1.00  0.00     0.027 C 
HETATM   13  N4  UNL     1      19.993   2.436  47.691  1.00  0.00    -0.390 N 
HETATM   14  C21 UNL     1      19.344   3.564  47.020  1.00  0.00     0.139 C 
HETATM   15  H28 UNL     1      19.531   1.549  47.331  1.00  0.00     0.159 HD
HETATM   16  C20 UNL     1      20.070   4.851  47.353  1.00  0.00     0.141 C 
HETATM   17  N3  UNL     1      21.431   4.548  47.796  1.00  0.00    -0.385 N 
HETATM   18  C19 UNL     1      22.527   5.348  47.302  1.00  0.00     0.149 C 
BRANCH  12  19
HETATM   19  C2  UNL     1      21.058   1.079  49.377  1.00  0.00     0.054 C 
HETATM   20  C1  UNL     1      19.692   0.926  50.049  1.00  0.00     0.011 C 
ENDBRANCH  12  19
ENDBRANCH  10  11
ENDBRANCH   1  10
BRANCH   8  21
HETATM   21  N2  UNL     1      23.629   1.123  51.642  1.00  0.00    -0.381 N 
HETATM   22  H13 UNL     1      23.669   0.463  50.857  1.00  0.00     0.160 HD
BRANCH  21  23
HETATM   23  C12 UNL     1      22.949   0.517  52.756  1.00  0.00     0.034 A 
HETATM   24  C13 UNL     1      21.635   0.827  53.047  1.00  0.00     0.029 A 
HETATM   25  C14 UNL     1      20.930   0.281  54.109  1.00  0.00     0.002 A 
HETATM   26  C15 UNL     1      21.557  -0.630  54.943  1.00  0.00     0.001 A 
HETATM   27  C16 UNL     1      22.849  -0.949  54.676  1.00  0.00     0.009 A 
HETATM   28  C17 UNL     1      23.529  -0.399  53.621  1.00  0.00    -0.036 A 
HETATM   29  C18 UNL     1      24.957  -0.765  53.346  1.00  0.00     0.050 C 
ENDBRANCH  21  23
ENDBRANCH   8  21
TORSDOF 5
ENDMDL
MODEL 9
REMARK VINA RESULT:      -7.4      2.517      7.116
REMARK  5 active torsions:
REMARK  status: ('A' for Active; 'I' for Inactive)
REMARK    1  A    between atoms: C2_2  and  C3_3 
REMARK    2  A    between atoms: C4_4  and  C5_5 
REMARK    3  A    between atoms: C5_5  and  C6_6 
REMARK    4  A    between atoms: C11_13  and  N2_14 
REMARK    5  A    between atoms: N2_14  and  C12_15 
ROOT
HETATM    1  C6  UNL     1      22.397   3.329  51.186  1.00  0.00     0.013 C 
HETATM    2  C7  UNL     1      20.970   3.342  50.683  1.00  0.00     0.116 C 
HETATM    3  C8  UNL     1      20.785   2.425  49.535  1.00  0.00     0.222 C 
HETATM    4  O1  UNL     1      20.039   1.411  49.309  1.00  0.00    -0.273 OA
HETATM    5  N1  UNL     1      21.602   2.677  48.371  1.00  0.00    -0.337 N 
HETATM    6  C9  UNL     1      22.666   3.593  48.092  1.00  0.00     0.089 C 
HETATM    7  C10 UNL     1      23.258   4.272  49.094  1.00  0.00     0.016 C 
HETATM    8  C11 UNL     1      23.203   4.442  50.595  1.00  0.00     0.116 C 
HETATM    9  H9  UNL     1      21.406   2.078  47.521  1.00  0.00     0.168 HD
ENDROOT
BRANCH   1  10
HETATM   10  C5  UNL     1      22.552   2.314  52.015  1.00  0.00     0.060 C 
BRANCH  10  11
HETATM   11  C4  UNL     1      22.451   1.149  52.851  1.00  0.00     0.035 C 
HETATM   12  C3  UNL     1      23.664   0.573  53.018  1.00  0.00     0.027 C 
HETATM   13  N4  UNL     1      23.605  -0.613  53.842  1.00  0.00    -0.390 N 
HETATM   14  C21 UNL     1      22.609  -1.085  54.805  1.00  0.00     0.139 C 
HETATM   15  H28 UNL     1      24.383  -1.337  53.815  1.00  0.00     0.159 HD
HETATM   16  C20 UNL     1      21.388  -0.190  54.767  1.00  0.00     0.141 C 
HETATM   17  N3  UNL     1      21.344   0.529  53.494  1.00  0.00    -0.385 N 
HETATM   18  C19 UNL     1      20.088   0.640  52.790  1.00  0.00     0.149 C 
BRANCH  12  19
HETATM   19  C2  UNL     1      25.047   0.839  52.565  1.00  0.00     0.054 C 
HETATM   20  C1  UNL     1      25.685   1.792  53.576  1.00  0.00     0.011 C 
ENDBRANCH  12  19
ENDBRANCH  10  11
ENDBRANCH   1  10
BRANCH   8  21
HETATM   21  N2  UNL     1      24.579   4.453  51.005  1.00  0.00    -0.381 N 
HETATM   22  H13 UNL     1      25.030   4.104  51.858  1.00  0.00     0.160 HD
BRANCH  21  23
HETATM   23  C12 UNL     1      25.567   5.019  50.126  1.00  0.00     0.034 A 
HETATM   24  C13 UNL     1      25.590   6.372  49.851  1.00  0.00     0.029 A 
HETATM   25  C14 UNL     1      26.513   6.973  49.009  1.00  0.00     0.002 A 
HETATM   26  C15 UNL     1      27.479   6.195  48.395  1.00  0.00     0.001 A 
HETATM   27  C16 UNL     1      27.476   4.862  48.651  1.00  0.00     0.009 A 
HETATM   28  C17 UNL     1      26.556   4.286  49.486  1.00  0.00    -0.036 A 
HETATM   29  C18 UNL     1      26.569   2.810  49.753  1.00  0.00     0.050 C 
ENDBRANCH  21  23
ENDBRANCH   8  21
TORSDOF 5
ENDMDL
