MODEL 1
REMARK VINA RESULT:      -8.7      0.000      0.000
REMARK  3 active torsions:
REMARK  status: ('A' for Active; 'I' for Inactive)
REMARK    1  A    between atoms: S1_2  and  N1_6 
REMARK    2  A    between atoms: N1_6  and  C3_7 
REMARK    3  A    between atoms: C8_14  and  N4_15 
ROOT
HETATM    1  C1  UNL     1      23.783   4.360  52.249  1.00  0.00     0.146 C 
HETATM    2  S1  UNL     1      24.177   3.577  50.708  1.00  0.00     0.095 S 
HETATM    3  O1  UNL     1      23.740   4.531  49.607  1.00  0.00    -0.242 OA
HETATM    4  C2  UNL     1      25.708   3.391  50.535  1.00  0.00     0.304 C 
HETATM    5  O2  UNL     1      26.916   3.187  50.602  1.00  0.00    -0.272 OA
ENDROOT
BRANCH   2   6
HETATM    6  N1  UNL     1      23.293   2.094  50.602  1.00  0.00    -0.310 N 
HETATM    7  H4  UNL     1      22.932   1.783  49.672  1.00  0.00     0.176 HD
BRANCH   6   8
HETATM    8  C3  UNL     1      23.065   1.326  51.753  1.00  0.00     0.040 A 
HETATM    9  C4  UNL     1      21.769   1.231  52.263  1.00  0.00     0.032 A 
HETATM   10  C5  UNL     1      21.498   0.482  53.401  1.00  0.00     0.035 A 
HETATM   11  C6  UNL     1      22.527  -0.198  54.062  1.00  0.00     0.072 A 
HETATM   12  N2  UNL     1      22.377  -0.935  55.159  1.00  0.00    -0.241 NA
HETATM   13  C15 UNL     1      23.768  -0.047  53.489  1.00  0.00     0.041 A 
HETATM   14  C7  UNL     1      23.368  -1.576  55.790  1.00  0.00     0.236 A 
HETATM   15  N3  UNL     1      24.618  -1.453  55.251  1.00  0.00    -0.224 NA
HETATM   16  C8  UNL     1      24.795  -0.703  54.128  1.00  0.00     0.140 A 
HETATM   17  C16 UNL     1      24.121   0.671  52.372  1.00  0.00     0.047 A 
BRANCH  16  18
HETATM   18  N4  UNL     1      26.153  -0.799  53.772  1.00  0.00    -0.355 N 
HETATM   19  C9  UNL     1      26.937  -1.773  52.520  1.00  0.00     0.205 A 
HETATM   20  C10 UNL     1      28.016  -1.144  53.043  1.00  0.00    -0.151 A 
HETATM   21  C11 UNL     1      28.820  -0.654  53.456  1.00  0.00     0.042 A 
HETATM   22  C12 UNL     1      29.812  -0.028  53.991  1.00  0.00     0.021 A 
HETATM   23  C13 UNL     1      28.425   0.275  54.581  1.00  0.00     0.032 A 
HETATM   24  C14 UNL     1      26.890   0.129  54.684  1.00  0.00     0.132 A 
ENDBRANCH  16  18
ENDBRANCH   6   8
ENDBRANCH   2   6
TORSDOF 3
ENDMDL
MODEL 2
REMARK VINA RESULT:      -8.2      2.734      5.604
REMARK  3 active torsions:
REMARK  status: ('A' for Active; 'I' for Inactive)
REMARK    1  A    between atoms: S1_2  and  N1_6 
REMARK    2  A    between atoms: N1_6  and  C3_7 
REMARK    3  A    between atoms: C8_14  and  N4_15 
ROOT
HETATM    1  C1  UNL     1      27.108   0.508  51.847  1.00  0.00     0.146 C 
HETATM    2  S1  UNL     1      27.322  -0.760  53.068  1.00  0.00     0.095 S 
HETATM    3  O1  UNL     1      26.787  -2.048  52.461  1.00  0.00    -0.242 OA
HETATM    4  C2  UNL     1      28.823  -1.017  53.369  1.00  0.00     0.304 C 
HETATM    5  O2  UNL     1      30.028  -1.009  53.600  1.00  0.00    -0.272 OA
ENDROOT
BRANCH   2   6
HETATM    6  N1  UNL     1      26.408  -0.334  54.472  1.00  0.00    -0.310 N 
HETATM    7  H4  UNL     1      26.900   0.099  55.287  1.00  0.00     0.176 HD
BRANCH   6   8
HETATM    8  C3  UNL     1      25.026  -0.569  54.512  1.00  0.00     0.040 A 
HETATM    9  C4  UNL     1      24.491  -1.310  55.568  1.00  0.00     0.032 A 
HETATM   10  C5  UNL     1      23.129  -1.568  55.647  1.00  0.00     0.035 A 
HETATM   11  C6  UNL     1      22.260  -1.086  54.662  1.00  0.00     0.072 A 
HETATM   12  N2  UNL     1      20.944  -1.281  54.639  1.00  0.00    -0.241 NA
HETATM   13  C15 UNL     1      22.874  -0.368  53.663  1.00  0.00     0.041 A 
HETATM   14  C7  UNL     1      20.120  -0.823  53.690  1.00  0.00     0.236 A 
HETATM   15  N3  UNL     1      20.691  -0.103  52.678  1.00  0.00    -0.224 NA
HETATM   16  C8  UNL     1      22.037   0.110  52.681  1.00  0.00     0.140 A 
HETATM   17  C16 UNL     1      24.206  -0.069  53.509  1.00  0.00     0.047 A 
BRANCH  16  18
HETATM   18  N4  UNL     1      22.334   0.916  51.567  1.00  0.00    -0.355 N 
HETATM   19  C9  UNL     1      23.490   2.245  51.399  1.00  0.00     0.205 A 
HETATM   20  C10 UNL     1      22.970   2.223  50.149  1.00  0.00    -0.151 A 
HETATM   21  C11 UNL     1      22.559   2.187  49.207  1.00  0.00     0.042 A 
HETATM   22  C12 UNL     1      22.029   2.121  48.034  1.00  0.00     0.021 A 
HETATM   23  C13 UNL     1      21.513   1.105  49.065  1.00  0.00     0.032 A 
HETATM   24  C14 UNL     1      21.458   0.434  50.456  1.00  0.00     0.132 A 
ENDBRANCH  16  18
ENDBRANCH   6   8
ENDBRANCH   2   6
TORSDOF 3
ENDMDL
MODEL 3
REMARK VINA RESULT:      -7.9      2.746      6.310
REMARK  3 active torsions:
REMARK  status: ('A' for Active; 'I' for Inactive)
REMARK    1  A    between atoms: S1_2  and  N1_6 
REMARK    2  A    between atoms: N1_6  and  C3_7 
REMARK    3  A    between atoms: C8_14  and  N4_15 
ROOT
HETATM    1  C1  UNL     1      29.139  -0.997  53.678  1.00  0.00     0.146 C 
HETATM    2  S1  UNL     1      27.760   0.115  53.764  1.00  0.00     0.095 S 
HETATM    3  O1  UNL     1      26.927  -0.312  54.961  1.00  0.00    -0.242 OA
HETATM    4  C2  UNL     1      28.216   1.570  54.053  1.00  0.00     0.304 C 
HETATM    5  O2  UNL     1      28.732   2.680  54.143  1.00  0.00    -0.272 OA
ENDROOT
BRANCH   2   6
HETATM    6  N1  UNL     1      26.840  -0.036  52.308  1.00  0.00    -0.310 N 
HETATM    7  H4  UNL     1      26.915  -0.915  51.748  1.00  0.00     0.176 HD
BRANCH   6   8
HETATM    8  C3  UNL     1      26.008   1.013  51.888  1.00  0.00     0.040 A 
HETATM    9  C4  UNL     1      26.562   2.079  51.177  1.00  0.00     0.032 A 
HETATM   10  C5  UNL     1      25.775   3.139  50.744  1.00  0.00     0.035 A 
HETATM   11  C6  UNL     1      24.402   3.157  51.013  1.00  0.00     0.072 A 
HETATM   12  N2  UNL     1      23.563   4.123  50.650  1.00  0.00    -0.241 NA
HETATM   13  C15 UNL     1      23.946   2.067  51.717  1.00  0.00     0.041 A 
HETATM   14  C7  UNL     1      22.252   4.137  50.918  1.00  0.00     0.236 A 
HETATM   15  N3  UNL     1      21.758   3.070  51.615  1.00  0.00    -0.224 NA
HETATM   16  C8  UNL     1      22.599   2.069  51.997  1.00  0.00     0.140 A 
HETATM   17  C16 UNL     1      24.651   0.983  52.182  1.00  0.00     0.047 A 
BRANCH  16  18
HETATM   18  N4  UNL     1      21.818   1.091  52.640  1.00  0.00    -0.355 N 
HETATM   19  C9  UNL     1      22.193   0.074  54.039  1.00  0.00     0.205 A 
HETATM   20  C10 UNL     1      20.939  -0.355  53.761  1.00  0.00    -0.151 A 
HETATM   21  C11 UNL     1      19.986  -0.665  53.531  1.00  0.00     0.042 A 
HETATM   22  C12 UNL     1      18.791  -1.037  53.222  1.00  0.00     0.021 A 
HETATM   23  C13 UNL     1      19.404   0.065  52.342  1.00  0.00     0.032 A 
HETATM   24  C14 UNL     1      20.516   1.046  51.907  1.00  0.00     0.132 A 
ENDBRANCH  16  18
ENDBRANCH   6   8
ENDBRANCH   2   6
TORSDOF 3
ENDMDL
MODEL 4
REMARK VINA RESULT:      -7.9      1.526      2.410
REMARK  3 active torsions:
REMARK  status: ('A' for Active; 'I' for Inactive)
REMARK    1  A    between atoms: S1_2  and  N1_6 
REMARK    2  A    between atoms: N1_6  and  C3_7 
REMARK    3  A    between atoms: C8_14  and  N4_15 
ROOT
HETATM    1  C1  UNL     1      26.344   3.518  49.720  1.00  0.00     0.146 C 
HETATM    2  S1  UNL     1      25.162   4.801  50.035  1.00  0.00     0.095 S 
HETATM    3  O1  UNL     1      25.896   6.123  49.875  1.00  0.00    -0.242 OA
HETATM    4  C2  UNL     1      24.028   4.807  48.975  1.00  0.00     0.304 C 
HETATM    5  O2  UNL     1      23.138   4.601  48.156  1.00  0.00    -0.272 OA
ENDROOT
BRANCH   2   6
HETATM    6  N1  UNL     1      24.581   4.630  51.654  1.00  0.00    -0.310 N 
HETATM    7  H4  UNL     1      24.752   5.400  52.340  1.00  0.00     0.176 HD
BRANCH   6   8
HETATM    8  C3  UNL     1      23.892   3.469  52.037  1.00  0.00     0.040 A 
HETATM    9  C4  UNL     1      22.512   3.398  51.834  1.00  0.00     0.032 A 
HETATM   10  C5  UNL     1      21.790   2.269  52.198  1.00  0.00     0.035 A 
HETATM   11  C6  UNL     1      22.437   1.173  52.780  1.00  0.00     0.072 A 
HETATM   12  N2  UNL     1      21.840   0.051  53.171  1.00  0.00    -0.241 NA
HETATM   13  C15 UNL     1      23.793   1.333  52.942  1.00  0.00     0.041 A 
HETATM   14  C7  UNL     1      22.464  -0.991  53.733  1.00  0.00     0.236 A 
HETATM   15  N3  UNL     1      23.814  -0.873  53.910  1.00  0.00    -0.224 NA
HETATM   16  C8  UNL     1      24.447   0.268  53.517  1.00  0.00     0.140 A 
HETATM   17  C16 UNL     1      24.580   2.409  52.611  1.00  0.00     0.047 A 
BRANCH  16  18
HETATM   18  N4  UNL     1      25.820   0.090  53.766  1.00  0.00    -0.355 N 
HETATM   19  C9  UNL     1      26.878   0.893  54.936  1.00  0.00     0.205 A 
HETATM   20  C10 UNL     1      27.765   0.058  54.346  1.00  0.00    -0.151 A 
HETATM   21  C11 UNL     1      28.421  -0.586  53.882  1.00  0.00     0.042 A 
HETATM   22  C12 UNL     1      29.223  -1.400  53.286  1.00  0.00     0.021 A 
HETATM   23  C13 UNL     1      27.761  -1.422  52.810  1.00  0.00     0.032 A 
HETATM   24  C14 UNL     1      26.283  -0.971  52.820  1.00  0.00     0.132 A 
ENDBRANCH  16  18
ENDBRANCH   6   8
ENDBRANCH   2   6
TORSDOF 3
ENDMDL
MODEL 5
REMARK VINA RESULT:      -7.8      2.132      2.741
REMARK  3 active torsions:
REMARK  status: ('A' for Active; 'I' for Inactive)
REMARK    1  A    between atoms: S1_2  and  N1_6 
REMARK    2  A    between atoms: N1_6  and  C3_7 
REMARK    3  A    between atoms: C8_14  and  N4_15 
ROOT
HETATM    1  C1  UNL     1      20.544   3.541  48.730  1.00  0.00     0.146 C 
HETATM    2  S1  UNL     1      21.144   3.081  50.333  1.00  0.00     0.095 S 
HETATM    3  O1  UNL     1      22.375   3.931  50.602  1.00  0.00    -0.242 OA
HETATM    4  C2  UNL     1      20.124   3.435  51.449  1.00  0.00     0.304 C 
HETATM    5  O2  UNL     1      19.172   3.643  52.195  1.00  0.00    -0.272 OA
ENDROOT
BRANCH   2   6
HETATM    6  N1  UNL     1      21.567   1.404  50.303  1.00  0.00    -0.310 N 
HETATM    7  H4  UNL     1      21.710   0.933  49.381  1.00  0.00     0.176 HD
BRANCH   6   8
HETATM    8  C3  UNL     1      21.713   0.693  51.503  1.00  0.00     0.040 A 
HETATM    9  C4  UNL     1      20.583   0.134  52.105  1.00  0.00     0.032 A 
HETATM   10  C5  UNL     1      20.681  -0.577  53.294  1.00  0.00     0.035 A 
HETATM   11  C6  UNL     1      21.923  -0.750  53.914  1.00  0.00     0.072 A 
HETATM   12  N2  UNL     1      22.125  -1.407  55.054  1.00  0.00    -0.241 NA
HETATM   13  C15 UNL     1      22.977  -0.167  53.251  1.00  0.00     0.041 A 
HETATM   14  C7  UNL     1      23.316  -1.562  55.645  1.00  0.00     0.236 A 
HETATM   15  N3  UNL     1      24.390  -0.998  55.016  1.00  0.00    -0.224 NA
HETATM   16  C8  UNL     1      24.207  -0.322  53.848  1.00  0.00     0.140 A 
HETATM   17  C16 UNL     1      22.968   0.550  52.079  1.00  0.00     0.047 A 
BRANCH  16  18
HETATM   18  N4  UNL     1      25.475   0.097  53.405  1.00  0.00    -0.355 N 
HETATM   19  C9  UNL     1      26.564  -0.633  52.216  1.00  0.00     0.205 A 
HETATM   20  C10 UNL     1      27.297   0.445  52.581  1.00  0.00    -0.151 A 
HETATM   21  C11 UNL     1      27.836   1.271  52.875  1.00  0.00     0.042 A 
HETATM   22  C12 UNL     1      28.492   2.312  53.259  1.00  0.00     0.021 A 
HETATM   23  C13 UNL     1      27.116   2.101  53.913  1.00  0.00     0.032 A 
HETATM   24  C14 UNL     1      25.782   1.358  54.147  1.00  0.00     0.132 A 
ENDBRANCH  16  18
ENDBRANCH   6   8
ENDBRANCH   2   6
TORSDOF 3
ENDMDL
MODEL 6
REMARK VINA RESULT:      -7.5      1.987      2.692
REMARK  3 active torsions:
REMARK  status: ('A' for Active; 'I' for Inactive)
REMARK    1  A    between atoms: S1_2  and  N1_6 
REMARK    2  A    between atoms: N1_6  and  C3_7 
REMARK    3  A    between atoms: C8_14  and  N4_15 
ROOT
HETATM    1  C1  UNL     1      24.641   6.415  50.974  1.00  0.00     0.146 C 
HETATM    2  S1  UNL     1      25.553   5.592  49.695  1.00  0.00     0.095 S 
HETATM    3  O1  UNL     1      24.561   5.264  48.591  1.00  0.00    -0.242 OA
HETATM    4  C2  UNL     1      26.614   6.528  49.057  1.00  0.00     0.304 C 
HETATM    5  O2  UNL     1      27.491   7.330  48.750  1.00  0.00    -0.272 OA
ENDROOT
BRANCH   2   6
HETATM    6  N1  UNL     1      26.228   4.140  50.347  1.00  0.00    -0.310 N 
HETATM    7  H4  UNL     1      27.263   4.002  50.317  1.00  0.00     0.176 HD
BRANCH   6   8
HETATM    8  C3  UNL     1      25.391   3.162  50.905  1.00  0.00     0.040 A 
HETATM    9  C4  UNL     1      24.036   3.152  50.567  1.00  0.00     0.032 A 
HETATM   10  C5  UNL     1      23.170   2.204  51.097  1.00  0.00     0.035 A 
HETATM   11  C6  UNL     1      23.644   1.232  51.986  1.00  0.00     0.072 A 
HETATM   12  N2  UNL     1      22.901   0.286  52.553  1.00  0.00    -0.241 NA
HETATM   13  C15 UNL     1      24.989   1.320  52.260  1.00  0.00     0.041 A 
HETATM   14  C7  UNL     1      23.361  -0.635  53.409  1.00  0.00     0.236 A 
HETATM   15  N3  UNL     1      24.693  -0.584  53.707  1.00  0.00    -0.224 NA
HETATM   16  C8  UNL     1      25.473   0.376  53.137  1.00  0.00     0.140 A 
HETATM   17  C16 UNL     1      25.910   2.221  51.783  1.00  0.00     0.047 A 
BRANCH  16  18
HETATM   18  N4  UNL     1      26.792   0.157  53.576  1.00  0.00    -0.355 N 
HETATM   19  C9  UNL     1      27.762   1.049  54.757  1.00  0.00     0.205 A 
HETATM   20  C10 UNL     1      28.649   0.094  54.393  1.00  0.00    -0.151 A 
HETATM   21  C11 UNL     1      29.307  -0.641  54.101  1.00  0.00     0.042 A 
HETATM   22  C12 UNL     1      30.112  -1.572  53.717  1.00  0.00     0.021 A 
HETATM   23  C13 UNL     1      28.718  -1.576  53.068  1.00  0.00     0.032 A 
HETATM   24  C14 UNL     1      27.285  -1.045  52.837  1.00  0.00     0.132 A 
ENDBRANCH  16  18
ENDBRANCH   6   8
ENDBRANCH   2   6
TORSDOF 3
ENDMDL
MODEL 7
REMARK VINA RESULT:      -7.4      2.837      6.098
REMARK  3 active torsions:
REMARK  status: ('A' for Active; 'I' for Inactive)
REMARK    1  A    between atoms: S1_2  and  N1_6 
REMARK    2  A    between atoms: N1_6  and  C3_7 
REMARK    3  A    between atoms: C8_14  and  N4_15 
ROOT
HETATM    1  C1  UNL     1      29.073   0.801  54.452  1.00  0.00     0.146 C 
HETATM    2  S1  UNL     1      27.452   0.679  53.744  1.00  0.00     0.095 S 
HETATM    3  O1  UNL     1      27.575  -0.209  52.517  1.00  0.00    -0.242 OA
HETATM    4  C2  UNL     1      26.464  -0.042  54.700  1.00  0.00     0.304 C 
HETATM    5  O2  UNL     1      25.774  -0.497  55.607  1.00  0.00    -0.272 OA
ENDROOT
BRANCH   2   6
HETATM    6  N1  UNL     1      26.928   2.263  53.289  1.00  0.00    -0.310 N 
HETATM    7  H4  UNL     1      27.256   3.085  53.844  1.00  0.00     0.176 HD
BRANCH   6   8
HETATM    8  C3  UNL     1      26.074   2.434  52.190  1.00  0.00     0.040 A 
HETATM    9  C4  UNL     1      26.575   3.011  51.021  1.00  0.00     0.032 A 
HETATM   10  C5  UNL     1      25.765   3.201  49.909  1.00  0.00     0.035 A 
HETATM   11  C6  UNL     1      24.420   2.813  49.940  1.00  0.00     0.072 A 
HETATM   12  N2  UNL     1      23.559   2.955  48.936  1.00  0.00    -0.241 NA
HETATM   13  C15 UNL     1      24.015   2.255  51.130  1.00  0.00     0.041 A 
HETATM   14  C7  UNL     1      22.273   2.589  48.975  1.00  0.00     0.236 A 
HETATM   15  N3  UNL     1      21.831   2.028  50.140  1.00  0.00    -0.224 NA
HETATM   16  C8  UNL     1      22.695   1.872  51.182  1.00  0.00     0.140 A 
HETATM   17  C16 UNL     1      24.747   2.033  52.271  1.00  0.00     0.047 A 
BRANCH  16  18
HETATM   18  N4  UNL     1      21.991   1.228  52.215  1.00  0.00    -0.355 N 
HETATM   19  C9  UNL     1      20.659   1.815  53.223  1.00  0.00     0.205 A 
HETATM   20  C10 UNL     1      20.810   0.569  53.729  1.00  0.00    -0.151 A 
HETATM   21  C11 UNL     1      20.944  -0.383  54.098  1.00  0.00     0.042 A 
HETATM   22  C12 UNL     1      21.131  -1.578  54.543  1.00  0.00     0.021 A 
HETATM   23  C13 UNL     1      22.051  -1.133  53.394  1.00  0.00     0.032 A 
HETATM   24  C14 UNL     1      22.583  -0.139  52.337  1.00  0.00     0.132 A 
ENDBRANCH  16  18
ENDBRANCH   6   8
ENDBRANCH   2   6
TORSDOF 3
ENDMDL
MODEL 8
REMARK VINA RESULT:      -7.3      3.327      6.607
REMARK  3 active torsions:
REMARK  status: ('A' for Active; 'I' for Inactive)
REMARK    1  A    between atoms: S1_2  and  N1_6 
REMARK    2  A    between atoms: N1_6  and  C3_7 
REMARK    3  A    between atoms: C8_14  and  N4_15 
ROOT
HETATM    1  C1  UNL     1      28.147   2.106  53.747  1.00  0.00     0.146 C 
HETATM    2  S1  UNL     1      27.482   0.506  53.371  1.00  0.00     0.095 S 
HETATM    3  O1  UNL     1      28.665  -0.404  53.086  1.00  0.00    -0.242 OA
HETATM    4  C2  UNL     1      26.747  -0.110  54.592  1.00  0.00     0.304 C 
HETATM    5  O2  UNL     1      26.090  -0.403  55.585  1.00  0.00    -0.272 OA
ENDROOT
BRANCH   2   6
HETATM    6  N1  UNL     1      26.479   0.643  51.969  1.00  0.00    -0.310 N 
HETATM    7  H4  UNL     1      26.624  -0.020  51.174  1.00  0.00     0.176 HD
BRANCH   6   8
HETATM    8  C3  UNL     1      25.486   1.632  51.906  1.00  0.00     0.040 A 
HETATM    9  C4  UNL     1      24.298   1.451  52.617  1.00  0.00     0.032 A 
HETATM   10  C5  UNL     1      23.288   2.403  52.582  1.00  0.00     0.035 A 
HETATM   11  C6  UNL     1      23.444   3.572  51.828  1.00  0.00     0.072 A 
HETATM   12  N2  UNL     1      22.539   4.542  51.722  1.00  0.00    -0.241 NA
HETATM   13  C15 UNL     1      24.644   3.664  51.163  1.00  0.00     0.041 A 
HETATM   14  C7  UNL     1      22.693   5.653  50.993  1.00  0.00     0.236 A 
HETATM   15  N3  UNL     1      23.873   5.784  50.317  1.00  0.00    -0.224 NA
HETATM   16  C8  UNL     1      24.815   4.804  50.411  1.00  0.00     0.140 A 
HETATM   17  C16 UNL     1      25.690   2.773  51.142  1.00  0.00     0.047 A 
BRANCH  16  18
HETATM   18  N4  UNL     1      25.932   5.226  49.667  1.00  0.00    -0.355 N 
HETATM   19  C9  UNL     1      27.191   4.275  48.866  1.00  0.00     0.205 A 
HETATM   20  C10 UNL     1      27.607   5.526  48.560  1.00  0.00    -0.151 A 
HETATM   21  C11 UNL     1      27.904   6.486  48.341  1.00  0.00     0.042 A 
HETATM   22  C12 UNL     1      28.255   7.699  48.081  1.00  0.00     0.021 A 
HETATM   23  C13 UNL     1      26.976   7.532  48.918  1.00  0.00     0.032 A 
HETATM   24  C14 UNL     1      25.884   6.720  49.650  1.00  0.00     0.132 A 
ENDBRANCH  16  18
ENDBRANCH   6   8
ENDBRANCH   2   6
TORSDOF 3
ENDMDL
MODEL 9
REMARK VINA RESULT:      -7.2      2.812      4.942
REMARK  3 active torsions:
REMARK  status: ('A' for Active; 'I' for Inactive)
REMARK    1  A    between atoms: S1_2  and  N1_6 
REMARK    2  A    between atoms: N1_6  and  C3_7 
REMARK    3  A    between atoms: C8_14  and  N4_15 
ROOT
HETATM    1  C1  UNL     1      17.776   2.033  51.548  1.00  0.00     0.146 C 
HETATM    2  S1  UNL     1      19.162   0.933  51.667  1.00  0.00     0.095 S 
HETATM    3  O1  UNL     1      18.597  -0.461  51.889  1.00  0.00    -0.242 OA
HETATM    4  C2  UNL     1      19.956   0.868  50.335  1.00  0.00     0.304 C 
HETATM    5  O2  UNL     1      20.556   1.026  49.277  1.00  0.00    -0.272 OA
ENDROOT
BRANCH   2   6
HETATM    6  N1  UNL     1      20.130   1.410  53.017  1.00  0.00    -0.310 N 
HETATM    7  H4  UNL     1      19.761   2.130  53.678  1.00  0.00     0.176 HD
BRANCH   6   8
HETATM    8  C3  UNL     1      21.395   0.836  53.216  1.00  0.00     0.040 A 
HETATM    9  C4  UNL     1      21.530  -0.215  54.125  1.00  0.00     0.032 A 
HETATM   10  C5  UNL     1      22.763  -0.813  54.354  1.00  0.00     0.035 A 
HETATM   11  C6  UNL     1      23.901  -0.370  53.672  1.00  0.00     0.072 A 
HETATM   12  N2  UNL     1      25.126  -0.866  53.821  1.00  0.00    -0.241 NA
HETATM   13  C15 UNL     1      23.673   0.668  52.798  1.00  0.00     0.041 A 
HETATM   14  C7  UNL     1      26.211  -0.432  53.170  1.00  0.00     0.236 A 
HETATM   15  N3  UNL     1      26.027   0.598  52.290  1.00  0.00    -0.224 NA
HETATM   16  C8  UNL     1      24.781   1.122  52.120  1.00  0.00     0.140 A 
HETATM   17  C16 UNL     1      22.493   1.313  52.514  1.00  0.00     0.047 A 
BRANCH  16  18
HETATM   18  N4  UNL     1      24.878   2.116  51.130  1.00  0.00    -0.355 N 
HETATM   19  C9  UNL     1      23.634   2.788  50.065  1.00  0.00     0.205 A 
HETATM   20  C10 UNL     1      24.710   3.501  49.655  1.00  0.00    -0.151 A 
HETATM   21  C11 UNL     1      25.541   4.031  49.361  1.00  0.00     0.042 A 
HETATM   22  C12 UNL     1      26.597   4.681  49.009  1.00  0.00     0.021 A 
HETATM   23  C13 UNL     1      26.783   3.648  50.133  1.00  0.00     0.032 A 
HETATM   24  C14 UNL     1      26.306   2.557  51.118  1.00  0.00     0.132 A 
ENDBRANCH  16  18
ENDBRANCH   6   8
ENDBRANCH   2   6
TORSDOF 3
ENDMDL
