MODEL 1
REMARK VINA RESULT:      -7.0      0.000      0.000
REMARK  9 active torsions:
REMARK  status: ('A' for Active; 'I' for Inactive)
REMARK    1  A    between atoms: C1_2  and  C2_3 
REMARK       I    between atoms: C1_2  and  N2_15 
REMARK    2  A    between atoms: C2_3  and  C3_4 
REMARK    3  A    between atoms: C3_4  and  C4_5 
REMARK    4  A    between atoms: C9_10  and  N1_11 
REMARK    5  A    between atoms: N1_11  and  C10_12 
REMARK    6  A    between atoms: C10_12  and  C11_13 
REMARK    7  A    between atoms: C11_13  and  S1_14 
REMARK    8  A    between atoms: N2_15  and  C12_16 
REMARK    9  A    between atoms: C12_16  and  C13_17 
ROOT
HETATM    1  C3  UNL     1      23.672   1.281  51.654  1.00  0.00     0.050 C 
ENDROOT
BRANCH   1   2
HETATM    2  C2  UNL     1      24.453   2.492  52.024  1.00  0.00     0.107 C 
BRANCH   2   3
HETATM    3  C1  UNL     1      25.899   2.476  51.811  1.00  0.00     0.218 C 
HETATM    4  O1  UNL     1      26.961   2.721  51.188  1.00  0.00    -0.274 OA
HETATM    5  N2  UNL     1      26.524   1.808  52.918  1.00  0.00    -0.357 N 
HETATM    6  H15 UNL     1      26.002   1.396  53.758  1.00  0.00     0.162 HD
BRANCH   5   7
HETATM    7  C12 UNL     1      27.947   1.572  53.108  1.00  0.00     0.161 C 
BRANCH   7   8
HETATM    8  C13 UNL     1      28.181   0.116  53.080  1.00  0.00    -0.041 A 
HETATM    9  C14 UNL     1      29.275  -0.631  53.415  1.00  0.00     0.009 A 
HETATM   10  C15 UNL     1      29.329  -2.003  53.352  1.00  0.00     0.001 A 
HETATM   11  C16 UNL     1      28.213  -2.682  52.924  1.00  0.00     0.000 A 
HETATM   12  C17 UNL     1      27.075  -1.997  52.570  1.00  0.00     0.001 A 
HETATM   13  C18 UNL     1      27.075  -0.616  52.652  1.00  0.00     0.009 A 
ENDBRANCH   7   8
ENDBRANCH   5   7
ENDBRANCH   2   3
ENDBRANCH   1   2
BRANCH   1  14
HETATM   14  C4  UNL     1      22.808   0.696  52.661  1.00  0.00    -0.031 A 
HETATM   15  C5  UNL     1      23.500  -0.214  53.472  1.00  0.00     0.009 A 
HETATM   16  C6  UNL     1      22.923  -0.866  54.541  1.00  0.00     0.001 A 
HETATM   17  C7  UNL     1      21.581  -0.617  54.842  1.00  0.00     0.002 A 
HETATM   18  C8  UNL     1      20.888   0.285  54.038  1.00  0.00     0.029 A 
HETATM   19  C9  UNL     1      21.494   0.920  52.975  1.00  0.00     0.034 A 
BRANCH  19  20
HETATM   20  N1  UNL     1      20.793   1.806  52.124  1.00  0.00    -0.389 N 
HETATM   21  H9  UNL     1      20.336   1.471  51.243  1.00  0.00     0.159 HD
BRANCH  20  22
HETATM   22  C10 UNL     1      20.551   3.224  52.269  1.00  0.00     0.130 C 
BRANCH  22  23
HETATM   23  C11 UNL     1      21.143   4.008  51.116  1.00  0.00     0.090 C 
BRANCH  23  24
HETATM   24  S1  UNL     1      19.818   4.893  50.235  1.00  0.00    -0.181 SA
HETATM   25  H14 UNL     1      19.384   5.967  51.054  1.00  0.00     0.101 HD
ENDBRANCH  23  24
ENDBRANCH  22  23
ENDBRANCH  20  22
ENDBRANCH  19  20
ENDBRANCH   1  14
TORSDOF 9
ENDMDL
MODEL 2
REMARK VINA RESULT:      -6.9      3.668      5.988
REMARK  9 active torsions:
REMARK  status: ('A' for Active; 'I' for Inactive)
REMARK    1  A    between atoms: C1_2  and  C2_3 
REMARK       I    between atoms: C1_2  and  N2_15 
REMARK    2  A    between atoms: C2_3  and  C3_4 
REMARK    3  A    between atoms: C3_4  and  C4_5 
REMARK    4  A    between atoms: C9_10  and  N1_11 
REMARK    5  A    between atoms: N1_11  and  C10_12 
REMARK    6  A    between atoms: C10_12  and  C11_13 
REMARK    7  A    between atoms: C11_13  and  S1_14 
REMARK    8  A    between atoms: N2_15  and  C12_16 
REMARK    9  A    between atoms: C12_16  and  C13_17 
ROOT
HETATM    1  C3  UNL     1      24.491   1.315  52.475  1.00  0.00     0.050 C 
ENDROOT
BRANCH   1   2
HETATM    2  C2  UNL     1      24.695   2.729  52.888  1.00  0.00     0.107 C 
BRANCH   2   3
HETATM    3  C1  UNL     1      24.228   3.787  51.993  1.00  0.00     0.218 C 
HETATM    4  O1  UNL     1      23.614   4.842  51.701  1.00  0.00    -0.274 OA
HETATM    5  N2  UNL     1      24.724   3.529  50.671  1.00  0.00    -0.357 N 
HETATM    6  H15 UNL     1      25.337   2.695  50.399  1.00  0.00     0.162 HD
BRANCH   5   7
HETATM    7  C12 UNL     1      24.497   4.332  49.479  1.00  0.00     0.161 C 
BRANCH   7   8
HETATM    8  C13 UNL     1      25.785   4.922  49.068  1.00  0.00    -0.041 A 
HETATM    9  C14 UNL     1      27.043   4.391  49.004  1.00  0.00     0.009 A 
HETATM   10  C15 UNL     1      28.154   5.075  48.572  1.00  0.00     0.001 A 
HETATM   11  C16 UNL     1      28.003   6.382  48.175  1.00  0.00     0.000 A 
HETATM   12  C17 UNL     1      26.767   6.982  48.212  1.00  0.00     0.001 A 
HETATM   13  C18 UNL     1      25.682   6.248  48.655  1.00  0.00     0.009 A 
ENDBRANCH   7   8
ENDBRANCH   5   7
ENDBRANCH   2   3
ENDBRANCH   1   2
BRANCH   1  14
HETATM   14  C4  UNL     1      23.804   0.430  53.397  1.00  0.00    -0.031 A 
HETATM   15  C5  UNL     1      22.413   0.583  53.323  1.00  0.00     0.009 A 
HETATM   16  C6  UNL     1      21.528  -0.179  54.055  1.00  0.00     0.001 A 
HETATM   17  C7  UNL     1      22.030  -1.157  54.918  1.00  0.00     0.002 A 
HETATM   18  C8  UNL     1      23.412  -1.313  54.996  1.00  0.00     0.029 A 
HETATM   19  C9  UNL     1      24.270  -0.533  54.251  1.00  0.00     0.034 A 
BRANCH  19  20
HETATM   20  N1  UNL     1      25.676  -0.650  54.351  1.00  0.00    -0.389 N 
HETATM   21  H9  UNL     1      26.199  -1.411  53.857  1.00  0.00     0.159 HD
BRANCH  20  22
HETATM   22  C10 UNL     1      26.621   0.179  55.067  1.00  0.00     0.130 C 
BRANCH  22  23
HETATM   23  C11 UNL     1      27.999   0.116  54.441  1.00  0.00     0.090 C 
BRANCH  23  24
HETATM   24  S1  UNL     1      28.334   1.665  53.545  1.00  0.00    -0.181 SA
HETATM   25  H14 UNL     1      28.348   1.377  52.156  1.00  0.00     0.101 HD
ENDBRANCH  23  24
ENDBRANCH  22  23
ENDBRANCH  20  22
ENDBRANCH  19  20
ENDBRANCH   1  14
TORSDOF 9
ENDMDL
MODEL 3
REMARK VINA RESULT:      -6.8      3.620      5.934
REMARK  9 active torsions:
REMARK  status: ('A' for Active; 'I' for Inactive)
REMARK    1  A    between atoms: C1_2  and  C2_3 
REMARK       I    between atoms: C1_2  and  N2_15 
REMARK    2  A    between atoms: C2_3  and  C3_4 
REMARK    3  A    between atoms: C3_4  and  C4_5 
REMARK    4  A    between atoms: C9_10  and  N1_11 
REMARK    5  A    between atoms: N1_11  and  C10_12 
REMARK    6  A    between atoms: C10_12  and  C11_13 
REMARK    7  A    between atoms: C11_13  and  S1_14 
REMARK    8  A    between atoms: N2_15  and  C12_16 
REMARK    9  A    between atoms: C12_16  and  C13_17 
ROOT
HETATM    1  C3  UNL     1      23.674   1.518  52.078  1.00  0.00     0.050 C 
ENDROOT
BRANCH   1   2
HETATM    2  C2  UNL     1      24.669   2.518  52.551  1.00  0.00     0.107 C 
BRANCH   2   3
HETATM    3  C1  UNL     1      25.959   2.591  51.865  1.00  0.00     0.218 C 
HETATM    4  O1  UNL     1      27.208   2.505  51.779  1.00  0.00    -0.274 OA
HETATM    5  N2  UNL     1      25.738   2.978  50.501  1.00  0.00    -0.357 N 
HETATM    6  H15 UNL     1      24.779   3.176  50.068  1.00  0.00     0.162 HD
BRANCH   5   7
HETATM    7  C12 UNL     1      26.748   3.168  49.471  1.00  0.00     0.161 C 
BRANCH   7   8
HETATM    8  C13 UNL     1      26.701   4.576  49.033  1.00  0.00    -0.041 A 
HETATM    9  C14 UNL     1      25.683   5.489  49.030  1.00  0.00     0.009 A 
HETATM   10  C15 UNL     1      25.807   6.789  48.601  1.00  0.00     0.001 A 
HETATM   11  C16 UNL     1      27.032   7.212  48.143  1.00  0.00     0.000 A 
HETATM   12  C17 UNL     1      28.101   6.349  48.117  1.00  0.00     0.001 A 
HETATM   13  C18 UNL     1      27.922   5.051  48.560  1.00  0.00     0.009 A 
ENDBRANCH   7   8
ENDBRANCH   5   7
ENDBRANCH   2   3
ENDBRANCH   1   2
BRANCH   1  14
HETATM   14  C4  UNL     1      23.076   0.637  53.062  1.00  0.00    -0.031 A 
HETATM   15  C5  UNL     1      21.681   0.767  53.093  1.00  0.00     0.009 A 
HETATM   16  C6  UNL     1      20.867   0.002  53.901  1.00  0.00     0.001 A 
HETATM   17  C7  UNL     1      21.450  -0.955  54.737  1.00  0.00     0.002 A 
HETATM   18  C8  UNL     1      22.836  -1.087  54.711  1.00  0.00     0.029 A 
HETATM   19  C9  UNL     1      23.621  -0.305  53.891  1.00  0.00     0.034 A 
BRANCH  19  20
HETATM   20  N1  UNL     1      25.033  -0.398  53.885  1.00  0.00    -0.389 N 
HETATM   21  H9  UNL     1      25.563  -0.628  53.011  1.00  0.00     0.159 HD
BRANCH  20  22
HETATM   22  C10 UNL     1      25.974  -0.197  54.965  1.00  0.00     0.130 C 
BRANCH  22  23
HETATM   23  C11 UNL     1      27.348   0.168  54.441  1.00  0.00     0.090 C 
BRANCH  23  24
HETATM   24  S1  UNL     1      27.758  -0.887  53.015  1.00  0.00    -0.181 SA
HETATM   25  H14 UNL     1      27.174  -0.309  51.857  1.00  0.00     0.101 HD
ENDBRANCH  23  24
ENDBRANCH  22  23
ENDBRANCH  20  22
ENDBRANCH  19  20
ENDBRANCH   1  14
TORSDOF 9
ENDMDL
MODEL 4
REMARK VINA RESULT:      -6.7      2.388      3.632
REMARK  9 active torsions:
REMARK  status: ('A' for Active; 'I' for Inactive)
REMARK    1  A    between atoms: C1_2  and  C2_3 
REMARK       I    between atoms: C1_2  and  N2_15 
REMARK    2  A    between atoms: C2_3  and  C3_4 
REMARK    3  A    between atoms: C3_4  and  C4_5 
REMARK    4  A    between atoms: C9_10  and  N1_11 
REMARK    5  A    between atoms: N1_11  and  C10_12 
REMARK    6  A    between atoms: C10_12  and  C11_13 
REMARK    7  A    between atoms: C11_13  and  S1_14 
REMARK    8  A    between atoms: N2_15  and  C12_16 
REMARK    9  A    between atoms: C12_16  and  C13_17 
ROOT
HETATM    1  C3  UNL     1      24.370   2.995  51.096  1.00  0.00     0.050 C 
ENDROOT
BRANCH   1   2
HETATM    2  C2  UNL     1      25.775   2.814  50.643  1.00  0.00     0.107 C 
BRANCH   2   3
HETATM    3  C1  UNL     1      26.795   2.517  51.648  1.00  0.00     0.218 C 
HETATM    4  O1  UNL     1      27.936   2.584  52.165  1.00  0.00    -0.274 OA
HETATM    5  N2  UNL     1      26.225   1.658  52.647  1.00  0.00    -0.357 N 
HETATM    6  H15 UNL     1      25.215   1.302  52.645  1.00  0.00     0.162 HD
BRANCH   5   7
HETATM    7  C12 UNL     1      26.892   1.122  53.823  1.00  0.00     0.161 C 
BRANCH   7   8
HETATM    8  C13 UNL     1      27.426  -0.211  53.484  1.00  0.00    -0.041 A 
HETATM    9  C14 UNL     1      26.836  -1.302  52.911  1.00  0.00     0.009 A 
HETATM   10  C15 UNL     1      27.484  -2.483  52.638  1.00  0.00     0.001 A 
HETATM   11  C16 UNL     1      28.817  -2.585  52.958  1.00  0.00     0.000 A 
HETATM   12  C17 UNL     1      29.477  -1.528  53.537  1.00  0.00     0.001 A 
HETATM   13  C18 UNL     1      28.777  -0.362  53.790  1.00  0.00     0.009 A 
ENDBRANCH   7   8
ENDBRANCH   5   7
ENDBRANCH   2   3
ENDBRANCH   1   2
BRANCH   1  14
HETATM   14  C4  UNL     1      23.318   2.375  50.313  1.00  0.00    -0.031 A 
HETATM   15  C5  UNL     1      23.298   2.858  48.998  1.00  0.00     0.009 A 
HETATM   16  C6  UNL     1      22.430   2.391  48.033  1.00  0.00     0.001 A 
HETATM   17  C7  UNL     1      21.521   1.385  48.370  1.00  0.00     0.002 A 
HETATM   18  C8  UNL     1      21.536   0.902  49.677  1.00  0.00     0.029 A 
HETATM   19  C9  UNL     1      22.416   1.392  50.618  1.00  0.00     0.034 A 
BRANCH  19  20
HETATM   20  N1  UNL     1      22.414   0.942  51.959  1.00  0.00    -0.389 N 
HETATM   21  H9  UNL     1      23.227   0.418  52.362  1.00  0.00     0.159 HD
BRANCH  20  22
HETATM   22  C10 UNL     1      21.406   1.102  52.984  1.00  0.00     0.130 C 
BRANCH  22  23
HETATM   23  C11 UNL     1      20.845  -0.234  53.423  1.00  0.00     0.090 C 
BRANCH  23  24
HETATM   24  S1  UNL     1      21.924  -0.960  54.698  1.00  0.00    -0.181 SA
HETATM   25  H14 UNL     1      21.709  -0.255  55.911  1.00  0.00     0.101 HD
ENDBRANCH  23  24
ENDBRANCH  22  23
ENDBRANCH  20  22
ENDBRANCH  19  20
ENDBRANCH   1  14
TORSDOF 9
ENDMDL
MODEL 5
REMARK VINA RESULT:      -6.6      3.362      5.382
REMARK  9 active torsions:
REMARK  status: ('A' for Active; 'I' for Inactive)
REMARK    1  A    between atoms: C1_2  and  C2_3 
REMARK       I    between atoms: C1_2  and  N2_15 
REMARK    2  A    between atoms: C2_3  and  C3_4 
REMARK    3  A    between atoms: C3_4  and  C4_5 
REMARK    4  A    between atoms: C9_10  and  N1_11 
REMARK    5  A    between atoms: N1_11  and  C10_12 
REMARK    6  A    between atoms: C10_12  and  C11_13 
REMARK    7  A    between atoms: C11_13  and  S1_14 
REMARK    8  A    between atoms: N2_15  and  C12_16 
REMARK    9  A    between atoms: C12_16  and  C13_17 
ROOT
HETATM    1  C3  UNL     1      24.817   4.100  50.243  1.00  0.00     0.050 C 
ENDROOT
BRANCH   1   2
HETATM    2  C2  UNL     1      25.279   2.750  50.664  1.00  0.00     0.107 C 
BRANCH   2   3
HETATM    3  C1  UNL     1      25.459   2.493  52.092  1.00  0.00     0.218 C 
HETATM    4  O1  UNL     1      25.077   2.340  53.278  1.00  0.00    -0.274 OA
HETATM    5  N2  UNL     1      26.856   2.294  52.355  1.00  0.00    -0.357 N 
HETATM    6  H15 UNL     1      27.629   2.327  51.616  1.00  0.00     0.162 HD
BRANCH   5   7
HETATM    7  C12 UNL     1      27.472   2.012  53.643  1.00  0.00     0.161 C 
BRANCH   7   8
HETATM    8  C13 UNL     1      28.205   0.736  53.534  1.00  0.00    -0.041 A 
HETATM    9  C14 UNL     1      29.517   0.424  53.759  1.00  0.00     0.009 A 
HETATM   10  C15 UNL     1      30.049  -0.836  53.630  1.00  0.00     0.001 A 
HETATM   11  C16 UNL     1      29.216  -1.862  53.252  1.00  0.00     0.000 A 
HETATM   12  C17 UNL     1      27.885  -1.623  53.009  1.00  0.00     0.001 A 
HETATM   13  C18 UNL     1      27.400  -0.336  53.152  1.00  0.00     0.009 A 
ENDBRANCH   7   8
ENDBRANCH   5   7
ENDBRANCH   2   3
ENDBRANCH   1   2
BRANCH   1  14
HETATM   14  C4  UNL     1      25.797   5.005  49.673  1.00  0.00    -0.031 A 
HETATM   15  C5  UNL     1      26.894   4.314  49.142  1.00  0.00     0.009 A 
HETATM   16  C6  UNL     1      27.939   4.937  48.492  1.00  0.00     0.001 A 
HETATM   17  C7  UNL     1      27.915   6.327  48.351  1.00  0.00     0.002 A 
HETATM   18  C8  UNL     1      26.828   7.019  48.879  1.00  0.00     0.029 A 
HETATM   19  C9  UNL     1      25.800   6.366  49.524  1.00  0.00     0.034 A 
BRANCH  19  20
HETATM   20  N1  UNL     1      24.710   7.058  50.102  1.00  0.00    -0.389 N 
HETATM   21  H9  UNL     1      24.112   6.618  50.841  1.00  0.00     0.159 HD
BRANCH  20  22
HETATM   22  C10 UNL     1      24.233   8.400  49.850  1.00  0.00     0.130 C 
BRANCH  22  23
HETATM   23  C11 UNL     1      22.729   8.430  49.675  1.00  0.00     0.090 C 
BRANCH  23  24
HETATM   24  S1  UNL     1      22.009   6.885  50.315  1.00  0.00    -0.181 SA
HETATM   25  H14 UNL     1      22.779   5.801  49.819  1.00  0.00     0.101 HD
ENDBRANCH  23  24
ENDBRANCH  22  23
ENDBRANCH  20  22
ENDBRANCH  19  20
ENDBRANCH   1  14
TORSDOF 9
ENDMDL
MODEL 6
REMARK VINA RESULT:      -6.6      2.664      5.824
REMARK  9 active torsions:
REMARK  status: ('A' for Active; 'I' for Inactive)
REMARK    1  A    between atoms: C1_2  and  C2_3 
REMARK       I    between atoms: C1_2  and  N2_15 
REMARK    2  A    between atoms: C2_3  and  C3_4 
REMARK    3  A    between atoms: C3_4  and  C4_5 
REMARK    4  A    between atoms: C9_10  and  N1_11 
REMARK    5  A    between atoms: N1_11  and  C10_12 
REMARK    6  A    between atoms: C10_12  and  C11_13 
REMARK    7  A    between atoms: C11_13  and  S1_14 
REMARK    8  A    between atoms: N2_15  and  C12_16 
REMARK    9  A    between atoms: C12_16  and  C13_17 
ROOT
HETATM    1  C3  UNL     1      25.581   2.722  50.607  1.00  0.00     0.050 C 
ENDROOT
BRANCH   1   2
HETATM    2  C2  UNL     1      26.663   2.112  51.424  1.00  0.00     0.107 C 
BRANCH   2   3
HETATM    3  C1  UNL     1      26.506   0.724  51.857  1.00  0.00     0.218 C 
HETATM    4  O1  UNL     1      26.752  -0.507  51.844  1.00  0.00    -0.274 OA
HETATM    5  N2  UNL     1      25.513   0.670  52.892  1.00  0.00    -0.357 N 
HETATM    6  H15 UNL     1      24.982   1.516  53.277  1.00  0.00     0.162 HD
BRANCH   5   7
HETATM    7  C12 UNL     1      25.051  -0.514  53.600  1.00  0.00     0.161 C 
BRANCH   7   8
HETATM    8  C13 UNL     1      23.597  -0.385  53.816  1.00  0.00    -0.041 A 
HETATM    9  C14 UNL     1      22.736  -1.079  54.620  1.00  0.00     0.009 A 
HETATM   10  C15 UNL     1      21.391  -0.819  54.726  1.00  0.00     0.001 A 
HETATM   11  C16 UNL     1      20.863   0.207  53.978  1.00  0.00     0.000 A 
HETATM   12  C17 UNL     1      21.668   0.948  53.147  1.00  0.00     0.001 A 
HETATM   13  C18 UNL     1      23.016   0.645  53.078  1.00  0.00     0.009 A 
ENDBRANCH   7   8
ENDBRANCH   5   7
ENDBRANCH   2   3
ENDBRANCH   1   2
BRANCH   1  14
HETATM   14  C4  UNL     1      25.855   3.986  49.951  1.00  0.00    -0.031 A 
HETATM   15  C5  UNL     1      27.109   3.984  49.326  1.00  0.00     0.009 A 
HETATM   16  C6  UNL     1      27.588   5.044  48.585  1.00  0.00     0.001 A 
HETATM   17  C7  UNL     1      26.793   6.184  48.443  1.00  0.00     0.002 A 
HETATM   18  C8  UNL     1      25.545   6.192  49.063  1.00  0.00     0.029 A 
HETATM   19  C9  UNL     1      25.097   5.116  49.798  1.00  0.00     0.034 A 
BRANCH  19  20
HETATM   20  N1  UNL     1      23.852   5.125  50.469  1.00  0.00    -0.389 N 
HETATM   21  H9  UNL     1      23.251   4.269  50.521  1.00  0.00     0.159 HD
BRANCH  20  22
HETATM   22  C10 UNL     1      23.199   6.200  51.184  1.00  0.00     0.130 C 
BRANCH  22  23
HETATM   23  C11 UNL     1      21.691   6.071  51.120  1.00  0.00     0.090 C 
BRANCH  23  24
HETATM   24  S1  UNL     1      21.225   4.313  51.193  1.00  0.00    -0.181 SA
HETATM   25  H14 UNL     1      19.964   4.217  51.838  1.00  0.00     0.101 HD
ENDBRANCH  23  24
ENDBRANCH  22  23
ENDBRANCH  20  22
ENDBRANCH  19  20
ENDBRANCH   1  14
TORSDOF 9
ENDMDL
MODEL 7
REMARK VINA RESULT:      -6.5      3.125      4.440
REMARK  9 active torsions:
REMARK  status: ('A' for Active; 'I' for Inactive)
REMARK    1  A    between atoms: C1_2  and  C2_3 
REMARK       I    between atoms: C1_2  and  N2_15 
REMARK    2  A    between atoms: C2_3  and  C3_4 
REMARK    3  A    between atoms: C3_4  and  C4_5 
REMARK    4  A    between atoms: C9_10  and  N1_11 
REMARK    5  A    between atoms: N1_11  and  C10_12 
REMARK    6  A    between atoms: C10_12  and  C11_13 
REMARK    7  A    between atoms: C11_13  and  S1_14 
REMARK    8  A    between atoms: N2_15  and  C12_16 
REMARK    9  A    between atoms: C12_16  and  C13_17 
ROOT
HETATM    1  C3  UNL     1      20.944   0.562  53.788  1.00  0.00     0.050 C 
ENDROOT
BRANCH   1   2
HETATM    2  C2  UNL     1      21.088  -0.863  54.190  1.00  0.00     0.107 C 
BRANCH   2   3
HETATM    3  C1  UNL     1      22.284  -1.256  54.933  1.00  0.00     0.218 C 
HETATM    4  O1  UNL     1      22.913  -1.811  55.867  1.00  0.00    -0.274 OA
HETATM    5  N2  UNL     1      23.441  -0.741  54.257  1.00  0.00    -0.357 N 
HETATM    6  H15 UNL     1      23.418  -0.166  53.354  1.00  0.00     0.162 HD
BRANCH   5   7
HETATM    7  C12 UNL     1      24.831  -0.900  54.657  1.00  0.00     0.161 C 
BRANCH   7   8
HETATM    8  C13 UNL     1      25.638   0.095  53.924  1.00  0.00    -0.041 A 
HETATM    9  C14 UNL     1      26.219   1.264  54.330  1.00  0.00     0.009 A 
HETATM   10  C15 UNL     1      26.969   2.081  53.518  1.00  0.00     0.001 A 
HETATM   11  C16 UNL     1      27.156   1.708  52.208  1.00  0.00     0.000 A 
HETATM   12  C17 UNL     1      26.602   0.545  51.730  1.00  0.00     0.001 A 
HETATM   13  C18 UNL     1      25.855  -0.241  52.589  1.00  0.00     0.009 A 
ENDBRANCH   7   8
ENDBRANCH   5   7
ENDBRANCH   2   3
ENDBRANCH   1   2
BRANCH   1  14
HETATM   14  C4  UNL     1      21.316   0.927  52.434  1.00  0.00    -0.031 A 
HETATM   15  C5  UNL     1      22.537   1.613  52.400  1.00  0.00     0.009 A 
HETATM   16  C6  UNL     1      23.142   2.023  51.231  1.00  0.00     0.001 A 
HETATM   17  C7  UNL     1      22.517   1.747  50.012  1.00  0.00     0.002 A 
HETATM   18  C8  UNL     1      21.302   1.066  50.041  1.00  0.00     0.029 A 
HETATM   19  C9  UNL     1      20.723   0.671  51.228  1.00  0.00     0.034 A 
BRANCH  19  20
HETATM   20  N1  UNL     1      19.469   0.018  51.275  1.00  0.00    -0.389 N 
HETATM   21  H9  UNL     1      19.382  -1.012  51.103  1.00  0.00     0.159 HD
BRANCH  20  22
HETATM   22  C10 UNL     1      18.159   0.557  51.563  1.00  0.00     0.130 C 
BRANCH  22  23
HETATM   23  C11 UNL     1      17.118  -0.538  51.662  1.00  0.00     0.090 C 
BRANCH  23  24
HETATM   24  S1  UNL     1      17.443  -1.558  53.135  1.00  0.00    -0.181 SA
HETATM   25  H14 UNL     1      18.847  -1.719  53.258  1.00  0.00     0.101 HD
ENDBRANCH  23  24
ENDBRANCH  22  23
ENDBRANCH  20  22
ENDBRANCH  19  20
ENDBRANCH   1  14
TORSDOF 9
ENDMDL
MODEL 8
REMARK VINA RESULT:      -6.4      2.605      4.712
REMARK  9 active torsions:
REMARK  status: ('A' for Active; 'I' for Inactive)
REMARK    1  A    between atoms: C1_2  and  C2_3 
REMARK       I    between atoms: C1_2  and  N2_15 
REMARK    2  A    between atoms: C2_3  and  C3_4 
REMARK    3  A    between atoms: C3_4  and  C4_5 
REMARK    4  A    between atoms: C9_10  and  N1_11 
REMARK    5  A    between atoms: N1_11  and  C10_12 
REMARK    6  A    between atoms: C10_12  and  C11_13 
REMARK    7  A    between atoms: C11_13  and  S1_14 
REMARK    8  A    between atoms: N2_15  and  C12_16 
REMARK    9  A    between atoms: C12_16  and  C13_17 
ROOT
HETATM    1  C3  UNL     1      23.778   1.402  52.045  1.00  0.00     0.050 C 
ENDROOT
BRANCH   1   2
HETATM    2  C2  UNL     1      24.907   2.096  52.719  1.00  0.00     0.107 C 
BRANCH   2   3
HETATM    3  C1  UNL     1      26.134   2.326  51.957  1.00  0.00     0.218 C 
HETATM    4  O1  UNL     1      27.377   2.381  51.791  1.00  0.00    -0.274 OA
HETATM    5  N2  UNL     1      25.785   2.715  50.620  1.00  0.00    -0.357 N 
HETATM    6  H15 UNL     1      24.784   2.815  50.254  1.00  0.00     0.162 HD
BRANCH   5   7
HETATM    7  C12 UNL     1      26.699   3.037  49.536  1.00  0.00     0.161 C 
BRANCH   7   8
HETATM    8  C13 UNL     1      26.590   4.481  49.254  1.00  0.00    -0.041 A 
HETATM    9  C14 UNL     1      25.604   5.386  49.535  1.00  0.00     0.009 A 
HETATM   10  C15 UNL     1      25.663   6.722  49.219  1.00  0.00     0.001 A 
HETATM   11  C16 UNL     1      26.783   7.193  48.577  1.00  0.00     0.000 A 
HETATM   12  C17 UNL     1      27.815   6.341  48.262  1.00  0.00     0.001 A 
HETATM   13  C18 UNL     1      27.705   5.005  48.603  1.00  0.00     0.009 A 
ENDBRANCH   7   8
ENDBRANCH   5   7
ENDBRANCH   2   3
ENDBRANCH   1   2
BRANCH   1  14
HETATM   14  C4  UNL     1      22.822   0.695  52.876  1.00  0.00    -0.031 A 
HETATM   15  C5  UNL     1      23.449  -0.260  53.688  1.00  0.00     0.009 A 
HETATM   16  C6  UNL     1      22.773  -1.029  54.611  1.00  0.00     0.001 A 
HETATM   17  C7  UNL     1      21.393  -0.859  54.754  1.00  0.00     0.002 A 
HETATM   18  C8  UNL     1      20.765   0.087  53.948  1.00  0.00     0.029 A 
HETATM   19  C9  UNL     1      21.470   0.840  53.033  1.00  0.00     0.034 A 
BRANCH  19  20
HETATM   20  N1  UNL     1      20.840   1.774  52.178  1.00  0.00    -0.389 N 
HETATM   21  H9  UNL     1      20.505   1.502  51.223  1.00  0.00     0.159 HD
BRANCH  20  22
HETATM   22  C10 UNL     1      20.526   3.167  52.406  1.00  0.00     0.130 C 
BRANCH  22  23
HETATM   23  C11 UNL     1      21.260   4.067  51.435  1.00  0.00     0.090 C 
BRANCH  23  24
HETATM   24  S1  UNL     1      20.059   4.906  50.354  1.00  0.00    -0.181 SA
HETATM   25  H14 UNL     1      19.672   6.118  50.982  1.00  0.00     0.101 HD
ENDBRANCH  23  24
ENDBRANCH  22  23
ENDBRANCH  20  22
ENDBRANCH  19  20
ENDBRANCH   1  14
TORSDOF 9
ENDMDL
MODEL 9
REMARK VINA RESULT:      -6.3      3.761      5.784
REMARK  9 active torsions:
REMARK  status: ('A' for Active; 'I' for Inactive)
REMARK    1  A    between atoms: C1_2  and  C2_3 
REMARK       I    between atoms: C1_2  and  N2_15 
REMARK    2  A    between atoms: C2_3  and  C3_4 
REMARK    3  A    between atoms: C3_4  and  C4_5 
REMARK    4  A    between atoms: C9_10  and  N1_11 
REMARK    5  A    between atoms: N1_11  and  C10_12 
REMARK    6  A    between atoms: C10_12  and  C11_13 
REMARK    7  A    between atoms: C11_13  and  S1_14 
REMARK    8  A    between atoms: N2_15  and  C12_16 
REMARK    9  A    between atoms: C12_16  and  C13_17 
ROOT
HETATM    1  C3  UNL     1      24.080   3.667  53.166  1.00  0.00     0.050 C 
ENDROOT
BRANCH   1   2
HETATM    2  C2  UNL     1      23.985   4.362  51.854  1.00  0.00     0.107 C 
BRANCH   2   3
HETATM    3  C1  UNL     1      24.570   3.713  50.681  1.00  0.00     0.218 C 
HETATM    4  O1  UNL     1      24.578   2.934  49.697  1.00  0.00    -0.274 OA
HETATM    5  N2  UNL     1      25.905   4.208  50.494  1.00  0.00    -0.357 N 
HETATM    6  H15 UNL     1      26.381   4.937  51.118  1.00  0.00     0.162 HD
BRANCH   5   7
HETATM    7  C12 UNL     1      26.840   3.827  49.447  1.00  0.00     0.161 C 
BRANCH   7   8
HETATM    8  C13 UNL     1      27.330   5.058  48.797  1.00  0.00    -0.041 A 
HETATM    9  C14 UNL     1      28.570   5.405  48.337  1.00  0.00     0.009 A 
HETATM   10  C15 UNL     1      28.865   6.601  47.727  1.00  0.00     0.001 A 
HETATM   11  C16 UNL     1      27.854   7.518  47.562  1.00  0.00     0.000 A 
HETATM   12  C17 UNL     1      26.582   7.237  48.001  1.00  0.00     0.001 A 
HETATM   13  C18 UNL     1      26.339   6.018  48.608  1.00  0.00     0.009 A 
ENDBRANCH   7   8
ENDBRANCH   5   7
ENDBRANCH   2   3
ENDBRANCH   1   2
BRANCH   1  14
HETATM   14  C4  UNL     1      24.533   2.289  53.173  1.00  0.00    -0.031 A 
HETATM   15  C5  UNL     1      25.844   2.178  53.656  1.00  0.00     0.009 A 
HETATM   16  C6  UNL     1      26.491   0.970  53.818  1.00  0.00     0.001 A 
HETATM   17  C7  UNL     1      25.817  -0.208  53.487  1.00  0.00     0.002 A 
HETATM   18  C8  UNL     1      24.514  -0.102  53.006  1.00  0.00     0.029 A 
HETATM   19  C9  UNL     1      23.896   1.120  52.855  1.00  0.00     0.034 A 
BRANCH  19  20
HETATM   20  N1  UNL     1      22.590   1.247  52.327  1.00  0.00    -0.389 N 
HETATM   21  H9  UNL     1      22.279   2.120  51.839  1.00  0.00     0.159 HD
BRANCH  20  22
HETATM   22  C10 UNL     1      21.503   0.293  52.320  1.00  0.00     0.130 C 
BRANCH  22  23
HETATM   23  C11 UNL     1      20.849   0.187  53.682  1.00  0.00     0.090 C 
BRANCH  23  24
HETATM   24  S1  UNL     1      21.232  -1.433  54.418  1.00  0.00    -0.181 SA
HETATM   25  H14 UNL     1      20.057  -1.920  55.048  1.00  0.00     0.101 HD
ENDBRANCH  23  24
ENDBRANCH  22  23
ENDBRANCH  20  22
ENDBRANCH  19  20
ENDBRANCH   1  14
TORSDOF 9
ENDMDL
