MODEL 1
REMARK VINA RESULT:      -9.6      0.000      0.000
REMARK  4 active torsions:
REMARK  status: ('A' for Active; 'I' for Inactive)
REMARK    1  A    between atoms: C1_2  and  C2_3 
REMARK       I    between atoms: C1_2  and  N2_10 
REMARK    2  A    between atoms: C2_3  and  C3_4 
REMARK    3  A    between atoms: N2_10  and  C7_11 
REMARK    4  A    between atoms: C10_14  and  N3_15 
ROOT
HETATM    1  C7  UNL     1      26.046   3.420  49.810  1.00  0.00     0.130 A 
HETATM    2  C8  UNL     1      26.350   2.567  50.846  1.00  0.00     0.066 A 
HETATM    3  C9  UNL     1      25.358   1.920  51.518  1.00  0.00     0.025 A 
HETATM    4  C10 UNL     1      25.800   1.106  52.528  1.00  0.00     0.140 A 
HETATM    5  N4  UNL     1      24.862   0.430  53.249  1.00  0.00    -0.242 NA
HETATM    6  C16 UNL     1      23.534   0.569  52.965  1.00  0.00     0.120 A 
HETATM    7  C17 UNL     1      23.079   1.382  51.955  1.00  0.00     0.033 A 
HETATM    8  C18 UNL     1      24.020   2.055  51.236  1.00  0.00    -0.003 A 
HETATM    9  C19 UNL     1      23.747   2.923  50.185  1.00  0.00     0.131 A 
HETATM   10  N5  UNL     1      24.724   3.575  49.505  1.00  0.00    -0.242 NA
ENDROOT
BRANCH   1  11
HETATM   11  N2  UNL     1      27.065   4.108  49.092  1.00  0.00    -0.312 N 
HETATM   12  C1  UNL     1      27.125   5.524  48.957  1.00  0.00     0.225 C 
HETATM   13  O1  UNL     1      26.217   6.196  49.509  1.00  0.00    -0.273 OA
HETATM   14  H11 UNL     1      27.661   3.322  48.752  1.00  0.00     0.170 HD
BRANCH  12  15
HETATM   15  C2  UNL     1      28.304   5.934  48.153  1.00  0.00     0.141 C 
BRANCH  15  16
HETATM   16  C3  UNL     1      28.350   7.451  47.987  1.00  0.00     0.252 C 
HETATM   17  C4  UNL     1      29.711   7.732  47.340  1.00  0.00     0.203 C 
HETATM   18  O2  UNL     1      30.667   7.467  48.338  1.00  0.00    -0.387 OA
HETATM   19  C5  UNL     1      30.761   8.614  49.152  1.00  0.00     0.197 C 
HETATM   20  C6  UNL     1      29.363   9.163  49.340  1.00  0.00     0.296 C 
HETATM   21  N1  UNL     1      28.374   8.078  49.292  1.00  0.00     0.092 N 
HETATM   22  H10 UNL     1      28.744   7.380  49.999  1.00  0.00     0.316 HD
ENDBRANCH  15  16
ENDBRANCH  12  15
ENDBRANCH   1  11
BRANCH   4  23
HETATM   23  N3  UNL     1      27.114   0.801  52.968  1.00  0.00    -0.336 N 
HETATM   24  C11 UNL     1      27.310  -0.622  52.825  1.00  0.00     0.120 A 
HETATM   25  C12 UNL     1      28.417  -1.302  53.159  1.00  0.00     0.087 A 
HETATM   26 CL1  UNL     1      28.700  -3.011  53.008  1.00  0.00    -0.080 Cl
HETATM   27  C13 UNL     1      29.557  -0.543  53.717  1.00  0.00     0.137 A 
HETATM   28  F1  UNL     1      30.752  -1.040  54.114  1.00  0.00    -0.205 F 
HETATM   29  C14 UNL     1      29.344   0.758  53.825  1.00  0.00     0.037 A 
HETATM   30  C15 UNL     1      28.177   1.612  53.491  1.00  0.00     0.160 A 
ENDBRANCH   4  23
TORSDOF 4
ENDMDL
MODEL 2
REMARK VINA RESULT:      -9.5      1.422      1.700
REMARK  4 active torsions:
REMARK  status: ('A' for Active; 'I' for Inactive)
REMARK    1  A    between atoms: C1_2  and  C2_3 
REMARK       I    between atoms: C1_2  and  N2_10 
REMARK    2  A    between atoms: C2_3  and  C3_4 
REMARK    3  A    between atoms: N2_10  and  C7_11 
REMARK    4  A    between atoms: C10_14  and  N3_15 
ROOT
HETATM    1  C7  UNL     1      24.466   3.070  50.380  1.00  0.00     0.130 A 
HETATM    2  C8  UNL     1      25.114   2.263  51.287  1.00  0.00     0.066 A 
HETATM    3  C9  UNL     1      24.418   1.340  52.006  1.00  0.00     0.025 A 
HETATM    4  C10 UNL     1      25.183   0.608  52.875  1.00  0.00     0.140 A 
HETATM    5  N4  UNL     1      24.552  -0.332  53.633  1.00  0.00    -0.242 NA
HETATM    6  C16 UNL     1      23.206  -0.526  53.520  1.00  0.00     0.120 A 
HETATM    7  C17 UNL     1      22.428   0.200  52.653  1.00  0.00     0.033 A 
HETATM    8  C18 UNL     1      23.062   1.138  51.896  1.00  0.00    -0.003 A 
HETATM    9  C19 UNL     1      22.439   1.970  50.972  1.00  0.00     0.131 A 
HETATM   10  N5  UNL     1      23.119   2.894  50.247  1.00  0.00    -0.242 NA
ENDROOT
BRANCH   1  11
HETATM   11  N2  UNL     1      25.172   4.043  49.616  1.00  0.00    -0.312 N 
HETATM   12  C1  UNL     1      25.209   5.430  49.934  1.00  0.00     0.225 C 
HETATM   13  O1  UNL     1      24.574   5.806  50.954  1.00  0.00    -0.273 OA
HETATM   14  H11 UNL     1      25.589   3.463  48.856  1.00  0.00     0.170 HD
BRANCH  12  15
HETATM   15  C2  UNL     1      26.026   6.183  48.950  1.00  0.00     0.141 C 
BRANCH  15  16
HETATM   16  C3  UNL     1      25.917   7.687  49.187  1.00  0.00     0.252 C 
HETATM   17  C4  UNL     1      26.743   8.320  48.061  1.00  0.00     0.203 C 
HETATM   18  O2  UNL     1      28.085   8.023  48.362  1.00  0.00    -0.387 OA
HETATM   19  C5  UNL     1      28.533   8.978  49.296  1.00  0.00     0.197 C 
HETATM   20  C6  UNL     1      27.406   9.233  50.274  1.00  0.00     0.296 C 
HETATM   21  N1  UNL     1      26.578   8.029  50.429  1.00  0.00     0.092 N 
HETATM   22  H10 UNL     1      27.287   7.275  50.657  1.00  0.00     0.316 HD
ENDBRANCH  15  16
ENDBRANCH  12  15
ENDBRANCH   1  11
BRANCH   4  23
HETATM   23  N3  UNL     1      26.579   0.629  53.128  1.00  0.00    -0.336 N 
HETATM   24  C11 UNL     1      27.069  -0.725  53.022  1.00  0.00     0.120 A 
HETATM   25  C12 UNL     1      28.336  -1.121  53.217  1.00  0.00     0.087 A 
HETATM   26 CL1  UNL     1      28.973  -2.735  53.104  1.00  0.00    -0.080 Cl
HETATM   27  C13 UNL     1      29.340  -0.093  53.564  1.00  0.00     0.137 A 
HETATM   28  F1  UNL     1      30.659  -0.288  53.800  1.00  0.00    -0.205 F 
HETATM   29  C14 UNL     1      28.857   1.135  53.643  1.00  0.00     0.037 A 
HETATM   30  C15 UNL     1      27.493   1.689  53.448  1.00  0.00     0.160 A 
ENDBRANCH   4  23
TORSDOF 4
ENDMDL
MODEL 3
REMARK VINA RESULT:      -9.1      2.853      3.592
REMARK  4 active torsions:
REMARK  status: ('A' for Active; 'I' for Inactive)
REMARK    1  A    between atoms: C1_2  and  C2_3 
REMARK       I    between atoms: C1_2  and  N2_10 
REMARK    2  A    between atoms: C2_3  and  C3_4 
REMARK    3  A    between atoms: N2_10  and  C7_11 
REMARK    4  A    between atoms: C10_14  and  N3_15 
ROOT
HETATM    1  C7  UNL     1      24.005   3.646  51.858  1.00  0.00     0.130 A 
HETATM    2  C8  UNL     1      24.801   2.671  52.414  1.00  0.00     0.066 A 
HETATM    3  C9  UNL     1      24.244   1.546  52.943  1.00  0.00     0.025 A 
HETATM    4  C10 UNL     1      25.149   0.661  53.467  1.00  0.00     0.140 A 
HETATM    5  N4  UNL     1      24.662  -0.485  54.019  1.00  0.00    -0.242 NA
HETATM    6  C16 UNL     1      23.319  -0.729  54.043  1.00  0.00     0.120 A 
HETATM    7  C17 UNL     1      22.402   0.149  53.520  1.00  0.00     0.033 A 
HETATM    8  C18 UNL     1      22.892   1.294  52.968  1.00  0.00    -0.003 A 
HETATM    9  C19 UNL     1      22.118   2.298  52.399  1.00  0.00     0.131 A 
HETATM   10  N5  UNL     1      22.658   3.425  51.868  1.00  0.00    -0.242 NA
ENDROOT
BRANCH   1  11
HETATM   11  N2  UNL     1      24.565   4.830  51.300  1.00  0.00    -0.312 N 
HETATM   12  C1  UNL     1      25.052   4.927  49.966  1.00  0.00     0.225 C 
HETATM   13  O1  UNL     1      24.979   3.897  49.248  1.00  0.00    -0.273 OA
HETATM   14  H11 UNL     1      24.499   5.500  52.097  1.00  0.00     0.170 HD
BRANCH  12  15
HETATM   15  C2  UNL     1      25.572   6.289  49.684  1.00  0.00     0.141 C 
BRANCH  15  16
HETATM   16  C3  UNL     1      24.535   7.124  48.937  1.00  0.00     0.252 C 
HETATM   17  C4  UNL     1      24.204   8.279  49.890  1.00  0.00     0.203 C 
HETATM   18  O2  UNL     1      23.480   7.701  50.949  1.00  0.00    -0.387 OA
HETATM   19  C5  UNL     1      22.137   7.591  50.535  1.00  0.00     0.197 C 
HETATM   20  C6  UNL     1      22.134   7.170  49.081  1.00  0.00     0.296 C 
HETATM   21  N1  UNL     1      23.318   6.355  48.779  1.00  0.00     0.092 N 
HETATM   22  H10 UNL     1      23.292   5.602  49.525  1.00  0.00     0.316 HD
ENDBRANCH  15  16
ENDBRANCH  12  15
ENDBRANCH   1  11
BRANCH   4  23
HETATM   23  N3  UNL     1      26.566   0.705  53.523  1.00  0.00    -0.336 N 
HETATM   24  C11 UNL     1      27.059  -0.634  53.307  1.00  0.00     0.120 A 
HETATM   25  C12 UNL     1      28.347  -1.009  53.311  1.00  0.00     0.087 A 
HETATM   26 CL1  UNL     1      28.990  -2.605  53.058  1.00  0.00    -0.080 Cl
HETATM   27  C13 UNL     1      29.372   0.030  53.547  1.00  0.00     0.137 A 
HETATM   28  F1  UNL     1      30.715  -0.144  53.590  1.00  0.00    -0.205 F 
HETATM   29  C14 UNL     1      28.884   1.245  53.731  1.00  0.00     0.037 A 
HETATM   30  C15 UNL     1      27.497   1.774  53.746  1.00  0.00     0.160 A 
ENDBRANCH   4  23
TORSDOF 4
ENDMDL
MODEL 4
REMARK VINA RESULT:      -8.8      3.284      4.490
REMARK  4 active torsions:
REMARK  status: ('A' for Active; 'I' for Inactive)
REMARK    1  A    between atoms: C1_2  and  C2_3 
REMARK       I    between atoms: C1_2  and  N2_10 
REMARK    2  A    between atoms: C2_3  and  C3_4 
REMARK    3  A    between atoms: N2_10  and  C7_11 
REMARK    4  A    between atoms: C10_14  and  N3_15 
ROOT
HETATM    1  C7  UNL     1      21.792   2.225  51.917  1.00  0.00     0.130 A 
HETATM    2  C8  UNL     1      22.896   1.667  52.521  1.00  0.00     0.066 A 
HETATM    3  C9  UNL     1      22.759   0.596  53.350  1.00  0.00     0.025 A 
HETATM    4  C10 UNL     1      23.936   0.145  53.887  1.00  0.00     0.140 A 
HETATM    5  N4  UNL     1      23.875  -0.922  54.731  1.00  0.00    -0.242 NA
HETATM    6  C16 UNL     1      22.678  -1.509  55.025  1.00  0.00     0.120 A 
HETATM    7  C17 UNL     1      21.491  -1.066  54.493  1.00  0.00     0.033 A 
HETATM    8  C18 UNL     1      21.557  -0.000  53.648  1.00  0.00    -0.003 A 
HETATM    9  C19 UNL     1      20.463   0.587  53.022  1.00  0.00     0.131 A 
HETATM   10  N5  UNL     1      20.583   1.655  52.193  1.00  0.00    -0.242 NA
ENDROOT
BRANCH   1  11
HETATM   11  N2  UNL     1      21.910   3.345  51.046  1.00  0.00    -0.312 N 
HETATM   12  C1  UNL     1      22.146   4.677  51.490  1.00  0.00     0.225 C 
HETATM   13  O1  UNL     1      22.256   4.861  52.730  1.00  0.00    -0.273 OA
HETATM   14  H11 UNL     1      21.780   2.907  50.108  1.00  0.00     0.170 HD
BRANCH  12  15
HETATM   15  C2  UNL     1      22.219   5.618  50.345  1.00  0.00     0.141 C 
BRANCH  15  16
HETATM   16  C3  UNL     1      23.670   5.921  49.978  1.00  0.00     0.252 C 
HETATM   17  C4  UNL     1      23.891   5.207  48.639  1.00  0.00     0.203 C 
HETATM   18  O2  UNL     1      23.893   3.831  48.939  1.00  0.00    -0.387 OA
HETATM   19  C5  UNL     1      25.186   3.497  49.389  1.00  0.00     0.197 C 
HETATM   20  C6  UNL     1      25.679   4.630  50.264  1.00  0.00     0.296 C 
HETATM   21  N1  UNL     1      24.551   5.288  50.936  1.00  0.00     0.092 N 
HETATM   22  H10 UNL     1      24.036   4.481  51.393  1.00  0.00     0.316 HD
ENDBRANCH  15  16
ENDBRANCH  12  15
ENDBRANCH   1  11
BRANCH   4  23
HETATM   23  N3  UNL     1      25.272   0.584  53.699  1.00  0.00    -0.336 N 
HETATM   24  C11 UNL     1      26.096  -0.582  53.486  1.00  0.00     0.120 A 
HETATM   25  C12 UNL     1      27.424  -0.583  53.295  1.00  0.00     0.087 A 
HETATM   26 CL1  UNL     1      28.458  -1.957  53.038  1.00  0.00    -0.080 Cl
HETATM   27  C13 UNL     1      28.126   0.718  53.289  1.00  0.00     0.137 A 
HETATM   28  F1  UNL     1      29.453   0.928  53.115  1.00  0.00    -0.205 F 
HETATM   29  C14 UNL     1      27.338   1.763  53.477  1.00  0.00     0.037 A 
HETATM   30  C15 UNL     1      25.875   1.887  53.694  1.00  0.00     0.160 A 
ENDBRANCH   4  23
TORSDOF 4
ENDMDL
MODEL 5
REMARK VINA RESULT:      -8.5      3.549      5.142
REMARK  4 active torsions:
REMARK  status: ('A' for Active; 'I' for Inactive)
REMARK    1  A    between atoms: C1_2  and  C2_3 
REMARK       I    between atoms: C1_2  and  N2_10 
REMARK    2  A    between atoms: C2_3  and  C3_4 
REMARK    3  A    between atoms: N2_10  and  C7_11 
REMARK    4  A    between atoms: C10_14  and  N3_15 
ROOT
HETATM    1  C7  UNL     1      26.533   2.797  51.221  1.00  0.00     0.130 A 
HETATM    2  C8  UNL     1      25.345   2.128  51.409  1.00  0.00     0.066 A 
HETATM    3  C9  UNL     1      25.225   1.204  52.403  1.00  0.00     0.025 A 
HETATM    4  C10 UNL     1      23.993   0.611  52.474  1.00  0.00     0.140 A 
HETATM    5  N4  UNL     1      23.801  -0.329  53.442  1.00  0.00    -0.242 NA
HETATM    6  C16 UNL     1      24.810  -0.658  54.301  1.00  0.00     0.120 A 
HETATM    7  C17 UNL     1      26.050  -0.070  54.239  1.00  0.00     0.033 A 
HETATM    8  C18 UNL     1      26.237   0.870  53.271  1.00  0.00    -0.003 A 
HETATM    9  C19 UNL     1      27.422   1.563  53.054  1.00  0.00     0.131 A 
HETATM   10  N5  UNL     1      27.557   2.487  52.069  1.00  0.00    -0.242 NA
ENDROOT
BRANCH   1  11
HETATM   11  N2  UNL     1      26.683   3.767  50.189  1.00  0.00    -0.312 N 
HETATM   12  C1  UNL     1      25.815   4.881  50.013  1.00  0.00     0.225 C 
HETATM   13  O1  UNL     1      24.861   5.004  50.825  1.00  0.00    -0.273 OA
HETATM   14  H11 UNL     1      27.529   3.421  49.686  1.00  0.00     0.170 HD
BRANCH  12  15
HETATM   15  C2  UNL     1      26.233   5.706  48.852  1.00  0.00     0.141 C 
BRANCH  15  16
HETATM   16  C3  UNL     1      25.878   7.175  49.071  1.00  0.00     0.252 C 
HETATM   17  C4  UNL     1      26.635   7.928  47.970  1.00  0.00     0.203 C 
HETATM   18  O2  UNL     1      27.995   7.848  48.323  1.00  0.00    -0.387 OA
HETATM   19  C5  UNL     1      28.250   8.866  49.264  1.00  0.00     0.197 C 
HETATM   20  C6  UNL     1      27.061   8.941  50.197  1.00  0.00     0.296 C 
HETATM   21  N1  UNL     1      26.429   7.622  50.333  1.00  0.00     0.092 N 
HETATM   22  H10 UNL     1      27.240   6.990  50.594  1.00  0.00     0.316 HD
ENDBRANCH  15  16
ENDBRANCH  12  15
ENDBRANCH   1  11
BRANCH   4  23
HETATM   23  N3  UNL     1      22.815   0.819  51.710  1.00  0.00    -0.336 N 
HETATM   24  C11 UNL     1      21.708   0.246  52.439  1.00  0.00     0.120 A 
HETATM   25  C12 UNL     1      20.429   0.219  52.034  1.00  0.00     0.087 A 
HETATM   26 CL1  UNL     1      19.064  -0.459  52.872  1.00  0.00    -0.080 Cl
HETATM   27  C13 UNL     1      20.100   0.833  50.730  1.00  0.00     0.137 A 
HETATM   28  F1  UNL     1      18.879   0.906  50.148  1.00  0.00    -0.205 F 
HETATM   29  C14 UNL     1      21.137   1.355  50.097  1.00  0.00     0.037 A 
HETATM   30  C15 UNL     1      22.578   1.447  50.442  1.00  0.00     0.160 A 
ENDBRANCH   4  23
TORSDOF 4
ENDMDL
MODEL 6
REMARK VINA RESULT:      -8.5      4.740      8.149
REMARK  4 active torsions:
REMARK  status: ('A' for Active; 'I' for Inactive)
REMARK    1  A    between atoms: C1_2  and  C2_3 
REMARK       I    between atoms: C1_2  and  N2_10 
REMARK    2  A    between atoms: C2_3  and  C3_4 
REMARK    3  A    between atoms: N2_10  and  C7_11 
REMARK    4  A    between atoms: C10_14  and  N3_15 
ROOT
HETATM    1  C7  UNL     1      22.796  -0.022  52.764  1.00  0.00     0.130 A 
HETATM    2  C8  UNL     1      23.613   0.991  52.316  1.00  0.00     0.066 A 
HETATM    3  C9  UNL     1      24.888   1.103  52.780  1.00  0.00     0.025 A 
HETATM    4  C10 UNL     1      25.588   2.157  52.255  1.00  0.00     0.140 A 
HETATM    5  N4  UNL     1      26.871   2.335  52.679  1.00  0.00    -0.242 NA
HETATM    6  C16 UNL     1      27.424   1.487  53.595  1.00  0.00     0.120 A 
HETATM    7  C17 UNL     1      26.733   0.426  54.128  1.00  0.00     0.033 A 
HETATM    8  C18 UNL     1      25.452   0.251  53.701  1.00  0.00    -0.003 A 
HETATM    9  C19 UNL     1      24.600  -0.760  54.133  1.00  0.00     0.131 A 
HETATM   10  N5  UNL     1      23.327  -0.885  53.679  1.00  0.00    -0.242 NA
ENDROOT
BRANCH   1  11
HETATM   11  N2  UNL     1      21.459  -0.160  52.293  1.00  0.00    -0.312 N 
HETATM   12  C1  UNL     1      20.311   0.236  53.034  1.00  0.00     0.225 C 
HETATM   13  O1  UNL     1      20.501   0.737  54.173  1.00  0.00    -0.273 OA
HETATM   14  H11 UNL     1      21.602  -0.590  51.354  1.00  0.00     0.170 HD
BRANCH  12  15
HETATM   15  C2  UNL     1      19.065  -0.036  52.275  1.00  0.00     0.141 C 
BRANCH  15  16
HETATM   16  C3  UNL     1      18.531   1.240  51.628  1.00  0.00     0.252 C 
HETATM   17  C4  UNL     1      18.685   1.006  50.119  1.00  0.00     0.203 C 
HETATM   18  O2  UNL     1      20.069   1.049  49.870  1.00  0.00    -0.387 OA
HETATM   19  C5  UNL     1      20.438   2.404  49.749  1.00  0.00     0.197 C 
HETATM   20  C6  UNL     1      19.667   3.187  50.789  1.00  0.00     0.296 C 
HETATM   21  N1  UNL     1      19.395   2.351  51.966  1.00  0.00     0.092 N 
HETATM   22  H10 UNL     1      20.352   1.973  52.221  1.00  0.00     0.316 HD
ENDBRANCH  15  16
ENDBRANCH  12  15
ENDBRANCH   1  11
BRANCH   4  23
HETATM   23  N3  UNL     1      25.220   3.129  51.289  1.00  0.00    -0.336 N 
HETATM   24  C11 UNL     1      26.390   3.436  50.502  1.00  0.00     0.120 A 
HETATM   25  C12 UNL     1      26.455   4.328  49.502  1.00  0.00     0.087 A 
HETATM   26 CL1  UNL     1      27.836   4.734  48.527  1.00  0.00    -0.080 Cl
HETATM   27  C13 UNL     1      25.224   5.069  49.152  1.00  0.00     0.137 A 
HETATM   28  F1  UNL     1      25.083   6.006  48.184  1.00  0.00    -0.205 F 
HETATM   29  C14 UNL     1      24.171   4.755  49.888  1.00  0.00     0.037 A 
HETATM   30  C15 UNL     1      23.981   3.796  51.005  1.00  0.00     0.160 A 
ENDBRANCH   4  23
TORSDOF 4
ENDMDL
MODEL 7
REMARK VINA RESULT:      -8.3      4.116      5.758
REMARK  4 active torsions:
REMARK  status: ('A' for Active; 'I' for Inactive)
REMARK    1  A    between atoms: C1_2  and  C2_3 
REMARK       I    between atoms: C1_2  and  N2_10 
REMARK    2  A    between atoms: C2_3  and  C3_4 
REMARK    3  A    between atoms: N2_10  and  C7_11 
REMARK    4  A    between atoms: C10_14  and  N3_15 
ROOT
HETATM    1  C7  UNL     1      24.472   3.094  51.331  1.00  0.00     0.130 A 
HETATM    2  C8  UNL     1      24.076   1.960  52.004  1.00  0.00     0.066 A 
HETATM    3  C9  UNL     1      24.989   1.011  52.350  1.00  0.00     0.025 A 
HETATM    4  C10 UNL     1      24.460  -0.066  53.011  1.00  0.00     0.140 A 
HETATM    5  N4  UNL     1      25.314  -1.059  53.383  1.00  0.00    -0.242 NA
HETATM    6  C16 UNL     1      26.647  -0.972  53.100  1.00  0.00     0.120 A 
HETATM    7  C17 UNL     1      27.190   0.103  52.439  1.00  0.00     0.033 A 
HETATM    8  C18 UNL     1      26.332   1.094  52.069  1.00  0.00    -0.003 A 
HETATM    9  C19 UNL     1      26.698   2.250  51.389  1.00  0.00     0.131 A 
HETATM   10  N5  UNL     1      25.800   3.206  51.038  1.00  0.00    -0.242 NA
ENDROOT
BRANCH   1  11
HETATM   11  N2  UNL     1      23.536   4.100  50.959  1.00  0.00    -0.312 N 
HETATM   12  C1  UNL     1      23.076   5.122  51.837  1.00  0.00     0.225 C 
HETATM   13  O1  UNL     1      23.532   5.125  53.010  1.00  0.00    -0.273 OA
HETATM   14  H11 UNL     1      23.338   3.857  49.964  1.00  0.00     0.170 HD
BRANCH  12  15
HETATM   15  C2  UNL     1      22.107   6.016  51.155  1.00  0.00     0.141 C 
BRANCH  15  16
HETATM   16  C3  UNL     1      22.754   7.354  50.804  1.00  0.00     0.252 C 
HETATM   17  C4  UNL     1      22.903   7.326  49.277  1.00  0.00     0.203 C 
HETATM   18  O2  UNL     1      23.910   6.379  49.013  1.00  0.00    -0.387 OA
HETATM   19  C5  UNL     1      25.153   7.023  49.174  1.00  0.00     0.197 C 
HETATM   20  C6  UNL     1      25.046   7.942  50.372  1.00  0.00     0.296 C 
HETATM   21  N1  UNL     1      24.094   7.401  51.351  1.00  0.00     0.092 N 
HETATM   22  H10 UNL     1      24.436   6.409  51.501  1.00  0.00     0.316 HD
ENDBRANCH  15  16
ENDBRANCH  12  15
ENDBRANCH   1  11
BRANCH   4  23
HETATM   23  N3  UNL     1      23.130  -0.343  53.422  1.00  0.00    -0.336 N 
HETATM   24  C11 UNL     1      22.246   0.030  52.343  1.00  0.00     0.120 A 
HETATM   25  C12 UNL     1      20.908  -0.057  52.355  1.00  0.00     0.087 A 
HETATM   26 CL1  UNL     1      19.803   0.379  51.085  1.00  0.00    -0.080 Cl
HETATM   27  C13 UNL     1      20.258  -0.588  53.572  1.00  0.00     0.137 A 
HETATM   28  F1  UNL     1      18.930  -0.753  53.782  1.00  0.00    -0.205 F 
HETATM   29  C14 UNL     1      21.098  -0.927  54.535  1.00  0.00     0.037 A 
HETATM   30  C15 UNL     1      22.579  -0.879  54.634  1.00  0.00     0.160 A 
ENDBRANCH   4  23
TORSDOF 4
ENDMDL
MODEL 8
REMARK VINA RESULT:      -8.2      3.705      7.190
REMARK  4 active torsions:
REMARK  status: ('A' for Active; 'I' for Inactive)
REMARK    1  A    between atoms: C1_2  and  C2_3 
REMARK       I    between atoms: C1_2  and  N2_10 
REMARK    2  A    between atoms: C2_3  and  C3_4 
REMARK    3  A    between atoms: N2_10  and  C7_11 
REMARK    4  A    between atoms: C10_14  and  N3_15 
ROOT
HETATM    1  C7  UNL     1      22.674   3.206  51.275  1.00  0.00     0.130 A 
HETATM    2  C8  UNL     1      23.978   2.771  51.333  1.00  0.00     0.066 A 
HETATM    3  C9  UNL     1      24.946   3.399  50.610  1.00  0.00     0.025 A 
HETATM    4  C10 UNL     1      26.197   2.861  50.756  1.00  0.00     0.140 A 
HETATM    5  N4  UNL     1      27.216   3.435  50.057  1.00  0.00    -0.242 NA
HETATM    6  C16 UNL     1      26.983   4.507  49.244  1.00  0.00     0.120 A 
HETATM    7  C17 UNL     1      25.734   5.056  49.090  1.00  0.00     0.033 A 
HETATM    8  C18 UNL     1      24.718   4.479  49.791  1.00  0.00    -0.003 A 
HETATM    9  C19 UNL     1      23.391   4.893  49.755  1.00  0.00     0.131 A 
HETATM   10  N5  UNL     1      22.415   4.278  50.470  1.00  0.00    -0.242 NA
ENDROOT
BRANCH   1  11
HETATM   11  N2  UNL     1      21.644   2.565  52.021  1.00  0.00    -0.312 N 
HETATM   12  C1  UNL     1      20.764   1.585  51.483  1.00  0.00     0.225 C 
HETATM   13  O1  UNL     1      20.915   1.275  50.273  1.00  0.00    -0.273 OA
HETATM   14  H11 UNL     1      21.750   3.005  52.961  1.00  0.00     0.170 HD
BRANCH  12  15
HETATM   15  C2  UNL     1      19.803   1.108  52.509  1.00  0.00     0.141 C 
BRANCH  15  16
HETATM   16  C3  UNL     1      20.243  -0.236  53.085  1.00  0.00     0.252 C 
HETATM   17  C4  UNL     1      20.859   0.106  54.447  1.00  0.00     0.203 C 
HETATM   18  O2  UNL     1      22.068   0.768  54.161  1.00  0.00    -0.387 OA
HETATM   19  C5  UNL     1      23.044  -0.217  53.910  1.00  0.00     0.197 C 
HETATM   20  C6  UNL     1      22.389  -1.323  53.111  1.00  0.00     0.296 C 
HETATM   21  N1  UNL     1      21.310  -0.783  52.273  1.00  0.00     0.092 N 
HETATM   22  H10 UNL     1      21.782   0.010  51.751  1.00  0.00     0.316 HD
ENDBRANCH  15  16
ENDBRANCH  12  15
ENDBRANCH   1  11
BRANCH   4  23
HETATM   23  N3  UNL     1      26.658   1.782  51.555  1.00  0.00    -0.336 N 
HETATM   24  C11 UNL     1      27.635   2.304  52.482  1.00  0.00     0.120 A 
HETATM   25  C12 UNL     1      28.318   1.590  53.388  1.00  0.00     0.087 A 
HETATM   26 CL1  UNL     1      29.503   2.170  54.522  1.00  0.00    -0.080 Cl
HETATM   27  C13 UNL     1      28.057   0.137  53.470  1.00  0.00     0.137 A 
HETATM   28  F1  UNL     1      28.640  -0.751  54.310  1.00  0.00    -0.205 F 
HETATM   29  C14 UNL     1      27.151  -0.302  52.613  1.00  0.00     0.037 A 
HETATM   30  C15 UNL     1      26.337   0.384  51.578  1.00  0.00     0.160 A 
ENDBRANCH   4  23
TORSDOF 4
ENDMDL
MODEL 9
REMARK VINA RESULT:      -8.1      3.965      5.608
REMARK  4 active torsions:
REMARK  status: ('A' for Active; 'I' for Inactive)
REMARK    1  A    between atoms: C1_2  and  C2_3 
REMARK       I    between atoms: C1_2  and  N2_10 
REMARK    2  A    between atoms: C2_3  and  C3_4 
REMARK    3  A    between atoms: N2_10  and  C7_11 
REMARK    4  A    between atoms: C10_14  and  N3_15 
ROOT
HETATM    1  C7  UNL     1      26.070   2.910  51.463  1.00  0.00     0.130 A 
HETATM    2  C8  UNL     1      24.813   2.488  51.834  1.00  0.00     0.066 A 
HETATM    3  C9  UNL     1      24.660   1.373  52.600  1.00  0.00     0.025 A 
HETATM    4  C10 UNL     1      23.357   1.064  52.892  1.00  0.00     0.140 A 
HETATM    5  N4  UNL     1      23.127  -0.044  53.650  1.00  0.00    -0.242 NA
HETATM    6  C16 UNL     1      24.166  -0.809  54.096  1.00  0.00     0.120 A 
HETATM    7  C17 UNL     1      25.475  -0.510  53.811  1.00  0.00     0.033 A 
HETATM    8  C18 UNL     1      25.702   0.599  53.053  1.00  0.00    -0.003 A 
HETATM    9  C19 UNL     1      26.956   1.052  52.661  1.00  0.00     0.131 A 
HETATM   10  N5  UNL     1      27.126   2.162  51.898  1.00  0.00    -0.242 NA
ENDROOT
BRANCH   1  11
HETATM   11  N2  UNL     1      26.256   4.073  50.663  1.00  0.00    -0.312 N 
HETATM   12  C1  UNL     1      26.812   4.057  49.353  1.00  0.00     0.225 C 
HETATM   13  O1  UNL     1      27.157   2.940  48.886  1.00  0.00    -0.273 OA
HETATM   14  H11 UNL     1      25.893   4.827  51.286  1.00  0.00     0.170 HD
BRANCH  12  15
HETATM   15  C2  UNL     1      26.874   5.425  48.782  1.00  0.00     0.141 C 
BRANCH  15  16
HETATM   16  C3  UNL     1      25.940   6.372  49.531  1.00  0.00     0.252 C 
HETATM   17  C4  UNL     1      24.968   6.887  48.463  1.00  0.00     0.203 C 
HETATM   18  O2  UNL     1      25.727   7.737  47.638  1.00  0.00    -0.387 OA
HETATM   19  C5  UNL     1      25.786   8.998  48.265  1.00  0.00     0.197 C 
HETATM   20  C6  UNL     1      25.955   8.767  49.751  1.00  0.00     0.296 C 
HETATM   21  N1  UNL     1      26.689   7.520  49.998  1.00  0.00     0.092 N 
HETATM   22  H10 UNL     1      27.558   7.627  49.399  1.00  0.00     0.316 HD
ENDBRANCH  15  16
ENDBRANCH  12  15
ENDBRANCH   1  11
BRANCH   4  23
HETATM   23  N3  UNL     1      22.148   1.727  52.557  1.00  0.00    -0.336 N 
HETATM   24  C11 UNL     1      21.126   0.722  52.381  1.00  0.00     0.120 A 
HETATM   25  C12 UNL     1      19.850   0.948  52.036  1.00  0.00     0.087 A 
HETATM   26 CL1  UNL     1      18.587  -0.225  51.811  1.00  0.00    -0.080 Cl
HETATM   27  C13 UNL     1      19.428   2.348  51.818  1.00  0.00     0.137 A 
HETATM   28  F1  UNL     1      18.194   2.783  51.466  1.00  0.00    -0.205 F 
HETATM   29  C14 UNL     1      20.387   3.241  51.997  1.00  0.00     0.037 A 
HETATM   30  C15 UNL     1      21.816   3.112  52.378  1.00  0.00     0.160 A 
ENDBRANCH   4  23
TORSDOF 4
ENDMDL
