MODEL 1
REMARK VINA RESULT:      -9.2      0.000      0.000
REMARK  5 active torsions:
REMARK  status: ('A' for Active; 'I' for Inactive)
REMARK    1  A    between atoms: C3_3  and  N1_5 
REMARK    2  A    between atoms: N1_5  and  C4_6 
REMARK    3  A    between atoms: C12_16  and  C13_17 
REMARK    4  A    between atoms: C13_17  and  C14_18 
REMARK    5  A    between atoms: C18_23  and  N4_24 
ROOT
HETATM    1  C4  UNL     1      25.142   6.204  49.937  1.00  0.00     0.060 C 
HETATM    2  C5  UNL     1      24.545   6.802  50.991  1.00  0.00     0.093 C 
HETATM    3  C6  UNL     1      23.742   5.509  51.244  1.00  0.00     0.108 C 
HETATM    4  C7  UNL     1      23.449   4.133  50.854  1.00  0.00     0.122 C 
HETATM    5  F1  UNL     1      23.475   2.940  50.186  1.00  0.00    -0.246 F 
HETATM    6  C8  UNL     1      22.185   4.039  51.485  1.00  0.00     0.235 C 
HETATM    7  C9  UNL     1      21.021   3.793  52.012  1.00  0.00     0.051 C 
HETATM    8  N2  UNL     1      22.363   2.533  51.842  1.00  0.00     0.184 N 
HETATM    9  C10 UNL     1      22.411   1.106  51.967  1.00  0.00     0.565 A 
HETATM   10  C11 UNL     1      21.363   1.125  53.092  1.00  0.00     0.202 A 
HETATM   11  C12 UNL     1      20.602   0.611  54.042  1.00  0.00     0.018 C 
HETATM   12  N3  UNL     1      22.129   2.139  52.238  1.00  0.00     0.196 N 
HETATM   13  C16 UNL     1      23.253   2.335  52.985  1.00  0.00     0.437 A 
HETATM   14  C17 UNL     1      24.740   2.817  53.181  1.00  0.00     0.160 C 
HETATM   15  C18 UNL     1      25.529   1.606  52.732  1.00  0.00     0.112 C 
HETATM   16  N5  UNL     1      26.249   1.553  51.680  1.00  0.00    -0.185 NA
HETATM   17  C19 UNL     1      26.425   2.607  50.773  1.00  0.00     0.038 C 
HETATM   18  C20 UNL     1      26.574   3.471  50.059  1.00  0.00    -0.062 C 
HETATM   19  C21 UNL     1      26.770   4.581  49.172  1.00  0.00     0.217 C 
HETATM   20  N6  UNL     1      25.681   5.404  48.854  1.00  0.00    -0.373 N 
HETATM   21  H23 UNL     1      25.130   5.795  47.952  1.00  0.00     0.161 HD
ENDROOT
BRANCH   1  22
HETATM   22  N1  UNL     1      25.863   7.476  49.726  1.00  0.00    -0.248 NA
HETATM   23  H4  UNL     1      26.554   6.715  49.481  1.00  0.00     0.132 HD
BRANCH  22  24
HETATM   24  C3  UNL     1      27.301   7.983  49.304  1.00  0.00     0.142 A 
HETATM   25  C2  UNL     1      27.192   9.200  50.258  1.00  0.00     0.051 A 
HETATM   26  C1  UNL     1      28.268   9.132  49.420  1.00  0.00     0.236 A 
HETATM   27  O1  UNL     1      28.401   7.971  48.658  1.00  0.00    -0.360 OA
ENDBRANCH  22  24
ENDBRANCH   1  22
BRANCH  15  28
HETATM   28  N4  UNL     1      25.374   0.610  53.713  1.00  0.00    -0.387 N 
HETATM   29  H19 UNL     1      24.420   0.281  54.024  1.00  0.00     0.157 HD
HETATM   30  H20 UNL     1      26.042   0.063  54.253  1.00  0.00     0.157 HD
ENDBRANCH  15  28
BRANCH  11  31
HETATM   31  C13 UNL     1      21.068  -0.728  53.925  1.00  0.00     0.022 C 
BRANCH  31  32
HETATM   32  C14 UNL     1      21.735  -1.853  54.141  1.00  0.00    -0.006 C 
HETATM   33  C15 UNL     1      22.749  -1.633  55.208  1.00  0.00     0.011 C 
ENDBRANCH  31  32
ENDBRANCH  11  31
TORSDOF 5
ENDMDL
MODEL 2
REMARK VINA RESULT:      -9.0      1.810      3.480
REMARK  5 active torsions:
REMARK  status: ('A' for Active; 'I' for Inactive)
REMARK    1  A    between atoms: C3_3  and  N1_5 
REMARK    2  A    between atoms: N1_5  and  C4_6 
REMARK    3  A    between atoms: C12_16  and  C13_17 
REMARK    4  A    between atoms: C13_17  and  C14_18 
REMARK    5  A    between atoms: C18_23  and  N4_24 
ROOT
HETATM    1  C4  UNL     1      26.303   4.709  49.680  1.00  0.00     0.060 C 
HETATM    2  C5  UNL     1      26.750   3.512  49.241  1.00  0.00     0.093 C 
HETATM    3  C6  UNL     1      25.853   2.816  50.286  1.00  0.00     0.108 C 
HETATM    4  C7  UNL     1      24.874   2.941  51.362  1.00  0.00     0.122 C 
HETATM    5  F1  UNL     1      24.013   3.482  52.277  1.00  0.00    -0.246 F 
HETATM    6  C8  UNL     1      25.095   1.670  51.946  1.00  0.00     0.235 C 
HETATM    7  C9  UNL     1      25.174   0.543  52.589  1.00  0.00     0.051 C 
HETATM    8  N2  UNL     1      23.603   1.489  52.358  1.00  0.00     0.184 N 
HETATM    9  C10 UNL     1      22.298   1.413  52.946  1.00  0.00     0.565 A 
HETATM   10  C11 UNL     1      22.392  -0.118  53.061  1.00  0.00     0.202 A 
HETATM   11  C12 UNL     1      21.957  -1.337  53.328  1.00  0.00     0.018 C 
HETATM   12  N3  UNL     1      23.233   1.030  52.498  1.00  0.00     0.196 N 
HETATM   13  C16 UNL     1      22.755   1.124  51.224  1.00  0.00     0.437 A 
HETATM   14  C17 UNL     1      22.547   1.877  49.856  1.00  0.00     0.160 C 
HETATM   15  C18 UNL     1      21.314   2.708  50.133  1.00  0.00     0.112 C 
HETATM   16  N5  UNL     1      21.296   3.980  50.223  1.00  0.00    -0.185 NA
HETATM   17  C19 UNL     1      22.415   4.811  50.078  1.00  0.00     0.038 C 
HETATM   18  C20 UNL     1      23.322   5.472  49.940  1.00  0.00    -0.062 C 
HETATM   19  C21 UNL     1      24.478   6.300  49.743  1.00  0.00     0.217 C 
HETATM   20  N6  UNL     1      25.710   5.892  50.271  1.00  0.00    -0.373 N 
HETATM   21  H23 UNL     1      26.527   6.274  50.948  1.00  0.00     0.161 HD
ENDROOT
BRANCH   1  22
HETATM   22  N1  UNL     1      27.201   5.321  48.678  1.00  0.00    -0.248 NA
HETATM   23  H4  UNL     1      27.836   4.933  49.429  1.00  0.00     0.132 HD
BRANCH  22  24
HETATM   24  C3  UNL     1      28.745   5.578  48.452  1.00  0.00     0.142 A 
HETATM   25  C2  UNL     1      28.454   6.929  47.749  1.00  0.00     0.051 A 
HETATM   26  C1  UNL     1      29.740   6.470  47.758  1.00  0.00     0.236 A 
HETATM   27  O1  UNL     1      29.993   5.314  48.496  1.00  0.00    -0.360 OA
ENDBRANCH  22  24
ENDBRANCH   1  22
BRANCH  15  28
HETATM   28  N4  UNL     1      20.216   1.831  50.196  1.00  0.00    -0.387 N 
HETATM   29  H19 UNL     1      20.132   1.000  49.549  1.00  0.00     0.157 HD
HETATM   30  H20 UNL     1      19.390   1.799  50.791  1.00  0.00     0.157 HD
ENDBRANCH  15  28
BRANCH  11  31
HETATM   31  C13 UNL     1      20.639  -0.966  53.714  1.00  0.00     0.022 C 
BRANCH  31  32
HETATM   32  C14 UNL     1      19.317  -0.895  53.772  1.00  0.00    -0.006 C 
HETATM   33  C15 UNL     1      18.786  -0.418  52.466  1.00  0.00     0.011 C 
ENDBRANCH  31  32
ENDBRANCH  11  31
TORSDOF 5
ENDMDL
MODEL 3
REMARK VINA RESULT:      -8.9      3.379      5.695
REMARK  5 active torsions:
REMARK  status: ('A' for Active; 'I' for Inactive)
REMARK    1  A    between atoms: C3_3  and  N1_5 
REMARK    2  A    between atoms: N1_5  and  C4_6 
REMARK    3  A    between atoms: C12_16  and  C13_17 
REMARK    4  A    between atoms: C13_17  and  C14_18 
REMARK    5  A    between atoms: C18_23  and  N4_24 
ROOT
HETATM    1  C4  UNL     1      25.359   1.438  52.870  1.00  0.00     0.060 C 
HETATM    2  C5  UNL     1      25.294   0.089  52.843  1.00  0.00     0.093 C 
HETATM    3  C6  UNL     1      23.756   0.181  52.941  1.00  0.00     0.108 C 
HETATM    4  C7  UNL     1      22.566   1.023  53.022  1.00  0.00     0.122 C 
HETATM    5  F1  UNL     1      21.756   2.123  53.081  1.00  0.00    -0.246 F 
HETATM    6  C8  UNL     1      21.698   0.043  53.563  1.00  0.00     0.235 C 
HETATM    7  C9  UNL     1      20.780  -0.739  54.049  1.00  0.00     0.051 C 
HETATM    8  N2  UNL     1      20.450   0.585  52.804  1.00  0.00     0.184 N 
HETATM    9  C10 UNL     1      19.260   1.209  52.304  1.00  0.00     0.565 A 
HETATM   10  C11 UNL     1      18.472  -0.107  52.416  1.00  0.00     0.202 A 
HETATM   11  C12 UNL     1      17.428  -0.904  52.272  1.00  0.00     0.018 C 
HETATM   12  N3  UNL     1      19.908   0.377  52.633  1.00  0.00     0.196 N 
HETATM   13  C16 UNL     1      20.448   0.201  51.393  1.00  0.00     0.437 A 
HETATM   14  C17 UNL     1      21.544   0.462  50.292  1.00  0.00     0.160 C 
HETATM   15  C18 UNL     1      21.047   1.735  49.642  1.00  0.00     0.112 C 
HETATM   16  N5  UNL     1      21.624   2.869  49.723  1.00  0.00    -0.185 NA
HETATM   17  C19 UNL     1      22.812   3.117  50.425  1.00  0.00     0.038 C 
HETATM   18  C20 UNL     1      23.780   3.301  50.980  1.00  0.00    -0.062 C 
HETATM   19  C21 UNL     1      25.019   3.515  51.670  1.00  0.00     0.217 C 
HETATM   20  N6  UNL     1      25.235   2.883  52.902  1.00  0.00    -0.373 N 
HETATM   21  H23 UNL     1      25.507   3.137  53.966  1.00  0.00     0.161 HD
ENDROOT
BRANCH   1  22
HETATM   22  N1  UNL     1      26.827   1.289  52.803  1.00  0.00    -0.248 NA
HETATM   23  H4  UNL     1      26.642   1.884  53.656  1.00  0.00     0.132 HD
BRANCH  22  24
HETATM   24  C3  UNL     1      28.118   1.775  53.576  1.00  0.00     0.142 A 
HETATM   25  C2  UNL     1      28.714   0.344  53.556  1.00  0.00     0.051 A 
HETATM   26  C1  UNL     1      29.367   1.305  54.274  1.00  0.00     0.236 A 
HETATM   27  O1  UNL     1      28.875   2.607  54.180  1.00  0.00    -0.360 OA
ENDBRANCH  22  24
ENDBRANCH   1  22
BRANCH  15  28
HETATM   28  N4  UNL     1      19.900   1.411  48.895  1.00  0.00    -0.387 N 
HETATM   29  H19 UNL     1      19.142   2.121  48.706  1.00  0.00     0.157 HD
HETATM   30  H20 UNL     1      19.595   0.556  48.434  1.00  0.00     0.157 HD
ENDBRANCH  15  28
BRANCH  11  31
HETATM   31  C13 UNL     1      16.580   0.040  51.630  1.00  0.00     0.022 C 
BRANCH  31  32
HETATM   32  C14 UNL     1      15.654   0.966  51.425  1.00  0.00    -0.006 C 
HETATM   33  C15 UNL     1      14.787   1.078  52.630  1.00  0.00     0.011 C 
ENDBRANCH  31  32
ENDBRANCH  11  31
TORSDOF 5
ENDMDL
MODEL 4
REMARK VINA RESULT:      -8.4      3.210      7.220
REMARK  5 active torsions:
REMARK  status: ('A' for Active; 'I' for Inactive)
REMARK    1  A    between atoms: C3_3  and  N1_5 
REMARK    2  A    between atoms: N1_5  and  C4_6 
REMARK    3  A    between atoms: C12_16  and  C13_17 
REMARK    4  A    between atoms: C13_17  and  C14_18 
REMARK    5  A    between atoms: C18_23  and  N4_24 
ROOT
HETATM    1  C4  UNL     1      26.669   1.126  52.353  1.00  0.00     0.060 C 
HETATM    2  C5  UNL     1      27.564   2.126  52.509  1.00  0.00     0.093 C 
HETATM    3  C6  UNL     1      26.820   2.933  51.424  1.00  0.00     0.108 C 
HETATM    4  C7  UNL     1      25.710   3.013  50.478  1.00  0.00     0.122 C 
HETATM    5  F1  UNL     1      24.590   2.694  49.762  1.00  0.00    -0.246 F 
HETATM    6  C8  UNL     1      26.270   4.007  49.639  1.00  0.00     0.235 C 
HETATM    7  C9  UNL     1      26.639   4.912  48.781  1.00  0.00     0.051 C 
HETATM    8  N2  UNL     1      24.891   4.659  49.323  1.00  0.00     0.184 N 
HETATM    9  C10 UNL     1      23.621   5.119  48.841  1.00  0.00     0.565 A 
HETATM   10  C11 UNL     1      24.222   6.470  48.419  1.00  0.00     0.202 A 
HETATM   11  C12 UNL     1      24.204   7.706  47.952  1.00  0.00     0.018 C 
HETATM   12  N3  UNL     1      24.686   5.194  49.126  1.00  0.00     0.196 N 
HETATM   13  C16 UNL     1      24.400   5.481  50.428  1.00  0.00     0.437 A 
HETATM   14  C17 UNL     1      24.149   5.079  51.931  1.00  0.00     0.160 C 
HETATM   15  C18 UNL     1      22.677   4.729  51.926  1.00  0.00     0.112 C 
HETATM   16  N5  UNL     1      22.206   3.555  52.091  1.00  0.00    -0.185 NA
HETATM   17  C19 UNL     1      22.975   2.404  52.305  1.00  0.00     0.038 C 
HETATM   18  C20 UNL     1      23.606   1.485  52.496  1.00  0.00    -0.062 C 
HETATM   19  C21 UNL     1      24.417   0.330  52.756  1.00  0.00     0.217 C 
HETATM   20  N6  UNL     1      25.621   0.168  52.058  1.00  0.00    -0.373 N 
HETATM   21  H23 UNL     1      26.145  -0.587  51.405  1.00  0.00     0.161 HD
ENDROOT
BRANCH   1  22
HETATM   22  N1  UNL     1      27.437   0.388  53.378  1.00  0.00    -0.248 NA
HETATM   23  H4  UNL     1      27.598  -0.134  52.474  1.00  0.00     0.132 HD
BRANCH  22  24
HETATM   24  C3  UNL     1      28.339  -0.905  53.500  1.00  0.00     0.142 A 
HETATM   25  C2  UNL     1      29.578  -0.050  53.869  1.00  0.00     0.051 A 
HETATM   26  C1  UNL     1      29.755  -1.389  53.663  1.00  0.00     0.236 A 
HETATM   27  O1  UNL     1      28.607  -2.152  53.447  1.00  0.00    -0.360 OA
ENDBRANCH  22  24
ENDBRANCH   1  22
BRANCH  15  28
HETATM   28  N4  UNL     1      21.956   5.928  51.782  1.00  0.00    -0.387 N 
HETATM   29  H19 UNL     1      20.959   5.938  51.433  1.00  0.00     0.157 HD
HETATM   30  H20 UNL     1      22.193   6.902  51.961  1.00  0.00     0.157 HD
ENDBRANCH  15  28
BRANCH  11  31
HETATM   31  C13 UNL     1      22.797   7.792  47.757  1.00  0.00     0.022 C 
BRANCH  31  32
HETATM   32  C14 UNL     1      21.558   8.262  47.715  1.00  0.00    -0.006 C 
HETATM   33  C15 UNL     1      20.626   7.258  48.296  1.00  0.00     0.011 C 
ENDBRANCH  31  32
ENDBRANCH  11  31
TORSDOF 5
ENDMDL
MODEL 5
REMARK VINA RESULT:      -8.4      2.982      8.331
REMARK  5 active torsions:
REMARK  status: ('A' for Active; 'I' for Inactive)
REMARK    1  A    between atoms: C3_3  and  N1_5 
REMARK    2  A    between atoms: N1_5  and  C4_6 
REMARK    3  A    between atoms: C12_16  and  C13_17 
REMARK    4  A    between atoms: C13_17  and  C14_18 
REMARK    5  A    between atoms: C18_23  and  N4_24 
ROOT
HETATM    1  C4  UNL     1      22.756   1.554  52.385  1.00  0.00     0.060 C 
HETATM    2  C5  UNL     1      23.982   1.640  52.947  1.00  0.00     0.093 C 
HETATM    3  C6  UNL     1      24.435   2.534  51.773  1.00  0.00     0.108 C 
HETATM    4  C7  UNL     1      24.097   3.208  50.524  1.00  0.00     0.122 C 
HETATM    5  F1  UNL     1      23.393   3.655  49.440  1.00  0.00    -0.246 F 
HETATM    6  C8  UNL     1      25.420   3.355  50.042  1.00  0.00     0.235 C 
HETATM    7  C9  UNL     1      26.567   3.572  49.469  1.00  0.00     0.051 C 
HETATM    8  N2  UNL     1      25.125   4.722  49.355  1.00  0.00     0.184 N 
HETATM    9  C10 UNL     1      24.814   5.850  48.527  1.00  0.00     0.565 A 
HETATM   10  C11 UNL     1      26.288   6.286  48.490  1.00  0.00     0.202 A 
HETATM   11  C12 UNL     1      27.307   7.070  48.189  1.00  0.00     0.018 C 
HETATM   12  N3  UNL     1      25.442   5.201  49.162  1.00  0.00     0.196 N 
HETATM   13  C16 UNL     1      25.061   5.823  50.314  1.00  0.00     0.437 A 
HETATM   14  C17 UNL     1      24.146   5.980  51.587  1.00  0.00     0.160 C 
HETATM   15  C18 UNL     1      22.978   6.775  51.044  1.00  0.00     0.112 C 
HETATM   16  N5  UNL     1      21.792   6.327  50.905  1.00  0.00    -0.185 NA
HETATM   17  C19 UNL     1      21.381   5.028  51.234  1.00  0.00     0.038 C 
HETATM   18  C20 UNL     1      21.057   3.983  51.521  1.00  0.00    -0.062 C 
HETATM   19  C21 UNL     1      20.655   2.661  51.908  1.00  0.00     0.217 C 
HETATM   20  N6  UNL     1      21.509   1.582  51.645  1.00  0.00    -0.373 N 
HETATM   21  H23 UNL     1      21.500   0.581  51.127  1.00  0.00     0.161 HD
ENDROOT
BRANCH   1  22
HETATM   22  N1  UNL     1      22.386   0.681  53.518  1.00  0.00    -0.248 NA
HETATM   23  H4  UNL     1      21.769   0.379  52.715  1.00  0.00     0.132 HD
BRANCH  22  24
HETATM   24  C3  UNL     1      21.361  -0.475  53.855  1.00  0.00     0.142 A 
HETATM   25  C2  UNL     1      22.361  -1.122  54.847  1.00  0.00     0.051 A 
HETATM   26  C1  UNL     1      21.206  -1.794  54.565  1.00  0.00     0.236 A 
HETATM   27  O1  UNL     1      20.273  -1.136  53.762  1.00  0.00    -0.360 OA
ENDBRANCH  22  24
ENDBRANCH   1  22
BRANCH  15  28
HETATM   28  N4  UNL     1      23.431   8.084  50.802  1.00  0.00    -0.387 N 
HETATM   29  H19 UNL     1      23.789   8.381  49.853  1.00  0.00     0.157 HD
HETATM   30  H20 UNL     1      23.498   8.912  51.391  1.00  0.00     0.157 HD
ENDBRANCH  15  28
BRANCH  11  31
HETATM   31  C13 UNL     1      26.552   8.087  47.540  1.00  0.00     0.022 C 
BRANCH  31  32
HETATM   32  C14 UNL     1      26.200   9.055  46.707  1.00  0.00    -0.006 C 
HETATM   33  C15 UNL     1      25.593   8.464  45.484  1.00  0.00     0.011 C 
ENDBRANCH  31  32
ENDBRANCH  11  31
TORSDOF 5
ENDMDL
MODEL 6
REMARK VINA RESULT:      -8.1      1.693      3.417
REMARK  5 active torsions:
REMARK  status: ('A' for Active; 'I' for Inactive)
REMARK    1  A    between atoms: C3_3  and  N1_5 
REMARK    2  A    between atoms: N1_5  and  C4_6 
REMARK    3  A    between atoms: C12_16  and  C13_17 
REMARK    4  A    between atoms: C13_17  and  C14_18 
REMARK    5  A    between atoms: C18_23  and  N4_24 
ROOT
HETATM    1  C4  UNL     1      24.966   6.480  50.567  1.00  0.00     0.060 C 
HETATM    2  C5  UNL     1      25.730   5.557  49.942  1.00  0.00     0.093 C 
HETATM    3  C6  UNL     1      25.085   4.460  50.816  1.00  0.00     0.108 C 
HETATM    4  C7  UNL     1      24.127   4.109  51.860  1.00  0.00     0.122 C 
HETATM    5  F1  UNL     1      23.162   4.211  52.823  1.00  0.00    -0.246 F 
HETATM    6  C8  UNL     1      24.711   2.870  52.220  1.00  0.00     0.235 C 
HETATM    7  C9  UNL     1      25.119   1.715  52.659  1.00  0.00     0.051 C 
HETATM    8  N2  UNL     1      23.340   2.202  52.538  1.00  0.00     0.184 N 
HETATM    9  C10 UNL     1      22.120   1.655  53.056  1.00  0.00     0.565 A 
HETATM   10  C11 UNL     1      22.649   0.219  52.904  1.00  0.00     0.202 A 
HETATM   11  C12 UNL     1      22.585  -1.100  52.938  1.00  0.00     0.018 C 
HETATM   12  N3  UNL     1      23.118   1.640  52.583  1.00  0.00     0.196 N 
HETATM   13  C16 UNL     1      22.615   1.820  51.328  1.00  0.00     0.437 A 
HETATM   14  C17 UNL     1      22.180   2.714  50.106  1.00  0.00     0.160 C 
HETATM   15  C18 UNL     1      20.764   3.098  50.479  1.00  0.00     0.112 C 
HETATM   16  N5  UNL     1      20.385   4.275  50.789  1.00  0.00    -0.185 NA
HETATM   17  C19 UNL     1      21.218   5.401  50.833  1.00  0.00     0.038 C 
HETATM   18  C20 UNL     1      21.896   6.306  50.847  1.00  0.00    -0.062 C 
HETATM   19  C21 UNL     1      22.763   7.449  50.841  1.00  0.00     0.217 C 
HETATM   20  N6  UNL     1      24.068   7.321  51.334  1.00  0.00    -0.373 N 
HETATM   21  H23 UNL     1      24.752   7.792  52.097  1.00  0.00     0.161 HD
ENDROOT
BRANCH   1  22
HETATM   22  N1  UNL     1      25.636   7.490  49.722  1.00  0.00    -0.248 NA
HETATM   23  H4  UNL     1      25.853   7.766  50.719  1.00  0.00     0.132 HD
BRANCH  22  24
HETATM   24  C3  UNL     1      26.496   8.808  49.884  1.00  0.00     0.142 A 
HETATM   25  C2  UNL     1      27.451   8.368  48.744  1.00  0.00     0.051 A 
HETATM   26  C1  UNL     1      27.769   9.489  49.456  1.00  0.00     0.236 A 
HETATM   27  O1  UNL     1      26.835   9.926  50.396  1.00  0.00    -0.360 OA
ENDBRANCH  22  24
ENDBRANCH   1  22
BRANCH  15  28
HETATM   28  N4  UNL     1      19.964   1.948  50.347  1.00  0.00    -0.387 N 
HETATM   29  H19 UNL     1      19.322   1.811  49.519  1.00  0.00     0.157 HD
HETATM   30  H20 UNL     1      19.849   1.117  50.923  1.00  0.00     0.157 HD
ENDBRANCH  15  28
BRANCH  11  31
HETATM   31  C13 UNL     1      21.222  -1.194  53.334  1.00  0.00     0.022 C 
BRANCH  31  32
HETATM   32  C14 UNL     1      20.131  -1.281  54.082  1.00  0.00    -0.006 C 
HETATM   33  C15 UNL     1      18.952  -0.827  53.297  1.00  0.00     0.011 C 
ENDBRANCH  31  32
ENDBRANCH  11  31
TORSDOF 5
ENDMDL
MODEL 7
REMARK VINA RESULT:      -8.0      2.558      3.514
REMARK  5 active torsions:
REMARK  status: ('A' for Active; 'I' for Inactive)
REMARK    1  A    between atoms: C3_3  and  N1_5 
REMARK    2  A    between atoms: N1_5  and  C4_6 
REMARK    3  A    between atoms: C12_16  and  C13_17 
REMARK    4  A    between atoms: C13_17  and  C14_18 
REMARK    5  A    between atoms: C18_23  and  N4_24 
ROOT
HETATM    1  C4  UNL     1      23.835   3.924  50.811  1.00  0.00     0.060 C 
HETATM    2  C5  UNL     1      22.843   4.749  51.209  1.00  0.00     0.093 C 
HETATM    3  C6  UNL     1      21.867   3.553  51.193  1.00  0.00     0.108 C 
HETATM    4  C7  UNL     1      21.657   2.127  50.965  1.00  0.00     0.122 C 
HETATM    5  F1  UNL     1      21.886   0.813  50.661  1.00  0.00    -0.246 F 
HETATM    6  C8  UNL     1      20.255   2.187  50.771  1.00  0.00     0.235 C 
HETATM    7  C9  UNL     1      18.974   2.075  50.579  1.00  0.00     0.051 C 
HETATM    8  N2  UNL     1      20.003   0.800  51.435  1.00  0.00     0.184 N 
HETATM    9  C10 UNL     1      19.781  -0.562  51.823  1.00  0.00     0.565 A 
HETATM   10  C11 UNL     1      18.301  -0.280  52.128  1.00  0.00     0.202 A 
HETATM   11  C12 UNL     1      17.082  -0.561  52.553  1.00  0.00     0.018 C 
HETATM   12  N3  UNL     1      19.539   0.508  51.692  1.00  0.00     0.196 N 
HETATM   13  C16 UNL     1      20.079   0.861  52.893  1.00  0.00     0.437 A 
HETATM   14  C17 UNL     1      21.260   1.363  53.806  1.00  0.00     0.160 C 
HETATM   15  C18 UNL     1      21.995   0.077  54.115  1.00  0.00     0.112 C 
HETATM   16  N5  UNL     1      23.160  -0.219  53.688  1.00  0.00    -0.185 NA
HETATM   17  C19 UNL     1      23.946   0.601  52.868  1.00  0.00     0.038 C 
HETATM   18  C20 UNL     1      24.579   1.280  52.221  1.00  0.00    -0.062 C 
HETATM   19  C21 UNL     1      25.379   2.158  51.417  1.00  0.00     0.217 C 
HETATM   20  N6  UNL     1      24.768   2.896  50.393  1.00  0.00    -0.373 N 
HETATM   21  H23 UNL     1      24.864   3.075  49.285  1.00  0.00     0.161 HD
ENDROOT
BRANCH   1  22
HETATM   22  N1  UNL     1      24.716   5.110  50.818  1.00  0.00    -0.248 NA
HETATM   23  H4  UNL     1      24.833   4.677  49.862  1.00  0.00     0.132 HD
BRANCH  22  24
HETATM   24  C3  UNL     1      25.750   5.840  49.871  1.00  0.00     0.142 A 
HETATM   25  C2  UNL     1      25.416   7.215  50.505  1.00  0.00     0.051 A 
HETATM   26  C1  UNL     1      26.241   7.190  49.417  1.00  0.00     0.236 A 
HETATM   27  O1  UNL     1      26.617   5.934  48.939  1.00  0.00    -0.360 OA
ENDBRANCH  22  24
ENDBRANCH   1  22
BRANCH  15  28
HETATM   28  N4  UNL     1      21.192  -0.669  54.997  1.00  0.00    -0.387 N 
HETATM   29  H19 UNL     1      20.488  -0.206  55.633  1.00  0.00     0.157 HD
HETATM   30  H20 UNL     1      21.115  -1.667  55.184  1.00  0.00     0.157 HD
ENDBRANCH  15  28
BRANCH  11  31
HETATM   31  C13 UNL     1      17.350  -1.894  52.968  1.00  0.00     0.022 C 
BRANCH  31  32
HETATM   32  C14 UNL     1      17.670  -2.940  53.718  1.00  0.00    -0.006 C 
HETATM   33  C15 UNL     1      16.791  -4.089  53.370  1.00  0.00     0.011 C 
ENDBRANCH  31  32
ENDBRANCH  11  31
TORSDOF 5
ENDMDL
MODEL 8
REMARK VINA RESULT:      -8.0      1.840      2.093
REMARK  5 active torsions:
REMARK  status: ('A' for Active; 'I' for Inactive)
REMARK    1  A    between atoms: C3_3  and  N1_5 
REMARK    2  A    between atoms: N1_5  and  C4_6 
REMARK    3  A    between atoms: C12_16  and  C13_17 
REMARK    4  A    between atoms: C13_17  and  C14_18 
REMARK    5  A    between atoms: C18_23  and  N4_24 
ROOT
HETATM    1  C4  UNL     1      26.153   6.721  49.546  1.00  0.00     0.060 C 
HETATM    2  C5  UNL     1      25.508   7.450  50.483  1.00  0.00     0.093 C 
HETATM    3  C6  UNL     1      24.333   6.450  50.423  1.00  0.00     0.108 C 
HETATM    4  C7  UNL     1      23.768   5.232  49.852  1.00  0.00     0.122 C 
HETATM    5  F1  UNL     1      23.619   4.098  49.102  1.00  0.00    -0.246 F 
HETATM    6  C8  UNL     1      22.414   5.508  50.161  1.00  0.00     0.235 C 
HETATM    7  C9  UNL     1      21.135   5.610  50.379  1.00  0.00     0.051 C 
HETATM    8  N2  UNL     1      22.061   4.011  50.411  1.00  0.00     0.184 N 
HETATM    9  C10 UNL     1      21.668   2.632  50.412  1.00  0.00     0.565 A 
HETATM   10  C11 UNL     1      20.424   2.943  51.260  1.00  0.00     0.202 A 
HETATM   11  C12 UNL     1      19.337   2.661  51.957  1.00  0.00     0.018 C 
HETATM   12  N3  UNL     1      21.634   3.697  50.704  1.00  0.00     0.196 N 
HETATM   13  C16 UNL     1      22.545   3.536  51.706  1.00  0.00     0.437 A 
HETATM   14  C17 UNL     1      24.010   3.548  52.284  1.00  0.00     0.160 C 
HETATM   15  C18 UNL     1      24.508   2.165  51.922  1.00  0.00     0.112 C 
HETATM   16  N5  UNL     1      25.420   1.920  51.066  1.00  0.00    -0.185 NA
HETATM   17  C19 UNL     1      26.109   2.890  50.325  1.00  0.00     0.038 C 
HETATM   18  C20 UNL     1      26.670   3.683  49.747  1.00  0.00    -0.062 C 
HETATM   19  C21 UNL     1      27.389   4.701  49.035  1.00  0.00     0.217 C 
HETATM   20  N6  UNL     1      26.694   5.817  48.549  1.00  0.00    -0.373 N 
HETATM   21  H23 UNL     1      26.519   6.371  47.584  1.00  0.00     0.161 HD
ENDROOT
BRANCH   1  22
HETATM   22  N1  UNL     1      27.235   7.723  49.626  1.00  0.00    -0.248 NA
HETATM   23  H4  UNL     1      27.324   7.286  48.668  1.00  0.00     0.132 HD
BRANCH  22  24
HETATM   24  C3  UNL     1      28.438   8.260  48.751  1.00  0.00     0.142 A 
HETATM   25  C2  UNL     1      28.525   9.555  49.599  1.00  0.00     0.051 A 
HETATM   26  C1  UNL     1      29.304   9.462  48.482  1.00  0.00     0.236 A 
HETATM   27  O1  UNL     1      29.293   8.242  47.804  1.00  0.00    -0.360 OA
ENDBRANCH  22  24
ENDBRANCH   1  22
BRANCH  15  28
HETATM   28  N4  UNL     1      23.836   1.243  52.746  1.00  0.00    -0.387 N 
HETATM   29  H19 UNL     1      22.792   1.291  52.896  1.00  0.00     0.157 HD
HETATM   30  H20 UNL     1      24.155   0.443  53.289  1.00  0.00     0.157 HD
ENDBRANCH  15  28
BRANCH  11  31
HETATM   31  C13 UNL     1      19.416   1.246  51.829  1.00  0.00     0.022 C 
BRANCH  31  32
HETATM   32  C14 UNL     1      19.079  -0.023  51.645  1.00  0.00    -0.006 C 
HETATM   33  C15 UNL     1      18.642  -0.614  52.938  1.00  0.00     0.011 C 
ENDBRANCH  31  32
ENDBRANCH  11  31
TORSDOF 5
ENDMDL
MODEL 9
REMARK VINA RESULT:      -8.0      2.104      3.825
REMARK  5 active torsions:
REMARK  status: ('A' for Active; 'I' for Inactive)
REMARK    1  A    between atoms: C3_3  and  N1_5 
REMARK    2  A    between atoms: N1_5  and  C4_6 
REMARK    3  A    between atoms: C12_16  and  C13_17 
REMARK    4  A    between atoms: C13_17  and  C14_18 
REMARK    5  A    between atoms: C18_23  and  N4_24 
ROOT
HETATM    1  C4  UNL     1      26.482   6.439  49.700  1.00  0.00     0.060 C 
HETATM    2  C5  UNL     1      26.820   5.384  48.928  1.00  0.00     0.093 C 
HETATM    3  C6  UNL     1      25.806   4.517  49.703  1.00  0.00     0.108 C 
HETATM    4  C7  UNL     1      24.796   4.429  50.753  1.00  0.00     0.122 C 
HETATM    5  F1  UNL     1      23.955   4.768  51.776  1.00  0.00    -0.246 F 
HETATM    6  C8  UNL     1      24.852   3.025  50.931  1.00  0.00     0.235 C 
HETATM    7  C9  UNL     1      24.780   1.756  51.206  1.00  0.00     0.051 C 
HETATM    8  N2  UNL     1      23.332   2.903  51.248  1.00  0.00     0.184 N 
HETATM    9  C10 UNL     1      22.000   2.806  51.769  1.00  0.00     0.565 A 
HETATM   10  C11 UNL     1      21.924   1.311  51.419  1.00  0.00     0.202 A 
HETATM   11  C12 UNL     1      21.351   0.127  51.302  1.00  0.00     0.018 C 
HETATM   12  N3  UNL     1      22.909   2.470  51.239  1.00  0.00     0.196 N 
HETATM   13  C16 UNL     1      22.505   2.992  50.046  1.00  0.00     0.437 A 
HETATM   14  C17 UNL     1      22.443   4.137  48.965  1.00  0.00     0.160 C 
HETATM   15  C18 UNL     1      21.293   4.985  49.463  1.00  0.00     0.112 C 
HETATM   16  N5  UNL     1      21.406   6.166  49.931  1.00  0.00    -0.185 NA
HETATM   17  C19 UNL     1      22.613   6.867  50.058  1.00  0.00     0.038 C 
HETATM   18  C20 UNL     1      23.591   7.429  50.138  1.00  0.00    -0.062 C 
HETATM   19  C21 UNL     1      24.835   8.139  50.215  1.00  0.00     0.217 C 
HETATM   20  N6  UNL     1      25.991   7.453  50.613  1.00  0.00    -0.373 N 
HETATM   21  H23 UNL     1      26.811   7.519  51.383  1.00  0.00     0.161 HD
ENDROOT
BRANCH   1  22
HETATM   22  N1  UNL     1      27.487   7.213  48.942  1.00  0.00    -0.248 NA
HETATM   23  H4  UNL     1      27.475   7.637  49.910  1.00  0.00     0.132 HD
BRANCH  22  24
HETATM   24  C3  UNL     1      28.456   8.446  49.148  1.00  0.00     0.142 A 
HETATM   25  C2  UNL     1      29.284   8.052  47.899  1.00  0.00     0.051 A 
HETATM   26  C1  UNL     1      29.741   9.075  48.679  1.00  0.00     0.236 A 
HETATM   27  O1  UNL     1      28.917   9.485  49.729  1.00  0.00    -0.360 OA
ENDBRANCH  22  24
ENDBRANCH   1  22
BRANCH  15  28
HETATM   28  N4  UNL     1      20.106   4.261  49.244  1.00  0.00    -0.387 N 
HETATM   29  H19 UNL     1      19.455   4.493  48.446  1.00  0.00     0.157 HD
HETATM   30  H20 UNL     1      19.681   3.471  49.725  1.00  0.00     0.157 HD
ENDBRANCH  15  28
BRANCH  11  31
HETATM   31  C13 UNL     1      20.063   0.516  51.763  1.00  0.00     0.022 C 
BRANCH  31  32
HETATM   32  C14 UNL     1      18.760   0.758  51.805  1.00  0.00    -0.006 C 
HETATM   33  C15 UNL     1      18.026  -0.509  52.068  1.00  0.00     0.011 C 
ENDBRANCH  31  32
ENDBRANCH  11  31
TORSDOF 5
ENDMDL
