MODEL 1
REMARK VINA RESULT:      -8.3      0.000      0.000
REMARK  5 active torsions:
REMARK  status: ('A' for Active; 'I' for Inactive)
REMARK    1  A    between atoms: N1_1  and  C1_2 
REMARK    2  A    between atoms: N2_5  and  C4_6 
REMARK    3  A    between atoms: C4_6  and  C5_7 
REMARK    4  A    between atoms: C8_12  and  N5_13 
REMARK    5  A    between atoms: N5_13  and  C9_14 
ROOT
HETATM    1  C5  UNL     1      23.634   0.826  52.854  1.00  0.00     0.002 A 
HETATM    2  C6  UNL     1      22.958   1.503  51.860  1.00  0.00     0.030 A 
HETATM    3  C7  UNL     1      21.660   1.044  51.819  1.00  0.00     0.120 A 
HETATM    4  N3  UNL     1      21.586   0.108  52.783  1.00  0.00    -0.228 N 
HETATM    5  N4  UNL     1      20.515  -0.595  53.093  1.00  0.00     0.026 NA
HETATM    6  C8  UNL     1      20.476  -1.517  54.056  1.00  0.00     0.744 A 
HETATM    7  N6  UNL     1      21.640  -1.674  54.697  1.00  0.00    -0.071 NA
HETATM    8  C15 UNL     1      22.769  -1.001  54.441  1.00  0.00     0.168 A 
HETATM    9  C16 UNL     1      22.744  -0.068  53.441  1.00  0.00     0.084 A 
ENDROOT
BRANCH   1  10
HETATM   10  C4  UNL     1      25.039   0.855  53.393  1.00  0.00     0.313 C 
BRANCH  10  11
HETATM   11  N2  UNL     1      25.937   0.319  52.417  1.00  0.00     0.092 N 
HETATM   12  C3  UNL     1      26.878   1.289  51.884  1.00  0.00     0.275 C 
HETATM   13  C2  UNL     1      27.675   1.927  52.981  1.00  0.00     0.065 C 
HETATM   14  C1  UNL     1      28.347   0.834  53.763  1.00  0.00     0.221 C 
HETATM   15  C18 UNL     1      28.107  -0.550  53.180  1.00  0.00     0.065 C 
HETATM   16  C17 UNL     1      26.644  -0.818  52.976  1.00  0.00     0.275 C 
BRANCH  14  17
HETATM   17  N1  UNL     1      29.783   1.102  53.733  1.00  0.00     0.083 N 
HETATM   18  H1  UNL     1      30.019   1.483  52.811  1.00  0.00     0.313 HD
HETATM   19  H2  UNL     1      30.252   0.180  53.892  1.00  0.00     0.313 HD
ENDBRANCH  14  17
ENDBRANCH  10  11
ENDBRANCH   1  10
BRANCH   6  20
HETATM   20  N5  UNL     1      19.279  -2.228  54.324  1.00  0.00    -0.187 N 
HETATM   21  H12 UNL     1      19.305  -2.872  55.170  1.00  0.00     0.184 HD
BRANCH  20  22
HETATM   22  C9  UNL     1      18.049  -2.204  53.625  1.00  0.00     0.052 A 
HETATM   23  C10 UNL     1      17.284  -3.335  53.494  1.00  0.00     0.030 A 
HETATM   24  C11 UNL     1      16.086  -3.356  52.827  1.00  0.00     0.005 A 
HETATM   25  C12 UNL     1      15.580  -2.216  52.241  1.00  0.00     0.042 A 
HETATM   26  C13 UNL     1      16.309  -1.059  52.345  1.00  0.00     0.118 A 
HETATM   27  F1  UNL     1      15.821   0.066  51.773  1.00  0.00    -0.206 F 
HETATM   28  C14 UNL     1      17.507  -1.090  53.026  1.00  0.00     0.072 A 
ENDBRANCH  20  22
ENDBRANCH   6  20
TORSDOF 5
ENDMDL
MODEL 2
REMARK VINA RESULT:      -8.2      1.483      2.104
REMARK  5 active torsions:
REMARK  status: ('A' for Active; 'I' for Inactive)
REMARK    1  A    between atoms: N1_1  and  C1_2 
REMARK    2  A    between atoms: N2_5  and  C4_6 
REMARK    3  A    between atoms: C4_6  and  C5_7 
REMARK    4  A    between atoms: C8_12  and  N5_13 
REMARK    5  A    between atoms: N5_13  and  C9_14 
ROOT
HETATM    1  C5  UNL     1      24.744   1.871  52.507  1.00  0.00     0.002 A 
HETATM    2  C6  UNL     1      24.175   3.103  52.258  1.00  0.00     0.030 A 
HETATM    3  C7  UNL     1      22.816   3.010  52.459  1.00  0.00     0.120 A 
HETATM    4  N3  UNL     1      22.601   1.732  52.823  1.00  0.00    -0.228 N 
HETATM    5  N4  UNL     1      21.430   1.202  53.114  1.00  0.00     0.026 NA
HETATM    6  C8  UNL     1      21.250  -0.071  53.471  1.00  0.00     0.744 A 
HETATM    7  N6  UNL     1      22.383  -0.783  53.511  1.00  0.00    -0.071 NA
HETATM    8  C15 UNL     1      23.607  -0.318  53.228  1.00  0.00     0.168 A 
HETATM    9  C16 UNL     1      23.724   0.997  52.869  1.00  0.00     0.084 A 
ENDROOT
BRANCH   1  10
HETATM   10  C4  UNL     1      26.143   1.319  52.467  1.00  0.00     0.313 C 
BRANCH  10  11
HETATM   11  N2  UNL     1      26.776   1.528  53.733  1.00  0.00     0.092 N 
HETATM   12  C3  UNL     1      26.950   0.315  54.514  1.00  0.00     0.275 C 
HETATM   13  C2  UNL     1      27.722  -0.715  53.748  1.00  0.00     0.065 C 
HETATM   14  C1  UNL     1      29.028  -0.101  53.330  1.00  0.00     0.221 C 
HETATM   15  C18 UNL     1      29.222   1.309  53.866  1.00  0.00     0.065 C 
HETATM   16  C17 UNL     1      28.052   2.191  53.538  1.00  0.00     0.275 C 
BRANCH  14  17
HETATM   17  N1  UNL     1      30.093  -0.946  53.865  1.00  0.00     0.083 N 
HETATM   18  H1  UNL     1      29.922  -1.910  53.560  1.00  0.00     0.313 HD
HETATM   19  H2  UNL     1      30.031  -0.863  54.907  1.00  0.00     0.313 HD
ENDBRANCH  14  17
ENDBRANCH  10  11
ENDBRANCH   1  10
BRANCH   6  20
HETATM   20  N5  UNL     1      19.954  -0.560  53.769  1.00  0.00    -0.187 N 
HETATM   21  H12 UNL     1      19.814  -0.924  54.759  1.00  0.00     0.184 HD
BRANCH  20  22
HETATM   22  C9  UNL     1      18.813  -0.635  52.935  1.00  0.00     0.052 A 
HETATM   23  C10 UNL     1      17.685  -1.307  53.333  1.00  0.00     0.030 A 
HETATM   24  C11 UNL     1      16.558  -1.404  52.558  1.00  0.00     0.005 A 
HETATM   25  C12 UNL     1      16.502  -0.818  51.312  1.00  0.00     0.042 A 
HETATM   26  C13 UNL     1      17.605  -0.134  50.870  1.00  0.00     0.118 A 
HETATM   27  F1  UNL     1      17.560   0.445  49.648  1.00  0.00    -0.206 F 
HETATM   28  C14 UNL     1      18.713  -0.066  51.687  1.00  0.00     0.072 A 
ENDBRANCH  20  22
ENDBRANCH   6  20
TORSDOF 5
ENDMDL
MODEL 3
REMARK VINA RESULT:      -8.1      3.336      9.106
REMARK  5 active torsions:
REMARK  status: ('A' for Active; 'I' for Inactive)
REMARK    1  A    between atoms: N1_1  and  C1_2 
REMARK    2  A    between atoms: N2_5  and  C4_6 
REMARK    3  A    between atoms: C4_6  and  C5_7 
REMARK    4  A    between atoms: C8_12  and  N5_13 
REMARK    5  A    between atoms: N5_13  and  C9_14 
ROOT
HETATM    1  C5  UNL     1      21.076  -0.051  52.568  1.00  0.00     0.002 A 
HETATM    2  C6  UNL     1      21.056  -0.719  53.775  1.00  0.00     0.030 A 
HETATM    3  C7  UNL     1      22.310  -0.644  54.340  1.00  0.00     0.120 A 
HETATM    4  N3  UNL     1      23.049   0.062  53.465  1.00  0.00    -0.228 N 
HETATM    5  N4  UNL     1      24.322   0.374  53.608  1.00  0.00     0.026 NA
HETATM    6  C8  UNL     1      25.027   1.077  52.720  1.00  0.00     0.744 A 
HETATM    7  N6  UNL     1      24.320   1.449  51.646  1.00  0.00    -0.071 NA
HETATM    8  C15 UNL     1      23.028   1.172  51.428  1.00  0.00     0.168 A 
HETATM    9  C16 UNL     1      22.361   0.447  52.378  1.00  0.00     0.084 A 
ENDROOT
BRANCH   1  10
HETATM   10  C4  UNL     1      20.062   0.226  51.490  1.00  0.00     0.313 C 
BRANCH  10  11
HETATM   11  N2  UNL     1      18.807   0.562  52.089  1.00  0.00     0.092 N 
HETATM   12  C3  UNL     1      18.116   1.660  51.436  1.00  0.00     0.275 C 
HETATM   13  C2  UNL     1      17.900   1.372  49.981  1.00  0.00     0.065 C 
HETATM   14  C1  UNL     1      17.159   0.070  49.870  1.00  0.00     0.221 C 
HETATM   15  C18 UNL     1      16.774  -0.514  51.221  1.00  0.00     0.065 C 
HETATM   16  C17 UNL     1      17.959  -0.614  52.138  1.00  0.00     0.275 C 
BRANCH  14  17
HETATM   17  N1  UNL     1      15.934   0.333  49.118  1.00  0.00     0.083 N 
HETATM   18  H1  UNL     1      15.936  -0.259  48.282  1.00  0.00     0.313 HD
HETATM   19  H2  UNL     1      15.965   1.348  48.862  1.00  0.00     0.313 HD
ENDBRANCH  14  17
ENDBRANCH  10  11
ENDBRANCH   1  10
BRANCH   6  20
HETATM   20  N5  UNL     1      26.394   1.369  52.954  1.00  0.00    -0.187 N 
HETATM   21  H12 UNL     1      26.641   2.401  53.017  1.00  0.00     0.184 HD
BRANCH  20  22
HETATM   22  C9  UNL     1      27.484   0.480  53.116  1.00  0.00     0.052 A 
HETATM   23  C10 UNL     1      28.715   0.931  53.516  1.00  0.00     0.030 A 
HETATM   24  C11 UNL     1      29.797   0.106  53.686  1.00  0.00     0.005 A 
HETATM   25  C12 UNL     1      29.697  -1.249  53.458  1.00  0.00     0.042 A 
HETATM   26  C13 UNL     1      28.485  -1.749  53.056  1.00  0.00     0.118 A 
HETATM   27  F1  UNL     1      28.378  -3.078  52.828  1.00  0.00    -0.206 F 
HETATM   28  C14 UNL     1      27.429  -0.877  52.899  1.00  0.00     0.072 A 
ENDBRANCH  20  22
ENDBRANCH   6  20
TORSDOF 5
ENDMDL
MODEL 4
REMARK VINA RESULT:      -8.0      4.675      9.642
REMARK  5 active torsions:
REMARK  status: ('A' for Active; 'I' for Inactive)
REMARK    1  A    between atoms: N1_1  and  C1_2 
REMARK    2  A    between atoms: N2_5  and  C4_6 
REMARK    3  A    between atoms: C4_6  and  C5_7 
REMARK    4  A    between atoms: C8_12  and  N5_13 
REMARK    5  A    between atoms: N5_13  and  C9_14 
ROOT
HETATM    1  C5  UNL     1      24.492   1.525  52.917  1.00  0.00     0.002 A 
HETATM    2  C6  UNL     1      25.616   1.150  53.622  1.00  0.00     0.030 A 
HETATM    3  C7  UNL     1      26.729   1.616  52.956  1.00  0.00     0.120 A 
HETATM    4  N3  UNL     1      26.249   2.256  51.874  1.00  0.00    -0.228 N 
HETATM    5  N4  UNL     1      26.974   2.859  50.953  1.00  0.00     0.026 NA
HETATM    6  C8  UNL     1      26.466   3.486  49.890  1.00  0.00     0.744 A 
HETATM    7  N6  UNL     1      25.129   3.452  49.834  1.00  0.00    -0.071 NA
HETATM    8  C15 UNL     1      24.325   2.861  50.728  1.00  0.00     0.168 A 
HETATM    9  C16 UNL     1      24.908   2.235  51.796  1.00  0.00     0.084 A 
ENDROOT
BRANCH   1  10
HETATM   10  C4  UNL     1      23.010   1.334  53.101  1.00  0.00     0.313 C 
BRANCH  10  11
HETATM   11  N2  UNL     1      22.572   0.212  52.328  1.00  0.00     0.092 N 
HETATM   12  C3  UNL     1      22.342  -0.991  53.110  1.00  0.00     0.275 C 
HETATM   13  C2  UNL     1      21.354  -0.740  54.208  1.00  0.00     0.065 C 
HETATM   14  C1  UNL     1      20.096  -0.201  53.586  1.00  0.00     0.221 C 
HETATM   15  C18 UNL     1      20.155  -0.155  52.067  1.00  0.00     0.065 C 
HETATM   16  C17 UNL     1      21.379   0.568  51.583  1.00  0.00     0.275 C 
BRANCH  14  17
HETATM   17  N1  UNL     1      19.006  -1.092  53.976  1.00  0.00     0.083 N 
HETATM   18  H1  UNL     1      18.536  -0.687  54.792  1.00  0.00     0.313 HD
HETATM   19  H2  UNL     1      19.453  -2.009  54.214  1.00  0.00     0.313 HD
ENDBRANCH  14  17
ENDBRANCH  10  11
ENDBRANCH   1  10
BRANCH   6  20
HETATM   20  N5  UNL     1      27.319   4.111  48.946  1.00  0.00    -0.187 N 
HETATM   21  H12 UNL     1      28.018   3.472  48.462  1.00  0.00     0.184 HD
BRANCH  20  22
HETATM   22  C9  UNL     1      27.375   5.469  48.553  1.00  0.00     0.052 A 
HETATM   23  C10 UNL     1      28.550   6.040  48.135  1.00  0.00     0.030 A 
HETATM   24  C11 UNL     1      28.650   7.351  47.745  1.00  0.00     0.005 A 
HETATM   25  C12 UNL     1      27.549   8.178  47.754  1.00  0.00     0.042 A 
HETATM   26  C13 UNL     1      26.350   7.654  48.163  1.00  0.00     0.118 A 
HETATM   27  F1  UNL     1      25.263   8.459  48.176  1.00  0.00    -0.206 F 
HETATM   28  C14 UNL     1      26.303   6.331  48.546  1.00  0.00     0.072 A 
ENDBRANCH  20  22
ENDBRANCH   6  20
TORSDOF 5
ENDMDL
MODEL 5
REMARK VINA RESULT:      -7.9      6.100     10.109
REMARK  5 active torsions:
REMARK  status: ('A' for Active; 'I' for Inactive)
REMARK    1  A    between atoms: N1_1  and  C1_2 
REMARK    2  A    between atoms: N2_5  and  C4_6 
REMARK    3  A    between atoms: C4_6  and  C5_7 
REMARK    4  A    between atoms: C8_12  and  N5_13 
REMARK    5  A    between atoms: N5_13  and  C9_14 
ROOT
HETATM    1  C5  UNL     1      24.608   2.547  51.807  1.00  0.00     0.002 A 
HETATM    2  C6  UNL     1      23.626   3.357  52.338  1.00  0.00     0.030 A 
HETATM    3  C7  UNL     1      23.715   4.600  51.750  1.00  0.00     0.120 A 
HETATM    4  N3  UNL     1      24.740   4.507  50.884  1.00  0.00    -0.228 N 
HETATM    5  N4  UNL     1      25.178   5.474  50.102  1.00  0.00     0.026 NA
HETATM    6  C8  UNL     1      26.199   5.349  49.253  1.00  0.00     0.744 A 
HETATM    7  N6  UNL     1      26.759   4.133  49.261  1.00  0.00    -0.071 NA
HETATM    8  C15 UNL     1      26.374   3.102  50.024  1.00  0.00     0.168 A 
HETATM    9  C16 UNL     1      25.319   3.294  50.874  1.00  0.00     0.084 A 
ENDROOT
BRANCH   1  10
HETATM   10  C4  UNL     1      25.038   1.120  52.019  1.00  0.00     0.313 C 
BRANCH  10  11
HETATM   11  N2  UNL     1      25.288   0.896  53.410  1.00  0.00     0.092 N 
HETATM   12  C3  UNL     1      25.364  -0.507  53.778  1.00  0.00     0.275 C 
HETATM   13  C2  UNL     1      26.408  -1.220  52.975  1.00  0.00     0.065 C 
HETATM   14  C1  UNL     1      27.712  -0.498  53.163  1.00  0.00     0.221 C 
HETATM   15  C18 UNL     1      27.619   0.653  54.153  1.00  0.00     0.065 C 
HETATM   16  C17 UNL     1      26.498   1.591  53.806  1.00  0.00     0.275 C 
BRANCH  14  17
HETATM   17  N1  UNL     1      28.673  -1.470  53.679  1.00  0.00     0.083 N 
HETATM   18  H1  UNL     1      29.577  -0.999  53.793  1.00  0.00     0.313 HD
HETATM   19  H2  UNL     1      28.731  -2.229  52.961  1.00  0.00     0.313 HD
ENDBRANCH  14  17
ENDBRANCH  10  11
ENDBRANCH   1  10
BRANCH   6  20
HETATM   20  N5  UNL     1      26.604   6.442  48.447  1.00  0.00    -0.187 N 
HETATM   21  H12 UNL     1      25.861   6.834  47.795  1.00  0.00     0.184 HD
BRANCH  20  22
HETATM   22  C9  UNL     1      27.860   7.091  48.384  1.00  0.00     0.052 A 
HETATM   23  C10 UNL     1      28.926   6.514  47.742  1.00  0.00     0.030 A 
HETATM   24  C11 UNL     1      30.160   7.106  47.656  1.00  0.00     0.005 A 
HETATM   25  C12 UNL     1      30.395   8.339  48.224  1.00  0.00     0.042 A 
HETATM   26  C13 UNL     1      29.360   8.957  48.878  1.00  0.00     0.118 A 
HETATM   27  F1  UNL     1      29.581  10.167  49.440  1.00  0.00    -0.206 F 
HETATM   28  C14 UNL     1      28.139   8.319  48.936  1.00  0.00     0.072 A 
ENDBRANCH  20  22
ENDBRANCH   6  20
TORSDOF 5
ENDMDL
MODEL 6
REMARK VINA RESULT:      -7.8      1.563      2.405
REMARK  5 active torsions:
REMARK  status: ('A' for Active; 'I' for Inactive)
REMARK    1  A    between atoms: N1_1  and  C1_2 
REMARK    2  A    between atoms: N2_5  and  C4_6 
REMARK    3  A    between atoms: C4_6  and  C5_7 
REMARK    4  A    between atoms: C8_12  and  N5_13 
REMARK    5  A    between atoms: N5_13  and  C9_14 
ROOT
HETATM    1  C5  UNL     1      23.485  -0.290  53.892  1.00  0.00     0.002 A 
HETATM    2  C6  UNL     1      23.364  -1.248  54.876  1.00  0.00     0.030 A 
HETATM    3  C7  UNL     1      22.043  -1.629  54.961  1.00  0.00     0.120 A 
HETATM    4  N3  UNL     1      21.405  -0.895  54.031  1.00  0.00    -0.228 N 
HETATM    5  N4  UNL     1      20.114  -0.940  53.768  1.00  0.00     0.026 NA
HETATM    6  C8  UNL     1      19.511  -0.198  52.837  1.00  0.00     0.744 A 
HETATM    7  N6  UNL     1      20.344   0.616  52.176  1.00  0.00    -0.071 NA
HETATM    8  C15 UNL     1      21.663   0.719  52.386  1.00  0.00     0.168 A 
HETATM    9  C16 UNL     1      22.221  -0.070  53.354  1.00  0.00     0.084 A 
ENDROOT
BRANCH   1  10
HETATM   10  C4  UNL     1      24.625   0.510  53.322  1.00  0.00     0.313 C 
BRANCH  10  11
HETATM   11  N2  UNL     1      25.827  -0.265  53.373  1.00  0.00     0.092 N 
HETATM   12  C3  UNL     1      26.756   0.013  52.292  1.00  0.00     0.275 C 
HETATM   13  C2  UNL     1      27.116   1.467  52.249  1.00  0.00     0.065 C 
HETATM   14  C1  UNL     1      27.660   1.850  53.596  1.00  0.00     0.221 C 
HETATM   15  C18 UNL     1      27.771   0.672  54.552  1.00  0.00     0.065 C 
HETATM   16  C17 UNL     1      26.474  -0.077  54.658  1.00  0.00     0.275 C 
BRANCH  14  17
HETATM   17  N1  UNL     1      28.999   2.394  53.382  1.00  0.00     0.083 N 
HETATM   18  H1  UNL     1      29.114   2.580  52.380  1.00  0.00     0.313 HD
HETATM   19  H2  UNL     1      29.666   1.656  53.708  1.00  0.00     0.313 HD
ENDBRANCH  14  17
ENDBRANCH  10  11
ENDBRANCH   1  10
BRANCH   6  20
HETATM   20  N5  UNL     1      18.115  -0.310  52.619  1.00  0.00    -0.187 N 
HETATM   21  H12 UNL     1      17.615   0.593  52.364  1.00  0.00     0.184 HD
BRANCH  20  22
HETATM   22  C9  UNL     1      17.288  -1.455  52.691  1.00  0.00     0.052 A 
HETATM   23  C10 UNL     1      16.088  -1.508  52.029  1.00  0.00     0.030 A 
HETATM   24  C11 UNL     1      15.256  -2.597  52.071  1.00  0.00     0.005 A 
HETATM   25  C12 UNL     1      15.592  -3.718  52.798  1.00  0.00     0.042 A 
HETATM   26  C13 UNL     1      16.783  -3.714  53.479  1.00  0.00     0.118 A 
HETATM   27  F1  UNL     1      17.121  -4.809  54.196  1.00  0.00    -0.206 F 
HETATM   28  C14 UNL     1      17.583  -2.594  53.404  1.00  0.00     0.072 A 
ENDBRANCH  20  22
ENDBRANCH   6  20
TORSDOF 5
ENDMDL
MODEL 7
REMARK VINA RESULT:      -7.8      5.077      8.099
REMARK  5 active torsions:
REMARK  status: ('A' for Active; 'I' for Inactive)
REMARK    1  A    between atoms: N1_1  and  C1_2 
REMARK    2  A    between atoms: N2_5  and  C4_6 
REMARK    3  A    between atoms: C4_6  and  C5_7 
REMARK    4  A    between atoms: C8_12  and  N5_13 
REMARK    5  A    between atoms: N5_13  and  C9_14 
ROOT
HETATM    1  C5  UNL     1      22.137   3.897  50.976  1.00  0.00     0.002 A 
HETATM    2  C6  UNL     1      21.410   2.968  50.262  1.00  0.00     0.030 A 
HETATM    3  C7  UNL     1      21.870   1.709  50.582  1.00  0.00     0.120 A 
HETATM    4  N3  UNL     1      22.855   1.911  51.476  1.00  0.00    -0.228 N 
HETATM    5  N4  UNL     1      23.576   0.970  52.053  1.00  0.00     0.026 NA
HETATM    6  C8  UNL     1      24.547   1.205  52.937  1.00  0.00     0.744 A 
HETATM    7  N6  UNL     1      24.735   2.505  53.197  1.00  0.00    -0.071 NA
HETATM    8  C15 UNL     1      24.046   3.516  52.653  1.00  0.00     0.168 A 
HETATM    9  C16 UNL     1      23.062   3.209  51.753  1.00  0.00     0.084 A 
ENDROOT
BRANCH   1  10
HETATM   10  C4  UNL     1      22.133   5.399  51.077  1.00  0.00     0.313 C 
BRANCH  10  11
HETATM   11  N2  UNL     1      22.582   5.963  49.840  1.00  0.00     0.092 N 
HETATM   12  C3  UNL     1      22.884   7.382  49.914  1.00  0.00     0.275 C 
HETATM   13  C2  UNL     1      23.904   7.663  50.975  1.00  0.00     0.065 C 
HETATM   14  C1  UNL     1      25.116   6.823  50.688  1.00  0.00     0.221 C 
HETATM   15  C18 UNL     1      24.999   6.029  49.396  1.00  0.00     0.065 C 
HETATM   16  C17 UNL     1      23.732   5.223  49.356  1.00  0.00     0.275 C 
BRANCH  14  17
HETATM   17  N1  UNL     1      26.252   7.734  50.564  1.00  0.00     0.083 N 
HETATM   18  H1  UNL     1      27.090   7.178  50.367  1.00  0.00     0.313 HD
HETATM   19  H2  UNL     1      26.332   8.223  51.487  1.00  0.00     0.313 HD
ENDBRANCH  14  17
ENDBRANCH  10  11
ENDBRANCH   1  10
BRANCH   6  20
HETATM   20  N5  UNL     1      25.274   0.131  53.511  1.00  0.00    -0.187 N 
HETATM   21  H12 UNL     1      24.688  -0.651  53.928  1.00  0.00     0.184 HD
BRANCH  20  22
HETATM   22  C9  UNL     1      26.675  -0.049  53.609  1.00  0.00     0.052 A 
HETATM   23  C10 UNL     1      27.289  -1.149  53.067  1.00  0.00     0.030 A 
HETATM   24  C11 UNL     1      28.641  -1.363  53.137  1.00  0.00     0.005 A 
HETATM   25  C12 UNL     1      29.469  -0.463  53.772  1.00  0.00     0.042 A 
HETATM   26  C13 UNL     1      28.902   0.654  54.331  1.00  0.00     0.118 A 
HETATM   27  F1  UNL     1      29.706   1.543  54.957  1.00  0.00    -0.206 F 
HETATM   28  C14 UNL     1      27.537   0.823  54.232  1.00  0.00     0.072 A 
ENDBRANCH  20  22
ENDBRANCH   6  20
TORSDOF 5
ENDMDL
MODEL 8
REMARK VINA RESULT:      -7.8      3.580      9.186
REMARK  5 active torsions:
REMARK  status: ('A' for Active; 'I' for Inactive)
REMARK    1  A    between atoms: N1_1  and  C1_2 
REMARK    2  A    between atoms: N2_5  and  C4_6 
REMARK    3  A    between atoms: C4_6  and  C5_7 
REMARK    4  A    between atoms: C8_12  and  N5_13 
REMARK    5  A    between atoms: N5_13  and  C9_14 
ROOT
HETATM    1  C5  UNL     1      20.869   0.381  53.020  1.00  0.00     0.002 A 
HETATM    2  C6  UNL     1      21.161  -0.537  54.007  1.00  0.00     0.030 A 
HETATM    3  C7  UNL     1      22.530  -0.670  54.093  1.00  0.00     0.120 A 
HETATM    4  N3  UNL     1      23.024   0.166  53.162  1.00  0.00    -0.228 N 
HETATM    5  N4  UNL     1      24.302   0.357  52.899  1.00  0.00     0.026 NA
HETATM    6  C8  UNL     1      24.759   1.195  51.967  1.00  0.00     0.744 A 
HETATM    7  N6  UNL     1      23.792   1.842  51.305  1.00  0.00    -0.071 NA
HETATM    8  C15 UNL     1      22.477   1.703  51.512  1.00  0.00     0.168 A 
HETATM    9  C16 UNL     1      22.072   0.827  52.483  1.00  0.00     0.084 A 
ENDROOT
BRANCH   1  10
HETATM   10  C4  UNL     1      19.602   0.956  52.446  1.00  0.00     0.313 C 
BRANCH  10  11
HETATM   11  N2  UNL     1      19.153   0.138  51.361  1.00  0.00     0.092 N 
HETATM   12  C3  UNL     1      17.923  -0.585  51.636  1.00  0.00     0.275 C 
HETATM   13  C2  UNL     1      16.822   0.352  52.027  1.00  0.00     0.065 C 
HETATM   14  C1  UNL     1      16.666   1.369  50.931  1.00  0.00     0.221 C 
HETATM   15  C18 UNL     1      17.576   1.107  49.742  1.00  0.00     0.065 C 
HETATM   16  C17 UNL     1      19.009   0.947  50.166  1.00  0.00     0.275 C 
BRANCH  14  17
HETATM   17  N1  UNL     1      15.281   1.300  50.473  1.00  0.00     0.083 N 
HETATM   18  H1  UNL     1      15.168   0.445  49.918  1.00  0.00     0.313 HD
HETATM   19  H2  UNL     1      15.128   2.154  49.886  1.00  0.00     0.313 HD
ENDBRANCH  14  17
ENDBRANCH  10  11
ENDBRANCH   1  10
BRANCH   6  20
HETATM   20  N5  UNL     1      26.153   1.341  51.750  1.00  0.00    -0.187 N 
HETATM   21  H12 UNL     1      26.431   1.797  50.831  1.00  0.00     0.184 HD
BRANCH  20  22
HETATM   22  C9  UNL     1      27.232   0.964  52.585  1.00  0.00     0.052 A 
HETATM   23  C10 UNL     1      27.585  -0.352  52.740  1.00  0.00     0.030 A 
HETATM   24  C11 UNL     1      28.623  -0.760  53.537  1.00  0.00     0.005 A 
HETATM   25  C12 UNL     1      29.380   0.152  54.238  1.00  0.00     0.042 A 
HETATM   26  C13 UNL     1      29.066   1.482  54.116  1.00  0.00     0.118 A 
HETATM   27  F1  UNL     1      29.802   2.385  54.802  1.00  0.00    -0.206 F 
HETATM   28  C14 UNL     1      28.013   1.841  53.302  1.00  0.00     0.072 A 
ENDBRANCH  20  22
ENDBRANCH   6  20
TORSDOF 5
ENDMDL
MODEL 9
REMARK VINA RESULT:      -7.7      6.241      9.596
REMARK  5 active torsions:
REMARK  status: ('A' for Active; 'I' for Inactive)
REMARK    1  A    between atoms: N1_1  and  C1_2 
REMARK    2  A    between atoms: N2_5  and  C4_6 
REMARK    3  A    between atoms: C4_6  and  C5_7 
REMARK    4  A    between atoms: C8_12  and  N5_13 
REMARK    5  A    between atoms: N5_13  and  C9_14 
ROOT
HETATM    1  C5  UNL     1      25.473   2.137  51.845  1.00  0.00     0.002 A 
HETATM    2  C6  UNL     1      24.382   2.555  52.579  1.00  0.00     0.030 A 
HETATM    3  C7  UNL     1      23.954   3.766  52.081  1.00  0.00     0.120 A 
HETATM    4  N3  UNL     1      24.791   4.045  51.066  1.00  0.00    -0.228 N 
HETATM    5  N4  UNL     1      24.746   5.119  50.304  1.00  0.00     0.026 NA
HETATM    6  C8  UNL     1      25.593   5.367  49.304  1.00  0.00     0.744 A 
HETATM    7  N6  UNL     1      26.516   4.413  49.133  1.00  0.00    -0.071 NA
HETATM    8  C15 UNL     1      26.629   3.296  49.864  1.00  0.00     0.168 A 
HETATM    9  C16 UNL     1      25.728   3.101  50.876  1.00  0.00     0.084 A 
ENDROOT
BRANCH   1  10
HETATM   10  C4  UNL     1      26.379   0.936  51.879  1.00  0.00     0.313 C 
BRANCH  10  11
HETATM   11  N2  UNL     1      26.591   0.534  53.236  1.00  0.00     0.092 N 
HETATM   12  C3  UNL     1      26.076  -0.787  53.548  1.00  0.00     0.275 C 
HETATM   13  C2  UNL     1      26.659  -1.824  52.637  1.00  0.00     0.065 C 
HETATM   14  C1  UNL     1      28.156  -1.743  52.741  1.00  0.00     0.221 C 
HETATM   15  C18 UNL     1      28.629  -0.733  53.774  1.00  0.00     0.065 C 
HETATM   16  C17 UNL     1      28.005   0.616  53.553  1.00  0.00     0.275 C 
BRANCH  14  17
HETATM   17  N1  UNL     1      28.632  -3.066  53.142  1.00  0.00     0.083 N 
HETATM   18  H1  UNL     1      28.399  -3.731  52.397  1.00  0.00     0.313 HD
HETATM   19  H2  UNL     1      28.126  -3.298  54.028  1.00  0.00     0.313 HD
ENDBRANCH  14  17
ENDBRANCH  10  11
ENDBRANCH   1  10
BRANCH   6  20
HETATM   20  N5  UNL     1      25.471   6.550  48.531  1.00  0.00    -0.187 N 
HETATM   21  H12 UNL     1      24.794   6.498  47.713  1.00  0.00     0.184 HD
BRANCH  20  22
HETATM   22  C9  UNL     1      26.124   7.795  48.694  1.00  0.00     0.052 A 
HETATM   23  C10 UNL     1      27.446   7.863  49.051  1.00  0.00     0.030 A 
HETATM   24  C11 UNL     1      28.118   9.046  49.219  1.00  0.00     0.005 A 
HETATM   25  C12 UNL     1      27.482  10.254  49.032  1.00  0.00     0.042 A 
HETATM   26  C13 UNL     1      26.158  10.239  48.674  1.00  0.00     0.118 A 
HETATM   27  F1  UNL     1      25.525  11.420  48.489  1.00  0.00    -0.206 F 
HETATM   28  C14 UNL     1      25.529   9.023  48.518  1.00  0.00     0.072 A 
ENDBRANCH  20  22
ENDBRANCH   6  20
TORSDOF 5
ENDMDL
