MODEL 1
REMARK VINA RESULT:      -7.5      0.000      0.000
REMARK  8 active torsions:
REMARK  status: ('A' for Active; 'I' for Inactive)
REMARK    1  A    between atoms: C2_2  and  C3_3 
REMARK    2  A    between atoms: C5_5  and  C6_6 
REMARK    3  A    between atoms: C6_6  and  C7_7 
REMARK    4  A    between atoms: C7_7  and  C8_8 
REMARK    5  A    between atoms: C8_8  and  C9_9 
REMARK    6  A    between atoms: C12_12  and  O1_13 
REMARK    7  A    between atoms: C15_16  and  C16_17 
REMARK    8  A    between atoms: C16_17  and  C17_18 
ROOT
HETATM    1  C3  UNL     1      22.512   0.148  52.357  1.00  0.00     0.016 A 
HETATM    2  C4  UNL     1      23.162   0.744  53.518  1.00  0.00    -0.018 A 
HETATM    3  C5  UNL     1      23.712   1.680  52.820  1.00  0.00    -0.078 A 
HETATM    4  C15 UNL     1      23.083   1.220  51.597  1.00  0.00     0.027 A 
ENDROOT
BRANCH   3   5
HETATM    5  C6  UNL     1      24.608   2.814  53.176  1.00  0.00     0.034 C 
BRANCH   5   6
HETATM    6  C7  UNL     1      25.874   2.159  53.731  1.00  0.00     0.009 C 
BRANCH   6   7
HETATM    7  C8  UNL     1      26.721   1.670  52.609  1.00  0.00     0.039 C 
BRANCH   7   8
HETATM    8  C9  UNL     1      27.180   0.289  52.749  1.00  0.00    -0.058 A 
HETATM    9  C10 UNL     1      28.446   0.063  53.299  1.00  0.00     0.010 A 
HETATM   10  C11 UNL     1      28.949  -1.216  53.464  1.00  0.00     0.037 A 
HETATM   11  C12 UNL     1      28.182  -2.296  53.075  1.00  0.00     0.065 A 
HETATM   12  C13 UNL     1      26.925  -2.102  52.528  1.00  0.00     0.037 A 
HETATM   13  C14 UNL     1      26.443  -0.815  52.373  1.00  0.00     0.010 A 
BRANCH  11  14
HETATM   14  O1  UNL     1      28.684  -3.588  53.239  1.00  0.00    -0.361 OA
HETATM   15  H16 UNL     1      29.389  -3.937  52.579  1.00  0.00     0.217 HD
ENDBRANCH  11  14
ENDBRANCH   7   8
ENDBRANCH   6   7
ENDBRANCH   5   6
ENDBRANCH   3   5
BRANCH   4  16
HETATM   16  C16 UNL     1      22.224   2.173  50.836  1.00  0.00     0.068 C 
BRANCH  16  17
HETATM   17  C17 UNL     1      22.984   2.847  49.757  1.00  0.00     0.032 A 
HETATM   18  C18 UNL     1      24.157   3.341  49.342  1.00  0.00     0.028 A 
HETATM   19  C19 UNL     1      25.597   3.622  49.579  1.00  0.00     0.070 C 
HETATM   20  N1  UNL     1      23.082   3.436  48.439  1.00  0.00    -0.360 N 
HETATM   21  H25 UNL     1      22.658   3.712  47.523  1.00  0.00     0.165 HD
ENDBRANCH  16  17
ENDBRANCH   4  16
BRANCH   1  22
HETATM   22  C2  UNL     1      21.065  -0.046  52.640  1.00  0.00     0.005 C 
HETATM   23  C1  UNL     1      20.563   0.189  54.000  1.00  0.00     0.006 C 
ENDBRANCH   1  22
TORSDOF 8
ENDMDL
MODEL 2
REMARK VINA RESULT:      -7.4      1.350      1.629
REMARK  8 active torsions:
REMARK  status: ('A' for Active; 'I' for Inactive)
REMARK    1  A    between atoms: C2_2  and  C3_3 
REMARK    2  A    between atoms: C5_5  and  C6_6 
REMARK    3  A    between atoms: C6_6  and  C7_7 
REMARK    4  A    between atoms: C7_7  and  C8_8 
REMARK    5  A    between atoms: C8_8  and  C9_9 
REMARK    6  A    between atoms: C12_12  and  O1_13 
REMARK    7  A    between atoms: C15_16  and  C16_17 
REMARK    8  A    between atoms: C16_17  and  C17_18 
ROOT
HETATM    1  C3  UNL     1      22.586  -0.361  53.192  1.00  0.00     0.016 A 
HETATM    2  C4  UNL     1      23.675   0.457  53.713  1.00  0.00    -0.018 A 
HETATM    3  C5  UNL     1      23.682   1.234  52.683  1.00  0.00    -0.078 A 
HETATM    4  C15 UNL     1      22.564   0.538  52.075  1.00  0.00     0.027 A 
ENDROOT
BRANCH   3   5
HETATM    5  C6  UNL     1      24.507   2.417  52.313  1.00  0.00     0.034 C 
BRANCH   5   6
HETATM    6  C7  UNL     1      25.658   1.852  51.478  1.00  0.00     0.009 C 
BRANCH   6   7
HETATM    7  C8  UNL     1      26.880   1.736  52.319  1.00  0.00     0.039 C 
BRANCH   7   8
HETATM    8  C9  UNL     1      27.317   0.365  52.574  1.00  0.00    -0.058 A 
HETATM    9  C10 UNL     1      28.512   0.168  53.274  1.00  0.00     0.010 A 
HETATM   10  C11 UNL     1      28.990  -1.101  53.554  1.00  0.00     0.037 A 
HETATM   11  C12 UNL     1      28.269  -2.200  53.130  1.00  0.00     0.065 A 
HETATM   12  C13 UNL     1      27.083  -2.035  52.436  1.00  0.00     0.037 A 
HETATM   13  C14 UNL     1      26.625  -0.758  52.168  1.00  0.00     0.010 A 
BRANCH  11  14
HETATM   14  O1  UNL     1      28.747  -3.481  53.410  1.00  0.00    -0.361 OA
HETATM   15  H16 UNL     1      29.092  -4.065  52.638  1.00  0.00     0.217 HD
ENDBRANCH  11  14
ENDBRANCH   7   8
ENDBRANCH   6   7
ENDBRANCH   5   6
ENDBRANCH   3   5
BRANCH   4  16
HETATM   16  C16 UNL     1      21.340   1.318  51.733  1.00  0.00     0.068 C 
BRANCH  16  17
HETATM   17  C17 UNL     1      21.151   1.418  50.267  1.00  0.00     0.032 A 
HETATM   18  C18 UNL     1      21.662   1.789  49.086  1.00  0.00     0.028 A 
HETATM   19  C19 UNL     1      22.765   2.377  48.282  1.00  0.00     0.070 C 
HETATM   20  N1  UNL     1      20.378   1.214  49.061  1.00  0.00    -0.360 N 
HETATM   21  H25 UNL     1      19.515   0.885  48.568  1.00  0.00     0.165 HD
ENDBRANCH  16  17
ENDBRANCH   4  16
BRANCH   1  22
HETATM   22  C2  UNL     1      21.524  -0.494  54.223  1.00  0.00     0.005 C 
HETATM   23  C1  UNL     1      20.564  -1.602  54.124  1.00  0.00     0.006 C 
ENDBRANCH   1  22
TORSDOF 8
ENDMDL
MODEL 3
REMARK VINA RESULT:      -7.1      4.009      6.725
REMARK  8 active torsions:
REMARK  status: ('A' for Active; 'I' for Inactive)
REMARK    1  A    between atoms: C2_2  and  C3_3 
REMARK    2  A    between atoms: C5_5  and  C6_6 
REMARK    3  A    between atoms: C6_6  and  C7_7 
REMARK    4  A    between atoms: C7_7  and  C8_8 
REMARK    5  A    between atoms: C8_8  and  C9_9 
REMARK    6  A    between atoms: C12_12  and  O1_13 
REMARK    7  A    between atoms: C15_16  and  C16_17 
REMARK    8  A    between atoms: C16_17  and  C17_18 
ROOT
HETATM    1  C3  UNL     1      24.723   0.071  53.544  1.00  0.00     0.016 A 
HETATM    2  C4  UNL     1      24.624   1.108  52.524  1.00  0.00    -0.018 A 
HETATM    3  C5  UNL     1      25.804   0.864  52.060  1.00  0.00    -0.078 A 
HETATM    4  C15 UNL     1      26.010  -0.229  52.989  1.00  0.00     0.027 A 
ENDROOT
BRANCH   3   5
HETATM    5  C6  UNL     1      26.600   1.466  50.954  1.00  0.00     0.034 C 
BRANCH   5   6
HETATM    6  C7  UNL     1      26.365   2.973  51.072  1.00  0.00     0.009 C 
BRANCH   6   7
HETATM    7  C8  UNL     1      25.630   3.463  49.875  1.00  0.00     0.039 C 
BRANCH   7   8
HETATM    8  C9  UNL     1      26.225   4.632  49.230  1.00  0.00    -0.058 A 
HETATM    9  C10 UNL     1      27.592   4.604  48.938  1.00  0.00     0.010 A 
HETATM   10  C11 UNL     1      28.227   5.672  48.327  1.00  0.00     0.037 A 
HETATM   11  C12 UNL     1      27.491   6.794  47.999  1.00  0.00     0.065 A 
HETATM   12  C13 UNL     1      26.135   6.848  48.276  1.00  0.00     0.037 A 
HETATM   13  C14 UNL     1      25.523   5.769  48.886  1.00  0.00     0.010 A 
BRANCH  11  14
HETATM   14  O1  UNL     1      28.126   7.874  47.383  1.00  0.00    -0.361 OA
HETATM   15  H16 UNL     1      27.607   8.429  46.692  1.00  0.00     0.217 HD
ENDBRANCH  11  14
ENDBRANCH   7   8
ENDBRANCH   6   7
ENDBRANCH   5   6
ENDBRANCH   3   5
BRANCH   4  16
HETATM   16  C16 UNL     1      26.320  -1.581  52.442  1.00  0.00     0.068 C 
BRANCH  16  17
HETATM   17  C17 UNL     1      27.665  -2.042  52.862  1.00  0.00     0.032 A 
HETATM   18  C18 UNL     1      28.907  -1.708  53.233  1.00  0.00     0.028 A 
HETATM   19  C19 UNL     1      29.936  -0.675  53.522  1.00  0.00     0.070 C 
HETATM   20  N1  UNL     1      28.615  -3.083  53.188  1.00  0.00    -0.360 N 
HETATM   21  H25 UNL     1      28.869  -4.092  53.298  1.00  0.00     0.165 HD
ENDBRANCH  16  17
ENDBRANCH   4  16
BRANCH   1  22
HETATM   22  C2  UNL     1      23.523  -0.804  53.484  1.00  0.00     0.005 C 
HETATM   23  C1  UNL     1      22.709  -0.989  54.694  1.00  0.00     0.006 C 
ENDBRANCH   1  22
TORSDOF 8
ENDMDL
MODEL 4
REMARK VINA RESULT:      -7.1      1.648      2.026
REMARK  8 active torsions:
REMARK  status: ('A' for Active; 'I' for Inactive)
REMARK    1  A    between atoms: C2_2  and  C3_3 
REMARK    2  A    between atoms: C5_5  and  C6_6 
REMARK    3  A    between atoms: C6_6  and  C7_7 
REMARK    4  A    between atoms: C7_7  and  C8_8 
REMARK    5  A    between atoms: C8_8  and  C9_9 
REMARK    6  A    between atoms: C12_12  and  O1_13 
REMARK    7  A    between atoms: C15_16  and  C16_17 
REMARK    8  A    between atoms: C16_17  and  C17_18 
ROOT
HETATM    1  C3  UNL     1      22.685   1.161  52.230  1.00  0.00     0.016 A 
HETATM    2  C4  UNL     1      23.742   0.869  53.190  1.00  0.00    -0.018 A 
HETATM    3  C5  UNL     1      24.357   1.981  52.961  1.00  0.00    -0.078 A 
HETATM    4  C15 UNL     1      23.343   2.417  52.020  1.00  0.00     0.027 A 
ENDROOT
BRANCH   3   5
HETATM    5  C6  UNL     1      25.605   2.579  53.511  1.00  0.00     0.034 C 
BRANCH   5   6
HETATM    6  C7  UNL     1      26.667   2.333  52.438  1.00  0.00     0.009 C 
BRANCH   6   7
HETATM    7  C8  UNL     1      27.958   1.969  53.081  1.00  0.00     0.039 C 
BRANCH   7   8
HETATM    8  C9  UNL     1      28.218   0.532  53.157  1.00  0.00    -0.058 A 
HETATM    9  C10 UNL     1      27.211  -0.347  52.745  1.00  0.00     0.010 A 
HETATM   10  C11 UNL     1      27.383  -1.720  52.786  1.00  0.00     0.037 A 
HETATM   11  C12 UNL     1      28.580  -2.234  53.245  1.00  0.00     0.065 A 
HETATM   12  C13 UNL     1      29.594  -1.387  53.658  1.00  0.00     0.037 A 
HETATM   13  C14 UNL     1      29.399  -0.019  53.608  1.00  0.00     0.010 A 
BRANCH  11  14
HETATM   14  O1  UNL     1      28.759  -3.618  53.289  1.00  0.00    -0.361 OA
HETATM   15  H16 UNL     1      28.453  -4.186  52.489  1.00  0.00     0.217 HD
ENDBRANCH  11  14
ENDBRANCH   7   8
ENDBRANCH   6   7
ENDBRANCH   5   6
ENDBRANCH   3   5
BRANCH   4  16
HETATM   16  C16 UNL     1      22.644   3.709  52.272  1.00  0.00     0.068 C 
BRANCH  16  17
HETATM   17  C17 UNL     1      23.483   4.866  51.880  1.00  0.00     0.032 A 
HETATM   18  C18 UNL     1      24.094   5.535  50.894  1.00  0.00     0.028 A 
HETATM   19  C19 UNL     1      24.438   5.687  49.457  1.00  0.00     0.070 C 
HETATM   20  N1  UNL     1      24.221   6.072  52.188  1.00  0.00    -0.360 N 
HETATM   21  H25 UNL     1      24.572   6.785  52.869  1.00  0.00     0.165 HD
ENDBRANCH  16  17
ENDBRANCH   4  16
BRANCH   1  22
HETATM   22  C2  UNL     1      21.359   0.970  52.874  1.00  0.00     0.005 C 
HETATM   23  C1  UNL     1      20.994  -0.359  53.385  1.00  0.00     0.006 C 
ENDBRANCH   1  22
TORSDOF 8
ENDMDL
MODEL 5
REMARK VINA RESULT:      -7.1      2.925      5.995
REMARK  8 active torsions:
REMARK  status: ('A' for Active; 'I' for Inactive)
REMARK    1  A    between atoms: C2_2  and  C3_3 
REMARK    2  A    between atoms: C5_5  and  C6_6 
REMARK    3  A    between atoms: C6_6  and  C7_7 
REMARK    4  A    between atoms: C7_7  and  C8_8 
REMARK    5  A    between atoms: C8_8  and  C9_9 
REMARK    6  A    between atoms: C12_12  and  O1_13 
REMARK    7  A    between atoms: C15_16  and  C16_17 
REMARK    8  A    between atoms: C16_17  and  C17_18 
ROOT
HETATM    1  C3  UNL     1      29.076   0.612  53.866  1.00  0.00     0.016 A 
HETATM    2  C4  UNL     1      28.265  -0.001  54.911  1.00  0.00    -0.018 A 
HETATM    3  C5  UNL     1      27.185   0.586  54.519  1.00  0.00    -0.078 A 
HETATM    4  C15 UNL     1      27.862   1.219  53.404  1.00  0.00     0.027 A 
ENDROOT
BRANCH   3   5
HETATM    5  C6  UNL     1      25.782   0.562  55.017  1.00  0.00     0.034 C 
BRANCH   5   6
HETATM    6  C7  UNL     1      25.153  -0.671  54.366  1.00  0.00     0.009 C 
BRANCH   6   7
HETATM    7  C8  UNL     1      24.301  -0.256  53.218  1.00  0.00     0.039 C 
BRANCH   7   8
HETATM    8  C9  UNL     1      22.866  -0.428  53.431  1.00  0.00    -0.058 A 
HETATM    9  C10 UNL     1      21.995   0.512  52.870  1.00  0.00     0.010 A 
HETATM   10  C11 UNL     1      20.622   0.417  53.028  1.00  0.00     0.037 A 
HETATM   11  C12 UNL     1      20.101  -0.634  53.757  1.00  0.00     0.065 A 
HETATM   12  C13 UNL     1      20.939  -1.579  54.323  1.00  0.00     0.037 A 
HETATM   13  C14 UNL     1      22.306  -1.462  54.152  1.00  0.00     0.010 A 
BRANCH  11  14
HETATM   14  O1  UNL     1      18.718  -0.735  53.918  1.00  0.00    -0.361 OA
HETATM   15  H16 UNL     1      18.240  -0.079  54.548  1.00  0.00     0.217 HD
ENDBRANCH  11  14
ENDBRANCH   7   8
ENDBRANCH   6   7
ENDBRANCH   5   6
ENDBRANCH   3   5
BRANCH   4  16
HETATM   16  C16 UNL     1      27.349   0.973  52.025  1.00  0.00     0.068 C 
BRANCH  16  17
HETATM   17  C17 UNL     1      26.721   2.188  51.454  1.00  0.00     0.032 A 
HETATM   18  C18 UNL     1      25.598   2.884  51.242  1.00  0.00     0.028 A 
HETATM   19  C19 UNL     1      24.125   3.034  51.380  1.00  0.00     0.070 C 
HETATM   20  N1  UNL     1      26.790   3.456  50.763  1.00  0.00    -0.360 N 
HETATM   21  H25 UNL     1      27.330   4.211  50.279  1.00  0.00     0.165 HD
ENDBRANCH  16  17
ENDBRANCH   4  16
BRANCH   1  22
HETATM   22  C2  UNL     1      29.850  -0.438  53.153  1.00  0.00     0.005 C 
HETATM   23  C1  UNL     1      29.512  -1.851  53.373  1.00  0.00     0.006 C 
ENDBRANCH   1  22
TORSDOF 8
ENDMDL
MODEL 6
REMARK VINA RESULT:      -7.0      1.528      2.685
REMARK  8 active torsions:
REMARK  status: ('A' for Active; 'I' for Inactive)
REMARK    1  A    between atoms: C2_2  and  C3_3 
REMARK    2  A    between atoms: C5_5  and  C6_6 
REMARK    3  A    between atoms: C6_6  and  C7_7 
REMARK    4  A    between atoms: C7_7  and  C8_8 
REMARK    5  A    between atoms: C8_8  and  C9_9 
REMARK    6  A    between atoms: C12_12  and  O1_13 
REMARK    7  A    between atoms: C15_16  and  C16_17 
REMARK    8  A    between atoms: C16_17  and  C17_18 
ROOT
HETATM    1  C3  UNL     1      22.027  -0.116  52.546  1.00  0.00     0.016 A 
HETATM    2  C4  UNL     1      23.206   0.125  53.370  1.00  0.00    -0.018 A 
HETATM    3  C5  UNL     1      23.507   1.215  52.747  1.00  0.00    -0.078 A 
HETATM    4  C15 UNL     1      22.338   1.123  51.895  1.00  0.00     0.027 A 
ENDROOT
BRANCH   3   5
HETATM    5  C6  UNL     1      24.616   2.197  52.905  1.00  0.00     0.034 C 
BRANCH   5   6
HETATM    6  C7  UNL     1      25.625   1.832  51.814  1.00  0.00     0.009 C 
BRANCH   6   7
HETATM    7  C8  UNL     1      26.993   1.769  52.395  1.00  0.00     0.039 C 
BRANCH   7   8
HETATM    8  C9  UNL     1      27.478   0.418  52.670  1.00  0.00    -0.058 A 
HETATM    9  C10 UNL     1      26.672  -0.664  52.302  1.00  0.00     0.010 A 
HETATM   10  C11 UNL     1      27.062  -1.973  52.529  1.00  0.00     0.037 A 
HETATM   11  C12 UNL     1      28.279  -2.215  53.136  1.00  0.00     0.065 A 
HETATM   12  C13 UNL     1      29.098  -1.163  53.511  1.00  0.00     0.037 A 
HETATM   13  C14 UNL     1      28.686   0.135  53.274  1.00  0.00     0.010 A 
BRANCH  11  14
HETATM   14  O1  UNL     1      28.678  -3.533  53.367  1.00  0.00    -0.361 OA
HETATM   15  H16 UNL     1      29.552  -3.707  53.879  1.00  0.00     0.217 HD
ENDBRANCH  11  14
ENDBRANCH   7   8
ENDBRANCH   6   7
ENDBRANCH   5   6
ENDBRANCH   3   5
BRANCH   4  16
HETATM   16  C16 UNL     1      21.370   2.258  51.887  1.00  0.00     0.068 C 
BRANCH  16  17
HETATM   17  C17 UNL     1      20.342   2.087  50.833  1.00  0.00     0.032 A 
HETATM   18  C18 UNL     1      19.281   1.401  50.392  1.00  0.00     0.028 A 
HETATM   19  C19 UNL     1      18.292   0.303  50.558  1.00  0.00     0.070 C 
HETATM   20  N1  UNL     1      19.710   2.474  49.590  1.00  0.00    -0.360 N 
HETATM   21  H25 UNL     1      19.643   3.090  48.747  1.00  0.00     0.165 HD
ENDBRANCH  16  17
ENDBRANCH   4  16
BRANCH   1  22
HETATM   22  C2  UNL     1      20.851  -0.369  53.419  1.00  0.00     0.005 C 
HETATM   23  C1  UNL     1      20.836  -1.564  54.274  1.00  0.00     0.006 C 
ENDBRANCH   1  22
TORSDOF 8
ENDMDL
MODEL 7
REMARK VINA RESULT:      -7.0      3.672      6.450
REMARK  8 active torsions:
REMARK  status: ('A' for Active; 'I' for Inactive)
REMARK    1  A    between atoms: C2_2  and  C3_3 
REMARK    2  A    between atoms: C5_5  and  C6_6 
REMARK    3  A    between atoms: C6_6  and  C7_7 
REMARK    4  A    between atoms: C7_7  and  C8_8 
REMARK    5  A    between atoms: C8_8  and  C9_9 
REMARK    6  A    between atoms: C12_12  and  O1_13 
REMARK    7  A    between atoms: C15_16  and  C16_17 
REMARK    8  A    between atoms: C16_17  and  C17_18 
ROOT
HETATM    1  C3  UNL     1      24.593   0.025  53.769  1.00  0.00     0.016 A 
HETATM    2  C4  UNL     1      24.728   1.360  53.199  1.00  0.00    -0.018 A 
HETATM    3  C5  UNL     1      25.970   1.183  52.894  1.00  0.00    -0.078 A 
HETATM    4  C15 UNL     1      25.957  -0.184  53.379  1.00  0.00     0.027 A 
ENDROOT
BRANCH   3   5
HETATM    5  C6  UNL     1      26.987   2.056  52.245  1.00  0.00     0.034 C 
BRANCH   5   6
HETATM    6  C7  UNL     1      26.602   2.079  50.765  1.00  0.00     0.009 C 
BRANCH   6   7
HETATM    7  C8  UNL     1      26.521   3.486  50.287  1.00  0.00     0.039 C 
BRANCH   7   8
HETATM    8  C9  UNL     1      25.230   3.862  49.714  1.00  0.00    -0.058 A 
HETATM    9  C10 UNL     1      25.127   5.096  49.064  1.00  0.00     0.010 A 
HETATM   10  C11 UNL     1      23.938   5.521  48.495  1.00  0.00     0.037 A 
HETATM   11  C12 UNL     1      22.826   4.706  48.574  1.00  0.00     0.065 A 
HETATM   12  C13 UNL     1      22.899   3.480  49.212  1.00  0.00     0.037 A 
HETATM   13  C14 UNL     1      24.097   3.076  49.771  1.00  0.00     0.010 A 
BRANCH  11  14
HETATM   14  O1  UNL     1      21.625   5.130  48.003  1.00  0.00    -0.361 OA
HETATM   15  H16 UNL     1      21.482   5.008  46.993  1.00  0.00     0.217 HD
ENDBRANCH  11  14
ENDBRANCH   7   8
ENDBRANCH   6   7
ENDBRANCH   5   6
ENDBRANCH   3   5
BRANCH   4  16
HETATM   16  C16 UNL     1      26.335  -1.277  52.439  1.00  0.00     0.068 C 
BRANCH  16  17
HETATM   17  C17 UNL     1      27.608  -1.922  52.839  1.00  0.00     0.032 A 
HETATM   18  C18 UNL     1      28.872  -1.765  53.252  1.00  0.00     0.028 A 
HETATM   19  C19 UNL     1      30.006  -0.884  53.635  1.00  0.00     0.070 C 
HETATM   20  N1  UNL     1      28.424  -3.089  53.094  1.00  0.00    -0.360 N 
HETATM   21  H25 UNL     1      28.558  -4.127  53.128  1.00  0.00     0.165 HD
ENDBRANCH  16  17
ENDBRANCH   4  16
BRANCH   1  22
HETATM   22  C2  UNL     1      23.407  -0.652  53.181  1.00  0.00     0.005 C 
HETATM   23  C1  UNL     1      22.289  -1.027  54.057  1.00  0.00     0.006 C 
ENDBRANCH   1  22
TORSDOF 8
ENDMDL
MODEL 8
REMARK VINA RESULT:      -7.0      3.298      6.153
REMARK  8 active torsions:
REMARK  status: ('A' for Active; 'I' for Inactive)
REMARK    1  A    between atoms: C2_2  and  C3_3 
REMARK    2  A    between atoms: C5_5  and  C6_6 
REMARK    3  A    between atoms: C6_6  and  C7_7 
REMARK    4  A    between atoms: C7_7  and  C8_8 
REMARK    5  A    between atoms: C8_8  and  C9_9 
REMARK    6  A    between atoms: C12_12  and  O1_13 
REMARK    7  A    between atoms: C15_16  and  C16_17 
REMARK    8  A    between atoms: C16_17  and  C17_18 
ROOT
HETATM    1  C3  UNL     1      25.584  -0.213  53.362  1.00  0.00     0.016 A 
HETATM    2  C4  UNL     1      24.272   0.259  52.937  1.00  0.00    -0.018 A 
HETATM    3  C5  UNL     1      24.584   1.500  53.104  1.00  0.00    -0.078 A 
HETATM    4  C15 UNL     1      25.941   1.169  53.495  1.00  0.00     0.027 A 
ENDROOT
BRANCH   3   5
HETATM    5  C6  UNL     1      23.828   2.768  52.911  1.00  0.00     0.034 C 
BRANCH   5   6
HETATM    6  C7  UNL     1      23.417   2.763  51.438  1.00  0.00     0.009 C 
BRANCH   6   7
HETATM    7  C8  UNL     1      23.491   4.145  50.890  1.00  0.00     0.039 C 
BRANCH   7   8
HETATM    8  C9  UNL     1      24.737   4.458  50.194  1.00  0.00    -0.058 A 
HETATM    9  C10 UNL     1      25.647   3.422  49.962  1.00  0.00     0.010 A 
HETATM   10  C11 UNL     1      26.848   3.640  49.309  1.00  0.00     0.037 A 
HETATM   11  C12 UNL     1      27.155   4.915  48.875  1.00  0.00     0.065 A 
HETATM   12  C13 UNL     1      26.272   5.960  49.089  1.00  0.00     0.037 A 
HETATM   13  C14 UNL     1      25.079   5.717  49.745  1.00  0.00     0.010 A 
BRANCH  11  14
HETATM   14  O1  UNL     1      28.364   5.142  48.215  1.00  0.00    -0.361 OA
HETATM   15  H16 UNL     1      28.600   4.569  47.395  1.00  0.00     0.217 HD
ENDBRANCH  11  14
ENDBRANCH   7   8
ENDBRANCH   6   7
ENDBRANCH   5   6
ENDBRANCH   3   5
BRANCH   4  16
HETATM   16  C16 UNL     1      27.070   1.755  52.718  1.00  0.00     0.068 C 
BRANCH  16  17
HETATM   17  C17 UNL     1      28.352   1.641  53.452  1.00  0.00     0.032 A 
HETATM   18  C18 UNL     1      29.406   0.879  53.772  1.00  0.00     0.028 A 
HETATM   19  C19 UNL     1      30.145  -0.407  53.682  1.00  0.00     0.070 C 
HETATM   20  N1  UNL     1      29.392   2.183  54.299  1.00  0.00    -0.360 N 
HETATM   21  H25 UNL     1      29.802   2.962  54.866  1.00  0.00     0.165 HD
ENDBRANCH  16  17
ENDBRANCH   4  16
BRANCH   1  22
HETATM   22  C2  UNL     1      26.127  -1.159  52.352  1.00  0.00     0.005 C 
HETATM   23  C1  UNL     1      27.208  -2.077  52.738  1.00  0.00     0.006 C 
ENDBRANCH   1  22
TORSDOF 8
ENDMDL
MODEL 9
REMARK VINA RESULT:      -7.0      3.460      6.458
REMARK  8 active torsions:
REMARK  status: ('A' for Active; 'I' for Inactive)
REMARK    1  A    between atoms: C2_2  and  C3_3 
REMARK    2  A    between atoms: C5_5  and  C6_6 
REMARK    3  A    between atoms: C6_6  and  C7_7 
REMARK    4  A    between atoms: C7_7  and  C8_8 
REMARK    5  A    between atoms: C8_8  and  C9_9 
REMARK    6  A    between atoms: C12_12  and  O1_13 
REMARK    7  A    between atoms: C15_16  and  C16_17 
REMARK    8  A    between atoms: C16_17  and  C17_18 
ROOT
HETATM    1  C3  UNL     1      26.772  -0.741  52.432  1.00  0.00     0.016 A 
HETATM    2  C4  UNL     1      26.943   0.638  51.991  1.00  0.00    -0.018 A 
HETATM    3  C5  UNL     1      25.868   1.037  52.583  1.00  0.00    -0.078 A 
HETATM    4  C15 UNL     1      25.608  -0.280  53.132  1.00  0.00     0.027 A 
ENDROOT
BRANCH   3   5
HETATM    5  C6  UNL     1      25.203   2.366  52.685  1.00  0.00     0.034 C 
BRANCH   5   6
HETATM    6  C7  UNL     1      23.862   2.192  51.971  1.00  0.00     0.009 C 
BRANCH   6   7
HETATM    7  C8  UNL     1      24.045   2.365  50.505  1.00  0.00     0.039 C 
BRANCH   7   8
HETATM    8  C9  UNL     1      24.944   3.454  50.126  1.00  0.00    -0.058 A 
HETATM    9  C10 UNL     1      24.540   4.767  50.383  1.00  0.00     0.010 A 
HETATM   10  C11 UNL     1      25.337   5.851  50.054  1.00  0.00     0.037 A 
HETATM   11  C12 UNL     1      26.562   5.628  49.457  1.00  0.00     0.065 A 
HETATM   12  C13 UNL     1      26.988   4.337  49.192  1.00  0.00     0.037 A 
HETATM   13  C14 UNL     1      26.175   3.271  49.530  1.00  0.00     0.010 A 
BRANCH  11  14
HETATM   14  O1  UNL     1      27.370   6.716  49.124  1.00  0.00    -0.361 OA
HETATM   15  H16 UNL     1      26.988   7.666  49.211  1.00  0.00     0.217 HD
ENDBRANCH  11  14
ENDBRANCH   7   8
ENDBRANCH   6   7
ENDBRANCH   5   6
ENDBRANCH   3   5
BRANCH   4  16
HETATM   16  C16 UNL     1      25.486  -0.425  54.610  1.00  0.00     0.068 C 
BRANCH  16  17
HETATM   17  C17 UNL     1      24.156  -0.953  54.996  1.00  0.00     0.032 A 
HETATM   18  C18 UNL     1      22.849  -1.033  54.717  1.00  0.00     0.028 A 
HETATM   19  C19 UNL     1      21.689  -0.691  53.852  1.00  0.00     0.070 C 
HETATM   20  N1  UNL     1      23.289  -1.722  55.862  1.00  0.00    -0.360 N 
HETATM   21  H25 UNL     1      23.131  -2.326  56.702  1.00  0.00     0.165 HD
ENDBRANCH  16  17
ENDBRANCH   4  16
BRANCH   1  22
HETATM   22  C2  UNL     1      28.030  -1.225  53.060  1.00  0.00     0.005 C 
HETATM   23  C1  UNL     1      29.046  -0.248  53.475  1.00  0.00     0.006 C 
ENDBRANCH   1  22
TORSDOF 8
ENDMDL
