MODEL 1
REMARK VINA RESULT:      -8.3      0.000      0.000
REMARK  1 active torsions:
REMARK  status: ('A' for Active; 'I' for Inactive)
REMARK    1  A    between atoms: O1_2  and  C2_3 
ROOT
HETATM    1  C2  UNL     1      21.994   2.357  51.525  1.00  0.00     0.045 C 
HETATM    2  C3  UNL     1      22.868   1.688  52.227  1.00  0.00     0.021 C 
HETATM    3  C4  UNL     1      24.015   1.318  52.988  1.00  0.00     0.100 C 
HETATM    4  C5  UNL     1      25.219   1.144  52.081  1.00  0.00     0.099 C 
HETATM    5  N1  UNL     1      26.466   0.673  52.037  1.00  0.00    -0.291 NA
HETATM    6  C6  UNL     1      27.505   0.713  52.999  1.00  0.00     0.161 C 
HETATM    7  C7  UNL     1      26.987   0.781  54.382  1.00  0.00     0.034 C 
HETATM    8  C8  UNL     1      26.356  -0.381  54.067  1.00  0.00     0.031 C 
HETATM    9  C9  UNL     1      27.196  -1.372  53.274  1.00  0.00     0.034 C 
HETATM   10  C10 UNL     1      28.277  -0.601  53.181  1.00  0.00    -0.053 C 
HETATM   11  C11 UNL     1      29.650  -1.155  53.235  1.00  0.00     0.046 C 
HETATM   12  N2  UNL     1      24.935  -0.759  54.203  1.00  0.00    -0.359 N 
HETATM   13  C12 UNL     1      23.727  -0.002  53.723  1.00  0.00     0.022 C 
HETATM   14  C13 UNL     1      22.820  -0.844  54.085  1.00  0.00     0.028 C 
HETATM   15  C14 UNL     1      21.406  -1.147  54.047  1.00  0.00     0.026 C 
HETATM   16  C15 UNL     1      20.381  -0.524  53.505  1.00  0.00     0.134 C 
HETATM   17  O2  UNL     1      20.225   0.656  52.758  1.00  0.00    -0.363 OA
HETATM   18  C16 UNL     1      20.278   0.696  51.343  1.00  0.00     0.181 C 
HETATM   19  C17 UNL     1      20.695   2.095  50.895  1.00  0.00     0.091 C 
HETATM   20  H13 UNL     1      24.858  -1.680  54.657  1.00  0.00     0.166 HD
ENDROOT
BRANCH   1  21
HETATM   21  O1  UNL     1      22.943   3.312  51.749  1.00  0.00    -0.360 OA
HETATM   22  C1  UNL     1      22.720   4.664  52.048  1.00  0.00     0.209 C 
ENDBRANCH   1  21
TORSDOF 1
ENDMDL
MODEL 2
REMARK VINA RESULT:      -7.7      2.462      4.668
REMARK  1 active torsions:
REMARK  status: ('A' for Active; 'I' for Inactive)
REMARK    1  A    between atoms: O1_2  and  C2_3 
ROOT
HETATM    1  C2  UNL     1      22.164   4.784  51.509  1.00  0.00     0.045 C 
HETATM    2  C3  UNL     1      23.276   4.099  51.479  1.00  0.00     0.021 C 
HETATM    3  C4  UNL     1      24.242   3.057  51.586  1.00  0.00     0.100 C 
HETATM    4  C5  UNL     1      24.625   2.837  53.038  1.00  0.00     0.099 C 
HETATM    5  N1  UNL     1      25.512   2.233  53.830  1.00  0.00    -0.291 NA
HETATM    6  C6  UNL     1      26.125   0.960  53.732  1.00  0.00     0.161 C 
HETATM    7  C7  UNL     1      26.223   0.492  52.333  1.00  0.00     0.034 C 
HETATM    8  C8  UNL     1      26.928   1.636  52.133  1.00  0.00     0.031 C 
HETATM    9  C9  UNL     1      27.924   1.976  53.232  1.00  0.00     0.034 C 
HETATM   10  C10 UNL     1      27.633   0.939  54.014  1.00  0.00    -0.053 C 
HETATM   11  C11 UNL     1      28.667   0.232  54.806  1.00  0.00     0.046 C 
HETATM   12  N2  UNL     1      26.750   2.697  51.122  1.00  0.00    -0.359 N 
HETATM   13  C12 UNL     1      25.490   3.442  50.775  1.00  0.00     0.022 C 
HETATM   14  C13 UNL     1      25.981   4.241  49.888  1.00  0.00     0.028 C 
HETATM   15  C14 UNL     1      25.695   5.362  49.021  1.00  0.00     0.026 C 
HETATM   16  C15 UNL     1      24.607   6.080  48.831  1.00  0.00     0.134 C 
HETATM   17  O2  UNL     1      23.309   6.067  49.368  1.00  0.00    -0.363 OA
HETATM   18  C16 UNL     1      22.927   6.820  50.505  1.00  0.00     0.181 C 
HETATM   19  C17 UNL     1      21.734   6.146  51.177  1.00  0.00     0.091 C 
HETATM   20  H13 UNL     1      27.654   2.916  50.680  1.00  0.00     0.166 HD
ENDROOT
BRANCH   1  21
HETATM   21  O1  UNL     1      21.742   3.570  51.970  1.00  0.00    -0.360 OA
HETATM   22  C1  UNL     1      20.419   3.187  52.235  1.00  0.00     0.209 C 
ENDBRANCH   1  21
TORSDOF 1
ENDMDL
MODEL 3
REMARK VINA RESULT:      -7.6      2.414      3.270
REMARK  1 active torsions:
REMARK  status: ('A' for Active; 'I' for Inactive)
REMARK    1  A    between atoms: O1_2  and  C2_3 
ROOT
HETATM    1  C2  UNL     1      24.011   4.992  49.420  1.00  0.00     0.045 C 
HETATM    2  C3  UNL     1      24.255   4.012  50.248  1.00  0.00     0.021 C 
HETATM    3  C4  UNL     1      24.732   3.237  51.344  1.00  0.00     0.100 C 
HETATM    4  C5  UNL     1      26.200   2.898  51.154  1.00  0.00     0.099 C 
HETATM    5  N1  UNL     1      27.187   2.127  51.612  1.00  0.00    -0.291 NA
HETATM    6  C6  UNL     1      27.521   1.738  52.932  1.00  0.00     0.161 C 
HETATM    7  C7  UNL     1      26.344   1.718  53.826  1.00  0.00     0.034 C 
HETATM    8  C8  UNL     1      25.838   0.830  52.930  1.00  0.00     0.031 C 
HETATM    9  C9  UNL     1      26.830  -0.208  52.427  1.00  0.00     0.034 C 
HETATM   10  C10 UNL     1      27.878   0.255  53.104  1.00  0.00    -0.053 C 
HETATM   11  C11 UNL     1      28.904  -0.644  53.682  1.00  0.00     0.046 C 
HETATM   12  N2  UNL     1      24.540   0.824  52.227  1.00  0.00    -0.359 N 
HETATM   13  C12 UNL     1      23.911   1.940  51.438  1.00  0.00     0.022 C 
HETATM   14  C13 UNL     1      22.849   1.320  51.048  1.00  0.00     0.028 C 
HETATM   15  C14 UNL     1      21.662   1.411  50.226  1.00  0.00     0.026 C 
HETATM   16  C15 UNL     1      21.200   2.362  49.441  1.00  0.00     0.134 C 
HETATM   17  O2  UNL     1      21.643   3.644  49.076  1.00  0.00    -0.363 OA
HETATM   18  C16 UNL     1      22.469   3.894  47.952  1.00  0.00     0.181 C 
HETATM   19  C17 UNL     1      23.250   5.186  48.180  1.00  0.00     0.091 C 
HETATM   20  H13 UNL     1      24.101  -0.104  52.306  1.00  0.00     0.166 HD
ENDROOT
BRANCH   1  21
HETATM   21  O1  UNL     1      24.802   5.614  50.342  1.00  0.00    -0.360 OA
HETATM   22  C1  UNL     1      24.856   6.990  50.611  1.00  0.00     0.209 C 
ENDBRANCH   1  21
TORSDOF 1
ENDMDL
MODEL 4
REMARK VINA RESULT:      -7.4      3.480      6.245
REMARK  1 active torsions:
REMARK  status: ('A' for Active; 'I' for Inactive)
REMARK    1  A    between atoms: O1_2  and  C2_3 
ROOT
HETATM    1  C2  UNL     1      24.156   7.319  50.535  1.00  0.00     0.045 C 
HETATM    2  C3  UNL     1      24.349   6.028  50.572  1.00  0.00     0.021 C 
HETATM    3  C4  UNL     1      24.152   4.619  50.665  1.00  0.00     0.100 C 
HETATM    4  C5  UNL     1      23.909   4.211  52.106  1.00  0.00     0.099 C 
HETATM    5  N1  UNL     1      23.840   3.160  52.923  1.00  0.00    -0.291 NA
HETATM    6  C6  UNL     1      23.295   1.867  52.724  1.00  0.00     0.161 C 
HETATM    7  C7  UNL     1      23.313   1.464  51.302  1.00  0.00     0.034 C 
HETATM    8  C8  UNL     1      24.655   1.662  51.395  1.00  0.00     0.031 C 
HETATM    9  C9  UNL     1      25.292   1.141  52.675  1.00  0.00     0.034 C 
HETATM   10  C10 UNL     1      24.163   0.708  53.231  1.00  0.00    -0.053 C 
HETATM   11  C11 UNL     1      24.109  -0.523  54.054  1.00  0.00     0.046 C 
HETATM   12  N2  UNL     1      25.558   2.464  50.546  1.00  0.00    -0.359 N 
HETATM   13  C12 UNL     1      25.401   3.900  50.128  1.00  0.00     0.022 C 
HETATM   14  C13 UNL     1      26.500   4.025  49.464  1.00  0.00     0.028 C 
HETATM   15  C14 UNL     1      27.349   4.951  48.748  1.00  0.00     0.026 C 
HETATM   16  C15 UNL     1      27.245   6.242  48.505  1.00  0.00     0.134 C 
HETATM   17  O2  UNL     1      26.303   7.234  48.825  1.00  0.00    -0.363 OA
HETATM   18  C16 UNL     1      26.378   8.033  49.992  1.00  0.00     0.181 C 
HETATM   19  C17 UNL     1      24.978   8.521  50.357  1.00  0.00     0.091 C 
HETATM   20  H13 UNL     1      26.386   1.907  50.289  1.00  0.00     0.166 HD
ENDROOT
BRANCH   1  21
HETATM   21  O1  UNL     1      22.884   6.865  50.730  1.00  0.00    -0.360 OA
HETATM   22  C1  UNL     1      21.695   7.550  50.437  1.00  0.00     0.209 C 
ENDBRANCH   1  21
TORSDOF 1
ENDMDL
MODEL 5
REMARK VINA RESULT:      -7.3      2.380      6.106
REMARK  1 active torsions:
REMARK  status: ('A' for Active; 'I' for Inactive)
REMARK    1  A    between atoms: O1_2  and  C2_3 
ROOT
HETATM    1  C2  UNL     1      25.696   2.134  51.524  1.00  0.00     0.045 C 
HETATM    2  C3  UNL     1      24.460   2.079  51.939  1.00  0.00     0.021 C 
HETATM    3  C4  UNL     1      23.277   1.775  52.674  1.00  0.00     0.100 C 
HETATM    4  C5  UNL     1      22.801   0.370  52.355  1.00  0.00     0.099 C 
HETATM    5  N1  UNL     1      21.772  -0.467  52.490  1.00  0.00    -0.291 NA
HETATM    6  C6  UNL     1      20.887  -0.679  53.576  1.00  0.00     0.161 C 
HETATM    7  C7  UNL     1      20.735   0.526  54.418  1.00  0.00     0.034 C 
HETATM    8  C8  UNL     1      20.319   1.122  53.269  1.00  0.00     0.031 C 
HETATM    9  C9  UNL     1      19.388   0.278  52.411  1.00  0.00     0.034 C 
HETATM   10  C10 UNL     1      19.405  -0.797  53.195  1.00  0.00    -0.053 C 
HETATM   11  C11 UNL     1      18.209  -1.648  53.396  1.00  0.00     0.046 C 
HETATM   12  N2  UNL     1      20.771   2.372  52.629  1.00  0.00    -0.359 N 
HETATM   13  C12 UNL     1      22.180   2.788  52.305  1.00  0.00     0.022 C 
HETATM   14  C13 UNL     1      21.918   3.914  51.732  1.00  0.00     0.028 C 
HETATM   15  C14 UNL     1      22.484   5.035  51.015  1.00  0.00     0.026 C 
HETATM   16  C15 UNL     1      23.714   5.311  50.632  1.00  0.00     0.134 C 
HETATM   17  O2  UNL     1      24.954   4.662  50.749  1.00  0.00    -0.363 OA
HETATM   18  C16 UNL     1      25.457   3.759  49.780  1.00  0.00     0.181 C 
HETATM   19  C17 UNL     1      26.440   2.800  50.449  1.00  0.00     0.091 C 
HETATM   20  H13 UNL     1      19.959   2.951  52.374  1.00  0.00     0.166 HD
ENDROOT
BRANCH   1  21
HETATM   21  O1  UNL     1      25.812   1.300  52.599  1.00  0.00    -0.360 OA
HETATM   22  C1  UNL     1      26.631   0.165  52.696  1.00  0.00     0.209 C 
ENDBRANCH   1  21
TORSDOF 1
ENDMDL
MODEL 6
REMARK VINA RESULT:      -7.2      2.349      5.531
REMARK  1 active torsions:
REMARK  status: ('A' for Active; 'I' for Inactive)
REMARK    1  A    between atoms: O1_2  and  C2_3 
ROOT
HETATM    1  C2  UNL     1      24.885  -0.434  54.013  1.00  0.00     0.045 C 
HETATM    2  C3  UNL     1      24.114   0.382  53.347  1.00  0.00     0.021 C 
HETATM    3  C4  UNL     1      23.606   1.302  52.385  1.00  0.00     0.100 C 
HETATM    4  C5  UNL     1      24.172   2.689  52.629  1.00  0.00     0.099 C 
HETATM    5  N1  UNL     1      24.034   3.974  52.298  1.00  0.00    -0.291 NA
HETATM    6  C6  UNL     1      23.735   4.583  51.055  1.00  0.00     0.161 C 
HETATM    7  C7  UNL     1      22.949   3.696  50.171  1.00  0.00     0.034 C 
HETATM    8  C8  UNL     1      22.050   3.687  51.191  1.00  0.00     0.031 C 
HETATM    9  C9  UNL     1      21.817   5.038  51.851  1.00  0.00     0.034 C 
HETATM   10  C10 UNL     1      22.697   5.711  51.114  1.00  0.00    -0.053 C 
HETATM   11  C11 UNL     1      22.460   7.110  50.684  1.00  0.00     0.046 C 
HETATM   12  N2  UNL     1      21.409   2.551  51.882  1.00  0.00    -0.359 N 
HETATM   13  C12 UNL     1      22.072   1.344  52.489  1.00  0.00     0.022 C 
HETATM   14  C13 UNL     1      21.020   0.770  52.966  1.00  0.00     0.028 C 
HETATM   15  C14 UNL     1      20.536  -0.337  53.760  1.00  0.00     0.026 C 
HETATM   16  C15 UNL     1      21.156  -1.314  54.389  1.00  0.00     0.134 C 
HETATM   17  O2  UNL     1      22.501  -1.686  54.553  1.00  0.00    -0.363 OA
HETATM   18  C16 UNL     1      23.308  -1.238  55.628  1.00  0.00     0.181 C 
HETATM   19  C17 UNL     1      24.775  -1.282  55.206  1.00  0.00     0.091 C 
HETATM   20  H13 UNL     1      20.394   2.706  51.946  1.00  0.00     0.166 HD
ENDROOT
BRANCH   1  21
HETATM   21  O1  UNL     1      25.720  -0.040  53.008  1.00  0.00    -0.360 OA
HETATM   22  C1  UNL     1      27.110  -0.218  52.953  1.00  0.00     0.209 C 
ENDBRANCH   1  21
TORSDOF 1
ENDMDL
MODEL 7
REMARK VINA RESULT:      -7.1      3.905      6.021
REMARK  1 active torsions:
REMARK  status: ('A' for Active; 'I' for Inactive)
REMARK    1  A    between atoms: O1_2  and  C2_3 
ROOT
HETATM    1  C2  UNL     1      15.910  -0.233  51.099  1.00  0.00     0.045 C 
HETATM    2  C3  UNL     1      16.923  -0.490  51.882  1.00  0.00     0.021 C 
HETATM    3  C4  UNL     1      18.041  -0.360  52.756  1.00  0.00     0.100 C 
HETATM    4  C5  UNL     1      19.276   0.057  51.977  1.00  0.00     0.099 C 
HETATM    5  N1  UNL     1      20.601   0.180  52.060  1.00  0.00    -0.291 NA
HETATM    6  C6  UNL     1      21.425   0.620  53.125  1.00  0.00     0.161 C 
HETATM    7  C7  UNL     1      20.808   0.382  54.447  1.00  0.00     0.034 C 
HETATM    8  C8  UNL     1      20.783  -0.921  54.059  1.00  0.00     0.031 C 
HETATM    9  C9  UNL     1      22.041  -1.402  53.351  1.00  0.00     0.034 C 
HETATM   10  C10 UNL     1      22.676  -0.233  53.376  1.00  0.00    -0.053 C 
HETATM   11  C11 UNL     1      24.142  -0.133  53.568  1.00  0.00     0.046 C 
HETATM   12  N2  UNL     1      19.668  -1.887  54.044  1.00  0.00    -0.359 N 
HETATM   13  C12 UNL     1      18.299  -1.710  53.447  1.00  0.00     0.022 C 
HETATM   14  C13 UNL     1      17.826  -2.882  53.706  1.00  0.00     0.028 C 
HETATM   15  C14 UNL     1      16.700  -3.770  53.520  1.00  0.00     0.026 C 
HETATM   16  C15 UNL     1      15.558  -3.629  52.878  1.00  0.00     0.134 C 
HETATM   17  O2  UNL     1      14.967  -2.598  52.128  1.00  0.00    -0.363 OA
HETATM   18  C16 UNL     1      15.123  -2.465  50.726  1.00  0.00     0.181 C 
HETATM   19  C17 UNL     1      14.922  -1.003  50.335  1.00  0.00     0.091 C 
HETATM   20  H13 UNL     1      19.963  -2.772  54.481  1.00  0.00     0.166 HD
ENDROOT
BRANCH   1  21
HETATM   21  O1  UNL     1      16.318   1.027  51.427  1.00  0.00    -0.360 OA
HETATM   22  C1  UNL     1      16.291   2.160  50.601  1.00  0.00     0.209 C 
ENDBRANCH   1  21
TORSDOF 1
ENDMDL
MODEL 8
REMARK VINA RESULT:      -7.0      2.524      6.683
REMARK  1 active torsions:
REMARK  status: ('A' for Active; 'I' for Inactive)
REMARK    1  A    between atoms: O1_2  and  C2_3 
ROOT
HETATM    1  C2  UNL     1      25.271  -0.459  53.615  1.00  0.00     0.045 C 
HETATM    2  C3  UNL     1      24.318   0.228  53.045  1.00  0.00     0.021 C 
HETATM    3  C4  UNL     1      23.076   0.868  52.763  1.00  0.00     0.100 C 
HETATM    4  C5  UNL     1      22.040  -0.154  52.328  1.00  0.00     0.099 C 
HETATM    5  N1  UNL     1      20.834  -0.285  51.776  1.00  0.00    -0.291 NA
HETATM    6  C6  UNL     1      19.652   0.479  51.942  1.00  0.00     0.161 C 
HETATM    7  C7  UNL     1      19.937   1.878  52.324  1.00  0.00     0.034 C 
HETATM    8  C8  UNL     1      20.649   1.915  51.167  1.00  0.00     0.031 C 
HETATM    9  C9  UNL     1      19.981   1.232  49.982  1.00  0.00     0.034 C 
HETATM   10  C10 UNL     1      18.905   0.815  50.644  1.00  0.00    -0.053 C 
HETATM   11  C11 UNL     1      17.561   0.777  50.023  1.00  0.00     0.046 C 
HETATM   12  N2  UNL     1      22.041   2.341  50.920  1.00  0.00    -0.359 N 
HETATM   13  C12 UNL     1      23.285   1.900  51.642  1.00  0.00     0.022 C 
HETATM   14  C13 UNL     1      24.149   2.565  50.953  1.00  0.00     0.028 C 
HETATM   15  C14 UNL     1      25.559   2.806  50.743  1.00  0.00     0.026 C 
HETATM   16  C15 UNL     1      26.638   2.305  51.310  1.00  0.00     0.134 C 
HETATM   17  O2  UNL     1      26.872   1.358  52.321  1.00  0.00    -0.363 OA
HETATM   18  C16 UNL     1      27.048  -0.025  52.069  1.00  0.00     0.181 C 
HETATM   19  C17 UNL     1      26.662  -0.816  53.316  1.00  0.00     0.091 C 
HETATM   20  H13 UNL     1      22.074   2.986  50.118  1.00  0.00     0.166 HD
ENDROOT
BRANCH   1  21
HETATM   21  O1  UNL     1      24.266  -0.588  54.529  1.00  0.00    -0.360 OA
HETATM   22  C1  UNL     1      24.325  -1.280  55.748  1.00  0.00     0.209 C 
ENDBRANCH   1  21
TORSDOF 1
ENDMDL
MODEL 9
REMARK VINA RESULT:      -7.0      5.344      8.132
REMARK  1 active torsions:
REMARK  status: ('A' for Active; 'I' for Inactive)
REMARK    1  A    between atoms: O1_2  and  C2_3 
ROOT
HETATM    1  C2  UNL     1      26.130   8.794  49.154  1.00  0.00     0.045 C 
HETATM    2  C3  UNL     1      26.027   7.492  49.168  1.00  0.00     0.021 C 
HETATM    3  C4  UNL     1      25.520   6.161  49.119  1.00  0.00     0.100 C 
HETATM    4  C5  UNL     1      24.794   5.823  50.408  1.00  0.00     0.099 C 
HETATM    5  N1  UNL     1      24.273   4.816  51.109  1.00  0.00    -0.291 NA
HETATM    6  C6  UNL     1      23.549   3.673  50.690  1.00  0.00     0.161 C 
HETATM    7  C7  UNL     1      23.890   3.268  49.310  1.00  0.00     0.034 C 
HETATM    8  C8  UNL     1      25.158   3.169  49.788  1.00  0.00     0.031 C 
HETATM    9  C9  UNL     1      25.276   2.527  51.163  1.00  0.00     0.034 C 
HETATM   10  C10 UNL     1      23.971   2.354  51.353  1.00  0.00    -0.053 C 
HETATM   11  C11 UNL     1      23.425   1.168  52.054  1.00  0.00     0.046 C 
HETATM   12  N2  UNL     1      26.415   3.750  49.276  1.00  0.00    -0.359 N 
HETATM   13  C12 UNL     1      26.691   5.184  48.915  1.00  0.00     0.022 C 
HETATM   14  C13 UNL     1      27.934   5.063  48.595  1.00  0.00     0.028 C 
HETATM   15  C14 UNL     1      29.128   5.778  48.202  1.00  0.00     0.026 C 
HETATM   16  C15 UNL     1      29.373   7.059  48.015  1.00  0.00     0.134 C 
HETATM   17  O2  UNL     1      28.610   8.234  48.114  1.00  0.00    -0.363 OA
HETATM   18  C16 UNL     1      28.512   9.003  49.300  1.00  0.00     0.181 C 
HETATM   19  C17 UNL     1      27.202   9.787  49.284  1.00  0.00     0.091 C 
HETATM   20  H13 UNL     1      27.145   3.025  49.231  1.00  0.00     0.166 HD
ENDROOT
BRANCH   1  21
HETATM   21  O1  UNL     1      24.790   8.630  48.956  1.00  0.00    -0.360 OA
HETATM   22  C1  UNL     1      23.952   9.437  48.171  1.00  0.00     0.209 C 
ENDBRANCH   1  21
TORSDOF 1
ENDMDL
