MODEL 1
REMARK VINA RESULT:      -6.8      0.000      0.000
REMARK  8 active torsions:
REMARK  status: ('A' for Active; 'I' for Inactive)
REMARK    1  A    between atoms: O1_2  and  C2_3 
REMARK    2  A    between atoms: C2_3  and  C3_4 
REMARK    3  A    between atoms: C3_4  and  O2_5 
REMARK    4  A    between atoms: O2_5  and  C4_6 
REMARK    5  A    between atoms: C4_6  and  O3_7 
REMARK    6  A    between atoms: O3_7  and  C5_8 
REMARK    7  A    between atoms: C5_8  and  C6_9 
REMARK    8  A    between atoms: C6_9  and  O4_10 
ROOT
HETATM    1  C4  UNL     1      22.642   2.210  50.762  1.00  0.00     0.216 C 
HETATM    2  C8  UNL     1      23.485   2.875  49.689  1.00  0.00     0.078 C 
HETATM    3  C9  UNL     1      24.719   2.868  50.304  1.00  0.00     0.069 A 
HETATM    4  N1  UNL     1      25.728   3.353  49.840  1.00  0.00    -0.262 N 
HETATM    5  C10 UNL     1      26.727   3.876  49.301  1.00  0.00     0.203 A 
HETATM    6  N2  UNL     1      26.963   3.345  50.406  1.00  0.00    -0.131 NA
HETATM    7  C11 UNL     1      26.467   2.679  51.427  1.00  0.00     0.116 A 
HETATM    8  C12 UNL     1      25.158   2.370  51.384  1.00  0.00     0.045 A 
HETATM    9  C13 UNL     1      23.907   1.846  51.643  1.00  0.00     0.029 C 
HETATM   10  C14 UNL     1      23.915   0.775  52.620  1.00  0.00    -0.049 C 
HETATM   11  C15 UNL     1      22.603   0.017  52.633  1.00  0.00     0.049 C 
HETATM   12  C16 UNL     1      24.799   0.213  53.443  1.00  0.00     0.007 C 
HETATM   13  C17 UNL     1      25.910  -0.196  54.213  1.00  0.00    -0.002 C 
HETATM   14  C18 UNL     1      26.983   0.484  54.024  1.00  0.00    -0.007 C 
HETATM   15  C19 UNL     1      27.942   1.499  53.509  1.00  0.00     0.148 C 
HETATM   16  N3  UNL     1      27.210   2.359  52.559  1.00  0.00    -0.375 N 
HETATM   17  H25 UNL     1      27.281   3.339  52.972  1.00  0.00     0.161 HD
ENDROOT
BRANCH   1  18
HETATM   18  O2  UNL     1      22.015   3.183  51.329  1.00  0.00    -0.346 OA
BRANCH  18  19
HETATM   19  C3  UNL     1      21.409   4.057  51.943  1.00  0.00     0.198 C 
BRANCH  19  20
HETATM   20  C2  UNL     1      22.011   5.453  51.556  1.00  0.00     0.193 C 
BRANCH  20  21
HETATM   21  O1  UNL     1      23.283   5.590  51.940  1.00  0.00    -0.394 OA
HETATM   22  C1  UNL     1      24.135   6.382  51.209  1.00  0.00     0.201 C 
ENDBRANCH  20  21
ENDBRANCH  19  20
ENDBRANCH  18  19
ENDBRANCH   1  18
BRANCH   1  23
HETATM   23  O3  UNL     1      22.029   1.085  50.442  1.00  0.00    -0.346 OA
BRANCH  23  24
HETATM   24  C5  UNL     1      21.389   0.913  49.299  1.00  0.00     0.198 C 
BRANCH  24  25
HETATM   25  C6  UNL     1      19.834   1.272  49.619  1.00  0.00     0.193 C 
BRANCH  25  26
HETATM   26  O4  UNL     1      19.464   0.658  50.646  1.00  0.00    -0.394 OA
HETATM   27  C7  UNL     1      18.839   0.055  51.540  1.00  0.00     0.201 C 
ENDBRANCH  25  26
ENDBRANCH  24  25
ENDBRANCH  23  24
ENDBRANCH   1  23
TORSDOF 8
ENDMDL
MODEL 2
REMARK VINA RESULT:      -6.5      2.993      5.961
REMARK  8 active torsions:
REMARK  status: ('A' for Active; 'I' for Inactive)
REMARK    1  A    between atoms: O1_2  and  C2_3 
REMARK    2  A    between atoms: C2_3  and  C3_4 
REMARK    3  A    between atoms: C3_4  and  O2_5 
REMARK    4  A    between atoms: O2_5  and  C4_6 
REMARK    5  A    between atoms: C4_6  and  O3_7 
REMARK    6  A    between atoms: O3_7  and  C5_8 
REMARK    7  A    between atoms: C5_8  and  C6_9 
REMARK    8  A    between atoms: C6_9  and  O4_10 
ROOT
HETATM    1  C4  UNL     1      24.189   1.558  52.433  1.00  0.00     0.216 C 
HETATM    2  C8  UNL     1      24.539   0.550  53.513  1.00  0.00     0.078 C 
HETATM    3  C9  UNL     1      23.287   0.047  53.798  1.00  0.00     0.069 A 
HETATM    4  N1  UNL     1      23.047  -0.773  54.657  1.00  0.00    -0.262 N 
HETATM    5  C10 UNL     1      22.876  -1.618  55.561  1.00  0.00     0.203 A 
HETATM    6  N2  UNL     1      21.833  -1.306  54.950  1.00  0.00    -0.131 NA
HETATM    7  C11 UNL     1      21.305  -0.576  53.991  1.00  0.00     0.116 A 
HETATM    8  C12 UNL     1      22.138   0.213  53.287  1.00  0.00     0.045 A 
HETATM    9  C13 UNL     1      22.685   1.066  52.350  1.00  0.00     0.029 C 
HETATM   10  C14 UNL     1      21.846   1.267  51.185  1.00  0.00    -0.049 C 
HETATM   11  C15 UNL     1      22.605   1.929  50.053  1.00  0.00     0.049 C 
HETATM   12  C16 UNL     1      20.612   0.938  50.804  1.00  0.00     0.007 C 
HETATM   13  C17 UNL     1      19.289   0.471  50.648  1.00  0.00    -0.002 C 
HETATM   14  C18 UNL     1      18.810  -0.157  51.661  1.00  0.00    -0.007 C 
HETATM   15  C19 UNL     1      18.680  -0.781  53.005  1.00  0.00     0.148 C 
HETATM   16  N3  UNL     1      19.938  -0.530  53.735  1.00  0.00    -0.375 N 
HETATM   17  H25 UNL     1      19.645   0.025  54.596  1.00  0.00     0.161 HD
ENDROOT
BRANCH   1  18
HETATM   18  O2  UNL     1      24.214   2.697  53.035  1.00  0.00    -0.346 OA
BRANCH  18  19
HETATM   19  C3  UNL     1      24.153   3.763  53.640  1.00  0.00     0.198 C 
BRANCH  19  20
HETATM   20  C2  UNL     1      23.488   4.835  52.706  1.00  0.00     0.193 C 
BRANCH  20  21
HETATM   21  O1  UNL     1      22.192   4.595  52.488  1.00  0.00    -0.394 OA
HETATM   22  C1  UNL     1      21.548   5.220  51.449  1.00  0.00     0.201 C 
ENDBRANCH  20  21
ENDBRANCH  19  20
ENDBRANCH  18  19
ENDBRANCH   1  18
BRANCH   1  23
HETATM   23  O3  UNL     1      24.740   1.390  51.245  1.00  0.00    -0.346 OA
BRANCH  23  24
HETATM   24  C5  UNL     1      26.019   1.105  51.078  1.00  0.00     0.198 C 
BRANCH  24  25
HETATM   25  C6  UNL     1      26.803   2.520  51.257  1.00  0.00     0.193 C 
BRANCH  25  26
HETATM   26  O4  UNL     1      27.599   2.440  52.220  1.00  0.00    -0.394 OA
HETATM   27  C7  UNL     1      28.152   2.323  53.331  1.00  0.00     0.201 C 
ENDBRANCH  25  26
ENDBRANCH  24  25
ENDBRANCH  23  24
ENDBRANCH   1  23
TORSDOF 8
ENDMDL
MODEL 3
REMARK VINA RESULT:      -6.4      2.081      3.579
REMARK  8 active torsions:
REMARK  status: ('A' for Active; 'I' for Inactive)
REMARK    1  A    between atoms: O1_2  and  C2_3 
REMARK    2  A    between atoms: C2_3  and  C3_4 
REMARK    3  A    between atoms: C3_4  and  O2_5 
REMARK    4  A    between atoms: O2_5  and  C4_6 
REMARK    5  A    between atoms: C4_6  and  O3_7 
REMARK    6  A    between atoms: O3_7  and  C5_8 
REMARK    7  A    between atoms: C5_8  and  C6_9 
REMARK    8  A    between atoms: C6_9  and  O4_10 
ROOT
HETATM    1  C4  UNL     1      23.632   2.536  51.077  1.00  0.00     0.216 C 
HETATM    2  C8  UNL     1      25.081   2.084  51.071  1.00  0.00     0.078 C 
HETATM    3  C9  UNL     1      25.066   1.188  52.119  1.00  0.00     0.069 A 
HETATM    4  N1  UNL     1      26.035   0.592  52.537  1.00  0.00    -0.262 N 
HETATM    5  C10 UNL     1      27.077   0.015  52.915  1.00  0.00     0.203 A 
HETATM    6  N2  UNL     1      26.053  -0.312  53.550  1.00  0.00    -0.131 NA
HETATM    7  C11 UNL     1      24.756  -0.146  53.693  1.00  0.00     0.116 A 
HETATM    8  C12 UNL     1      24.148   0.714  52.854  1.00  0.00     0.045 A 
HETATM    9  C13 UNL     1      23.215   1.448  52.152  1.00  0.00     0.029 C 
HETATM   10  C14 UNL     1      21.856   0.969  52.312  1.00  0.00    -0.049 C 
HETATM   11  C15 UNL     1      20.920   1.579  51.288  1.00  0.00     0.049 C 
HETATM   12  C16 UNL     1      21.223   0.062  53.056  1.00  0.00     0.007 C 
HETATM   13  C17 UNL     1      20.802  -0.945  53.952  1.00  0.00    -0.002 C 
HETATM   14  C18 UNL     1      21.728  -1.435  54.694  1.00  0.00    -0.007 C 
HETATM   15  C19 UNL     1      23.056  -1.691  55.315  1.00  0.00     0.148 C 
HETATM   16  N3  UNL     1      24.019  -0.752  54.706  1.00  0.00    -0.375 N 
HETATM   17  H25 UNL     1      24.387  -0.176  55.522  1.00  0.00     0.161 HD
ENDROOT
BRANCH   1  18
HETATM   18  O2  UNL     1      23.656   3.689  51.652  1.00  0.00    -0.346 OA
BRANCH  18  19
HETATM   19  C3  UNL     1      23.600   4.766  52.238  1.00  0.00     0.198 C 
BRANCH  19  20
HETATM   20  C2  UNL     1      22.906   5.814  51.300  1.00  0.00     0.193 C 
BRANCH  20  21
HETATM   21  O1  UNL     1      21.580   5.849  51.458  1.00  0.00    -0.394 OA
HETATM   22  C1  UNL     1      20.761   5.363  50.469  1.00  0.00     0.201 C 
ENDBRANCH  20  21
ENDBRANCH  19  20
ENDBRANCH  18  19
ENDBRANCH   1  18
BRANCH   1  23
HETATM   23  O3  UNL     1      22.925   2.322  49.983  1.00  0.00    -0.346 OA
BRANCH  23  24
HETATM   24  C5  UNL     1      23.170   2.929  48.836  1.00  0.00     0.198 C 
BRANCH  24  25
HETATM   25  C6  UNL     1      22.370   2.065  47.712  1.00  0.00     0.193 C 
BRANCH  25  26
HETATM   26  O4  UNL     1      21.159   2.381  47.724  1.00  0.00    -0.394 OA
HETATM   27  C7  UNL     1      20.050   2.944  47.634  1.00  0.00     0.201 C 
ENDBRANCH  25  26
ENDBRANCH  24  25
ENDBRANCH  23  24
ENDBRANCH   1  23
TORSDOF 8
ENDMDL
MODEL 4
REMARK VINA RESULT:      -6.3      2.258      4.631
REMARK  8 active torsions:
REMARK  status: ('A' for Active; 'I' for Inactive)
REMARK    1  A    between atoms: O1_2  and  C2_3 
REMARK    2  A    between atoms: C2_3  and  C3_4 
REMARK    3  A    between atoms: C3_4  and  O2_5 
REMARK    4  A    between atoms: O2_5  and  C4_6 
REMARK    5  A    between atoms: C4_6  and  O3_7 
REMARK    6  A    between atoms: O3_7  and  C5_8 
REMARK    7  A    between atoms: C5_8  and  C6_9 
REMARK    8  A    between atoms: C6_9  and  O4_10 
ROOT
HETATM    1  C4  UNL     1      22.047   2.485  51.137  1.00  0.00     0.216 C 
HETATM    2  C8  UNL     1      21.223   1.896  52.268  1.00  0.00     0.078 C 
HETATM    3  C9  UNL     1      22.133   1.008  52.802  1.00  0.00     0.069 A 
HETATM    4  N1  UNL     1      21.906   0.251  53.720  1.00  0.00    -0.262 N 
HETATM    5  C10 UNL     1      21.600  -0.503  54.668  1.00  0.00     0.203 A 
HETATM    6  N2  UNL     1      22.783  -0.619  54.285  1.00  0.00    -0.131 NA
HETATM    7  C11 UNL     1      23.705  -0.203  53.445  1.00  0.00     0.116 A 
HETATM    8  C12 UNL     1      23.357   0.765  52.576  1.00  0.00     0.045 A 
HETATM    9  C13 UNL     1      23.370   1.757  51.616  1.00  0.00     0.029 C 
HETATM   10  C14 UNL     1      24.701   2.220  51.277  1.00  0.00    -0.049 C 
HETATM   11  C15 UNL     1      24.661   3.510  50.482  1.00  0.00     0.049 C 
HETATM   12  C16 UNL     1      25.956   1.872  51.558  1.00  0.00     0.007 C 
HETATM   13  C17 UNL     1      27.169   1.302  52.003  1.00  0.00    -0.002 C 
HETATM   14  C18 UNL     1      27.041   0.264  52.748  1.00  0.00    -0.007 C 
HETATM   15  C19 UNL     1      26.440  -0.850  53.530  1.00  0.00     0.148 C 
HETATM   16  N3  UNL     1      24.975  -0.766  53.369  1.00  0.00    -0.375 N 
HETATM   17  H25 UNL     1      24.699  -1.693  52.922  1.00  0.00     0.161 HD
ENDROOT
BRANCH   1  18
HETATM   18  O2  UNL     1      21.614   1.891  50.079  1.00  0.00    -0.346 OA
BRANCH  18  19
HETATM   19  C3  UNL     1      21.271   1.362  49.025  1.00  0.00     0.198 C 
BRANCH  19  20
HETATM   20  C2  UNL     1      22.214   1.869  47.878  1.00  0.00     0.193 C 
BRANCH  20  21
HETATM   21  O1  UNL     1      21.752   2.971  47.281  1.00  0.00    -0.394 OA
HETATM   22  C1  UNL     1      22.310   4.191  47.574  1.00  0.00     0.201 C 
ENDBRANCH  20  21
ENDBRANCH  19  20
ENDBRANCH  18  19
ENDBRANCH   1  18
BRANCH   1  23
HETATM   23  O3  UNL     1      22.266   3.787  51.160  1.00  0.00    -0.346 OA
BRANCH  23  24
HETATM   24  C5  UNL     1      21.441   4.647  51.730  1.00  0.00     0.198 C 
BRANCH  24  25
HETATM   25  C6  UNL     1      21.543   6.001  50.833  1.00  0.00     0.193 C 
BRANCH  25  26
HETATM   26  O4  UNL     1      22.698   6.476  50.919  1.00  0.00    -0.394 OA
HETATM   27  C7  UNL     1      23.718   7.193  50.928  1.00  0.00     0.201 C 
ENDBRANCH  25  26
ENDBRANCH  24  25
ENDBRANCH  23  24
ENDBRANCH   1  23
TORSDOF 8
ENDMDL
MODEL 5
REMARK VINA RESULT:      -6.3      2.758      5.149
REMARK  8 active torsions:
REMARK  status: ('A' for Active; 'I' for Inactive)
REMARK    1  A    between atoms: O1_2  and  C2_3 
REMARK    2  A    between atoms: C2_3  and  C3_4 
REMARK    3  A    between atoms: C3_4  and  O2_5 
REMARK    4  A    between atoms: O2_5  and  C4_6 
REMARK    5  A    between atoms: C4_6  and  O3_7 
REMARK    6  A    between atoms: O3_7  and  C5_8 
REMARK    7  A    between atoms: C5_8  and  C6_9 
REMARK    8  A    between atoms: C6_9  and  O4_10 
ROOT
HETATM    1  C4  UNL     1      24.113   3.638  50.962  1.00  0.00     0.216 C 
HETATM    2  C8  UNL     1      23.110   4.777  50.990  1.00  0.00     0.078 C 
HETATM    3  C9  UNL     1      23.926   5.834  50.644  1.00  0.00     0.069 A 
HETATM    4  N1  UNL     1      23.574   6.992  50.583  1.00  0.00    -0.262 N 
HETATM    5  C10 UNL     1      23.140   8.163  50.544  1.00  0.00     0.203 A 
HETATM    6  N2  UNL     1      24.342   8.053  50.225  1.00  0.00    -0.131 NA
HETATM    7  C11 UNL     1      25.356   7.233  50.050  1.00  0.00     0.116 A 
HETATM    8  C12 UNL     1      25.134   5.923  50.270  1.00  0.00     0.045 A 
HETATM    9  C13 UNL     1      25.252   4.550  50.344  1.00  0.00     0.029 C 
HETATM   10  C14 UNL     1      26.379   4.021  49.601  1.00  0.00    -0.049 C 
HETATM   11  C15 UNL     1      26.286   2.518  49.433  1.00  0.00     0.049 C 
HETATM   12  C16 UNL     1      27.427   4.511  48.940  1.00  0.00     0.007 C 
HETATM   13  C17 UNL     1      28.438   5.275  48.317  1.00  0.00    -0.002 C 
HETATM   14  C18 UNL     1      28.332   6.546  48.468  1.00  0.00    -0.007 C 
HETATM   15  C19 UNL     1      27.832   7.883  48.890  1.00  0.00     0.148 C 
HETATM   16  N3  UNL     1      26.638   7.666  49.729  1.00  0.00    -0.375 N 
HETATM   17  H25 UNL     1      26.888   8.098  50.671  1.00  0.00     0.161 HD
ENDROOT
BRANCH   1  18
HETATM   18  O2  UNL     1      24.390   3.421  52.201  1.00  0.00    -0.346 OA
BRANCH  18  19
HETATM   19  C3  UNL     1      24.600   3.142  53.378  1.00  0.00     0.198 C 
BRANCH  19  20
HETATM   20  C2  UNL     1      25.558   1.901  53.438  1.00  0.00     0.193 C 
BRANCH  20  21
HETATM   21  O1  UNL     1      26.707   2.168  54.067  1.00  0.00    -0.394 OA
HETATM   22  C1  UNL     1      27.865   2.303  53.341  1.00  0.00     0.201 C 
ENDBRANCH  20  21
ENDBRANCH  19  20
ENDBRANCH  18  19
ENDBRANCH   1  18
BRANCH   1  23
HETATM   23  O3  UNL     1      23.881   2.646  50.120  1.00  0.00    -0.346 OA
BRANCH  23  24
HETATM   24  C5  UNL     1      22.705   2.056  50.008  1.00  0.00     0.198 C 
BRANCH  24  25
HETATM   25  C6  UNL     1      22.346   2.111  48.422  1.00  0.00     0.193 C 
BRANCH  25  26
HETATM   26  O4  UNL     1      22.489   3.281  47.999  1.00  0.00    -0.394 OA
HETATM   27  C7  UNL     1      22.393   4.387  47.432  1.00  0.00     0.201 C 
ENDBRANCH  25  26
ENDBRANCH  24  25
ENDBRANCH  23  24
ENDBRANCH   1  23
TORSDOF 8
ENDMDL
MODEL 6
REMARK VINA RESULT:      -6.1      3.528      5.249
REMARK  8 active torsions:
REMARK  status: ('A' for Active; 'I' for Inactive)
REMARK    1  A    between atoms: O1_2  and  C2_3 
REMARK    2  A    between atoms: C2_3  and  C3_4 
REMARK    3  A    between atoms: C3_4  and  O2_5 
REMARK    4  A    between atoms: O2_5  and  C4_6 
REMARK    5  A    between atoms: C4_6  and  O3_7 
REMARK    6  A    between atoms: O3_7  and  C5_8 
REMARK    7  A    between atoms: C5_8  and  C6_9 
REMARK    8  A    between atoms: C6_9  and  O4_10 
ROOT
HETATM    1  C4  UNL     1      17.638   0.442  51.091  1.00  0.00     0.216 C 
HETATM    2  C8  UNL     1      18.326   0.769  49.778  1.00  0.00     0.078 C 
HETATM    3  C9  UNL     1      19.643   0.791  50.186  1.00  0.00     0.069 A 
HETATM    4  N1  UNL     1      20.585   1.066  49.475  1.00  0.00    -0.262 N 
HETATM    5  C10 UNL     1      21.506   1.361  48.685  1.00  0.00     0.203 A 
HETATM    6  N2  UNL     1      21.894   1.075  49.836  1.00  0.00    -0.131 NA
HETATM    7  C11 UNL     1      21.541   0.704  51.048  1.00  0.00     0.116 A 
HETATM    8  C12 UNL     1      20.228   0.512  51.276  1.00  0.00     0.045 A 
HETATM    9  C13 UNL     1      19.012   0.175  51.835  1.00  0.00     0.029 C 
HETATM   10  C14 UNL     1      19.125  -0.645  53.026  1.00  0.00    -0.049 C 
HETATM   11  C15 UNL     1      17.796  -1.260  53.414  1.00  0.00     0.049 C 
HETATM   12  C16 UNL     1      20.103  -1.083  53.817  1.00  0.00     0.007 C 
HETATM   13  C17 UNL     1      21.303  -1.406  54.488  1.00  0.00    -0.002 C 
HETATM   14  C18 UNL     1      22.364  -0.885  53.986  1.00  0.00    -0.007 C 
HETATM   15  C19 UNL     1      23.276  -0.103  53.107  1.00  0.00     0.148 C 
HETATM   16  N3  UNL     1      22.443   0.582  52.100  1.00  0.00    -0.375 N 
HETATM   17  H25 UNL     1      22.633   1.620  52.253  1.00  0.00     0.161 HD
ENDROOT
BRANCH   1  18
HETATM   18  O2  UNL     1      17.167   1.570  51.498  1.00  0.00    -0.346 OA
BRANCH  18  19
HETATM   19  C3  UNL     1      16.638   2.623  51.844  1.00  0.00     0.198 C 
BRANCH  19  20
HETATM   20  C2  UNL     1      17.582   3.813  51.449  1.00  0.00     0.193 C 
BRANCH  20  21
HETATM   21  O1  UNL     1      18.785   3.729  52.025  1.00  0.00    -0.394 OA
HETATM   22  C1  UNL     1      19.899   4.155  51.344  1.00  0.00     0.201 C 
ENDBRANCH  20  21
ENDBRANCH  19  20
ENDBRANCH  18  19
ENDBRANCH   1  18
BRANCH   1  23
HETATM   23  O3  UNL     1      16.923  -0.667  51.142  1.00  0.00    -0.346 OA
BRANCH  23  24
HETATM   24  C5  UNL     1      15.819  -0.845  50.439  1.00  0.00     0.198 C 
BRANCH  24  25
HETATM   25  C6  UNL     1      14.699  -1.332  51.513  1.00  0.00     0.193 C 
BRANCH  25  26
HETATM   26  O4  UNL     1      14.472  -0.411  52.330  1.00  0.00    -0.394 OA
HETATM   27  C7  UNL     1      14.086   0.307  53.273  1.00  0.00     0.201 C 
ENDBRANCH  25  26
ENDBRANCH  24  25
ENDBRANCH  23  24
ENDBRANCH   1  23
TORSDOF 8
ENDMDL
MODEL 7
REMARK VINA RESULT:      -6.0      3.184      5.412
REMARK  8 active torsions:
REMARK  status: ('A' for Active; 'I' for Inactive)
REMARK    1  A    between atoms: O1_2  and  C2_3 
REMARK    2  A    between atoms: C2_3  and  C3_4 
REMARK    3  A    between atoms: C3_4  and  O2_5 
REMARK    4  A    between atoms: O2_5  and  C4_6 
REMARK    5  A    between atoms: C4_6  and  O3_7 
REMARK    6  A    between atoms: O3_7  and  C5_8 
REMARK    7  A    between atoms: C5_8  and  C6_9 
REMARK    8  A    between atoms: C6_9  and  O4_10 
ROOT
HETATM    1  C4  UNL     1      24.062   4.791  49.447  1.00  0.00     0.216 C 
HETATM    2  C8  UNL     1      23.198   5.681  48.573  1.00  0.00     0.078 C 
HETATM    3  C9  UNL     1      24.148   6.560  48.097  1.00  0.00     0.069 A 
HETATM    4  N1  UNL     1      23.918   7.509  47.379  1.00  0.00    -0.262 N 
HETATM    5  C10 UNL     1      23.606   8.468  46.643  1.00  0.00     0.203 A 
HETATM    6  N2  UNL     1      24.830   8.380  46.875  1.00  0.00    -0.131 NA
HETATM    7  C11 UNL     1      25.781   7.706  47.485  1.00  0.00     0.116 A 
HETATM    8  C12 UNL     1      25.411   6.622  48.194  1.00  0.00     0.045 A 
HETATM    9  C13 UNL     1      25.405   5.460  48.937  1.00  0.00     0.029 C 
HETATM   10  C14 UNL     1      26.695   4.800  48.996  1.00  0.00    -0.049 C 
HETATM   11  C15 UNL     1      26.579   3.386  49.529  1.00  0.00     0.049 C 
HETATM   12  C16 UNL     1      27.944   5.066  48.617  1.00  0.00     0.007 C 
HETATM   13  C17 UNL     1      29.162   5.586  48.125  1.00  0.00    -0.002 C 
HETATM   14  C18 UNL     1      29.085   6.762  47.615  1.00  0.00    -0.007 C 
HETATM   15  C19 UNL     1      28.548   8.068  47.149  1.00  0.00     0.148 C 
HETATM   16  N3  UNL     1      27.113   8.106  47.491  1.00  0.00    -0.375 N 
HETATM   17  H25 UNL     1      27.012   8.946  48.140  1.00  0.00     0.161 HD
ENDROOT
BRANCH   1  18
HETATM   18  O2  UNL     1      23.833   5.197  50.648  1.00  0.00    -0.346 OA
BRANCH  18  19
HETATM   19  C3  UNL     1      23.570   5.656  51.756  1.00  0.00     0.198 C 
BRANCH  19  20
HETATM   20  C2  UNL     1      22.338   4.882  52.342  1.00  0.00     0.193 C 
BRANCH  20  21
HETATM   21  O1  UNL     1      21.264   4.947  51.549  1.00  0.00    -0.394 OA
HETATM   22  C1  UNL     1      20.283   3.992  51.649  1.00  0.00     0.201 C 
ENDBRANCH  20  21
ENDBRANCH  19  20
ENDBRANCH  18  19
ENDBRANCH   1  18
BRANCH   1  23
HETATM   23  O3  UNL     1      24.107   3.505  49.148  1.00  0.00    -0.346 OA
BRANCH  23  24
HETATM   24  C5  UNL     1      23.038   2.729  49.143  1.00  0.00     0.198 C 
BRANCH  24  25
HETATM   25  C6  UNL     1      23.152   1.833  50.497  1.00  0.00     0.193 C 
BRANCH  25  26
HETATM   26  O4  UNL     1      22.103   1.167  50.650  1.00  0.00    -0.394 OA
HETATM   27  C7  UNL     1      21.219   0.356  50.988  1.00  0.00     0.201 C 
ENDBRANCH  25  26
ENDBRANCH  24  25
ENDBRANCH  23  24
ENDBRANCH   1  23
TORSDOF 8
ENDMDL
MODEL 8
REMARK VINA RESULT:      -6.0      7.907     11.221
REMARK  8 active torsions:
REMARK  status: ('A' for Active; 'I' for Inactive)
REMARK    1  A    between atoms: O1_2  and  C2_3 
REMARK    2  A    between atoms: C2_3  and  C3_4 
REMARK    3  A    between atoms: C3_4  and  O2_5 
REMARK    4  A    between atoms: O2_5  and  C4_6 
REMARK    5  A    between atoms: C4_6  and  O3_7 
REMARK    6  A    between atoms: O3_7  and  C5_8 
REMARK    7  A    between atoms: C5_8  and  C6_9 
REMARK    8  A    between atoms: C6_9  and  O4_10 
ROOT
HETATM    1  C4  UNL     1      32.468   7.509  47.151  1.00  0.00     0.216 C 
HETATM    2  C8  UNL     1      32.489   8.895  47.770  1.00  0.00     0.078 C 
HETATM    3  C9  UNL     1      31.157   9.041  48.097  1.00  0.00     0.069 A 
HETATM    4  N1  UNL     1      30.667  10.037  48.584  1.00  0.00    -0.262 N 
HETATM    5  C10 UNL     1      30.232  11.096  49.083  1.00  0.00     0.203 A 
HETATM    6  N2  UNL     1      29.368  10.207  48.938  1.00  0.00    -0.131 NA
HETATM    7  C11 UNL     1      29.118   8.980  48.535  1.00  0.00     0.116 A 
HETATM    8  C12 UNL     1      30.154   8.267  48.054  1.00  0.00     0.045 A 
HETATM    9  C13 UNL     1      30.962   7.256  47.576  1.00  0.00     0.029 C 
HETATM   10  C14 UNL     1      30.390   5.932  47.725  1.00  0.00    -0.049 C 
HETATM   11  C15 UNL     1      31.421   4.845  47.499  1.00  0.00     0.049 C 
HETATM   12  C16 UNL     1      29.223   5.412  48.104  1.00  0.00     0.007 C 
HETATM   13  C17 UNL     1      27.910   5.123  48.536  1.00  0.00    -0.002 C 
HETATM   14  C18 UNL     1      27.179   6.150  48.780  1.00  0.00    -0.007 C 
HETATM   15  C19 UNL     1      26.725   7.559  48.930  1.00  0.00     0.148 C 
HETATM   16  N3  UNL     1      27.840   8.432  48.513  1.00  0.00    -0.375 N 
HETATM   17  H25 UNL     1      27.451   8.996  47.697  1.00  0.00     0.161 HD
ENDROOT
BRANCH   1  18
HETATM   18  O2  UNL     1      32.503   7.723  45.881  1.00  0.00    -0.346 OA
BRANCH  18  19
HETATM   19  C3  UNL     1      32.450   7.955  44.676  1.00  0.00     0.198 C 
BRANCH  19  20
HETATM   20  C2  UNL     1      32.732   6.624  43.894  1.00  0.00     0.193 C 
BRANCH  20  21
HETATM   21  O1  UNL     1      33.798   5.968  44.362  1.00  0.00    -0.394 OA
HETATM   22  C1  UNL     1      33.728   4.612  44.567  1.00  0.00     0.201 C 
ENDBRANCH  20  21
ENDBRANCH  19  20
ENDBRANCH  18  19
ENDBRANCH   1  18
BRANCH   1  23
HETATM   23  O3  UNL     1      33.214   6.579  47.718  1.00  0.00    -0.346 OA
BRANCH  23  24
HETATM   24  C5  UNL     1      34.521   6.698  47.870  1.00  0.00     0.198 C 
BRANCH  24  25
HETATM   25  C6  UNL     1      34.939   5.532  48.926  1.00  0.00     0.193 C 
BRANCH  25  26
HETATM   26  O4  UNL     1      34.968   4.426  48.340  1.00  0.00    -0.394 OA
HETATM   27  C7  UNL     1      34.743   3.288  47.883  1.00  0.00     0.201 C 
ENDBRANCH  25  26
ENDBRANCH  24  25
ENDBRANCH  23  24
ENDBRANCH   1  23
TORSDOF 8
ENDMDL
MODEL 9
REMARK VINA RESULT:      -5.7      2.478      5.430
REMARK  8 active torsions:
REMARK  status: ('A' for Active; 'I' for Inactive)
REMARK    1  A    between atoms: O1_2  and  C2_3 
REMARK    2  A    between atoms: C2_3  and  C3_4 
REMARK    3  A    between atoms: C3_4  and  O2_5 
REMARK    4  A    between atoms: O2_5  and  C4_6 
REMARK    5  A    between atoms: C4_6  and  O3_7 
REMARK    6  A    between atoms: O3_7  and  C5_8 
REMARK    7  A    between atoms: C5_8  and  C6_9 
REMARK    8  A    between atoms: C6_9  and  O4_10 
ROOT
HETATM    1  C4  UNL     1      22.984   5.010  49.144  1.00  0.00     0.216 C 
HETATM    2  C8  UNL     1      23.436   4.014  50.196  1.00  0.00     0.078 C 
HETATM    3  C9  UNL     1      24.798   4.024  49.978  1.00  0.00     0.069 A 
HETATM    4  N1  UNL     1      25.599   3.327  50.562  1.00  0.00    -0.262 N 
HETATM    5  C10 UNL     1      26.366   2.578  51.203  1.00  0.00     0.203 A 
HETATM    6  N2  UNL     1      26.946   3.326  50.389  1.00  0.00    -0.131 NA
HETATM    7  C11 UNL     1      26.810   4.270  49.482  1.00  0.00     0.116 A 
HETATM    8  C12 UNL     1      25.562   4.711  49.235  1.00  0.00     0.045 A 
HETATM    9  C13 UNL     1      24.471   5.424  48.782  1.00  0.00     0.029 C 
HETATM   10  C14 UNL     1      24.817   6.689  48.164  1.00  0.00    -0.049 C 
HETATM   11  C15 UNL     1      23.602   7.577  47.982  1.00  0.00     0.049 C 
HETATM   12  C16 UNL     1      25.931   7.323  47.800  1.00  0.00     0.007 C 
HETATM   13  C17 UNL     1      27.238   7.772  47.510  1.00  0.00    -0.002 C 
HETATM   14  C18 UNL     1      28.175   6.945  47.807  1.00  0.00    -0.007 C 
HETATM   15  C19 UNL     1      28.891   5.732  48.285  1.00  0.00     0.148 C 
HETATM   16  N3  UNL     1      27.872   4.762  48.731  1.00  0.00    -0.375 N 
HETATM   17  H25 UNL     1      28.024   3.907  48.112  1.00  0.00     0.161 HD
ENDROOT
BRANCH   1  18
HETATM   18  O2  UNL     1      22.519   4.281  48.188  1.00  0.00    -0.346 OA
BRANCH  18  19
HETATM   19  C3  UNL     1      22.110   3.648  47.219  1.00  0.00     0.198 C 
BRANCH  19  20
HETATM   20  C2  UNL     1      20.710   3.034  47.573  1.00  0.00     0.193 C 
BRANCH  20  21
HETATM   21  O1  UNL     1      20.755   2.232  48.640  1.00  0.00    -0.394 OA
HETATM   22  C1  UNL     1      21.509   1.085  48.600  1.00  0.00     0.201 C 
ENDBRANCH  20  21
ENDBRANCH  19  20
ENDBRANCH  18  19
ENDBRANCH   1  18
BRANCH   1  23
HETATM   23  O3  UNL     1      22.350   6.091  49.562  1.00  0.00    -0.346 OA
BRANCH  23  24
HETATM   24  C5  UNL     1      21.643   6.124  50.678  1.00  0.00     0.198 C 
BRANCH  24  25
HETATM   25  C6  UNL     1      20.172   5.561  50.271  1.00  0.00     0.193 C 
BRANCH  25  26
HETATM   26  O4  UNL     1      19.905   4.547  50.956  1.00  0.00    -0.394 OA
HETATM   27  C7  UNL     1      19.902   3.583  51.746  1.00  0.00     0.201 C 
ENDBRANCH  25  26
ENDBRANCH  24  25
ENDBRANCH  23  24
ENDBRANCH   1  23
TORSDOF 8
ENDMDL
