MODEL 1
REMARK VINA RESULT:      -9.0      0.000      0.000
REMARK  3 active torsions:
REMARK  status: ('A' for Active; 'I' for Inactive)
REMARK    1  A    between atoms: C2_2  and  C3_3 
REMARK    2  A    between atoms: C4_4  and  C5_5 
REMARK    3  A    between atoms: C15_19  and  O2_20 
ROOT
HETATM    1  C5  UNL     1      25.128   5.371  50.213  1.00  0.00     0.125 C 
HETATM    2  C6  UNL     1      23.961   5.397  51.170  1.00  0.00     0.031 C 
HETATM    3  C7  UNL     1      23.677   4.220  51.941  1.00  0.00     0.002 C 
HETATM    4  O1  UNL     1      23.617   2.882  51.170  1.00  0.00     0.000 OA
HETATM    5  C8  UNL     1      22.653   2.130  51.866  1.00  0.00     0.048 A 
HETATM    6  C9  UNL     1      23.623   1.556  52.689  1.00  0.00    -0.005 A 
HETATM    7  C10 UNL     1      24.632   2.220  51.956  1.00  0.00     0.057 A 
HETATM    8  C11 UNL     1      25.978   2.197  52.074  1.00  0.00     0.050 C 
HETATM    9  N1  UNL     1      27.038   2.856  51.335  1.00  0.00    -0.248 NA
HETATM   10  C12 UNL     1      26.549   3.235  50.122  1.00  0.00     0.223 C 
HETATM   11  N2  UNL     1      25.426   3.298  49.166  1.00  0.00    -0.296 N 
HETATM   12  N3  UNL     1      24.765   4.483  49.111  1.00  0.00    -0.315 N 
HETATM   13  C13 UNL     1      23.402   4.539  48.833  1.00  0.00     0.173 C 
HETATM   14  C14 UNL     1      22.396   3.848  49.663  1.00  0.00     0.027 C 
HETATM   15  C15 UNL     1      22.159   2.997  50.735  1.00  0.00     0.053 C 
HETATM   16  C16 UNL     1      26.262   1.286  53.159  1.00  0.00     0.187 C 
HETATM   17  C17 UNL     1      25.689  -0.116  52.848  1.00  0.00     0.154 C 
HETATM   18  N4  UNL     1      25.238  -0.587  54.068  1.00  0.00    -0.408 N 
HETATM   19  C18 UNL     1      23.960  -0.936  54.410  1.00  0.00     0.117 C 
HETATM   20  C19 UNL     1      22.778  -0.609  53.540  1.00  0.00     0.020 C 
HETATM   21  C20 UNL     1      22.576   0.925  53.372  1.00  0.00     0.014 C 
HETATM   22  C21 UNL     1      26.113  -0.137  55.114  1.00  0.00     0.143 C 
HETATM   23  C22 UNL     1      27.509   0.151  54.590  1.00  0.00     0.188 C 
HETATM   24  O3  UNL     1      27.551   1.050  53.536  1.00  0.00    -0.377 OA
HETATM   25  H13 UNL     1      25.728   2.311  48.998  1.00  0.00     0.187 HD
ENDROOT
BRANCH   1  26
HETATM   26  C4  UNL     1      25.215   6.781  49.651  1.00  0.00    -0.000 C 
HETATM   27  C3  UNL     1      26.261   7.309  49.035  1.00  0.00    -0.003 C 
BRANCH  27  28
HETATM   28  C2  UNL     1      27.597   6.909  48.650  1.00  0.00    -0.010 C 
HETATM   29  C1  UNL     1      28.111   5.739  48.269  1.00  0.00     0.011 C 
ENDBRANCH  27  28
ENDBRANCH   1  26
BRANCH  15  30
HETATM   30  O2  UNL     1      20.854   2.641  51.122  1.00  0.00    -0.364 OA
HETATM   31  H17 UNL     1      20.812   2.137  52.027  1.00  0.00     0.217 HD
ENDBRANCH  15  30
TORSDOF 3
ENDMDL
MODEL 2
REMARK VINA RESULT:      -8.5      3.175      6.251
REMARK  3 active torsions:
REMARK  status: ('A' for Active; 'I' for Inactive)
REMARK    1  A    between atoms: C2_2  and  C3_3 
REMARK    2  A    between atoms: C4_4  and  C5_5 
REMARK    3  A    between atoms: C15_19  and  O2_20 
ROOT
HETATM    1  C5  UNL     1      19.343   0.639  51.333  1.00  0.00     0.125 C 
HETATM    2  C6  UNL     1      19.943   0.872  49.968  1.00  0.00     0.031 C 
HETATM    3  C7  UNL     1      21.312   1.294  49.880  1.00  0.00     0.002 C 
HETATM    4  O1  UNL     1      21.735   2.476  50.781  1.00  0.00     0.000 OA
HETATM    5  C8  UNL     1      22.719   3.144  50.030  1.00  0.00     0.048 A 
HETATM    6  C9  UNL     1      23.742   2.396  50.614  1.00  0.00    -0.005 A 
HETATM    7  C10 UNL     1      22.797   1.768  51.455  1.00  0.00     0.057 A 
HETATM    8  C11 UNL     1      22.950   0.847  52.434  1.00  0.00     0.050 C 
HETATM    9  N1  UNL     1      22.006   0.191  53.319  1.00  0.00    -0.248 NA
HETATM   10  C12 UNL     1      20.871   0.943  53.374  1.00  0.00     0.223 C 
HETATM   11  N2  UNL     1      20.116   2.140  52.956  1.00  0.00    -0.296 N 
HETATM   12  N3  UNL     1      19.201   1.945  51.972  1.00  0.00    -0.315 N 
HETATM   13  C13 UNL     1      18.912   2.943  51.045  1.00  0.00     0.173 C 
HETATM   14  C14 UNL     1      19.944   3.532  50.170  1.00  0.00     0.027 C 
HETATM   15  C15 UNL     1      21.290   3.586  49.832  1.00  0.00     0.053 C 
HETATM   16  C16 UNL     1      24.370   0.590  52.512  1.00  0.00     0.187 C 
HETATM   17  C17 UNL     1      25.136   1.895  52.826  1.00  0.00     0.154 C 
HETATM   18  N4  UNL     1      26.305   1.799  52.091  1.00  0.00    -0.408 N 
HETATM   19  C18 UNL     1      26.741   2.635  51.100  1.00  0.00     0.117 C 
HETATM   20  C19 UNL     1      25.853   3.680  50.483  1.00  0.00     0.020 C 
HETATM   21  C20 UNL     1      24.628   3.058  49.754  1.00  0.00     0.014 C 
HETATM   22  C21 UNL     1      26.744   0.432  52.056  1.00  0.00     0.143 C 
HETATM   23  C22 UNL     1      26.229  -0.351  53.252  1.00  0.00     0.188 C 
HETATM   24  O3  UNL     1      24.853  -0.313  53.412  1.00  0.00    -0.377 OA
HETATM   25  H13 UNL     1      20.721   2.576  53.690  1.00  0.00     0.187 HD
ENDROOT
BRANCH   1  26
HETATM   26  C4  UNL     1      17.945   0.106  51.070  1.00  0.00    -0.000 C 
HETATM   27  C3  UNL     1      17.239  -0.662  51.884  1.00  0.00    -0.003 C 
BRANCH  27  28
HETATM   28  C2  UNL     1      17.392  -1.274  53.187  1.00  0.00    -0.010 C 
HETATM   29  C1  UNL     1      18.046  -2.360  53.598  1.00  0.00     0.011 C 
ENDBRANCH  27  28
ENDBRANCH   1  26
BRANCH  15  30
HETATM   30  O2  UNL     1      21.762   4.420  48.803  1.00  0.00    -0.364 OA
HETATM   31  H17 UNL     1      22.217   3.904  48.026  1.00  0.00     0.217 HD
ENDBRANCH  15  30
TORSDOF 3
ENDMDL
MODEL 3
REMARK VINA RESULT:      -8.3      3.326      4.279
REMARK  3 active torsions:
REMARK  status: ('A' for Active; 'I' for Inactive)
REMARK    1  A    between atoms: C2_2  and  C3_3 
REMARK    2  A    between atoms: C4_4  and  C5_5 
REMARK    3  A    between atoms: C15_19  and  O2_20 
ROOT
HETATM    1  C5  UNL     1      20.351   2.890  50.463  1.00  0.00     0.125 C 
HETATM    2  C6  UNL     1      19.830   2.804  51.878  1.00  0.00     0.031 C 
HETATM    3  C7  UNL     1      20.548   2.002  52.828  1.00  0.00     0.002 C 
HETATM    4  O1  UNL     1      20.929   0.572  52.385  1.00  0.00     0.000 OA
HETATM    5  C8  UNL     1      20.878  -0.179  53.573  1.00  0.00     0.048 A 
HETATM    6  C9  UNL     1      22.231   0.048  53.831  1.00  0.00    -0.005 A 
HETATM    7  C10 UNL     1      22.348   0.729  52.599  1.00  0.00     0.057 A 
HETATM    8  C11 UNL     1      23.415   1.299  51.994  1.00  0.00     0.050 C 
HETATM    9  N1  UNL     1      23.569   1.994  50.731  1.00  0.00    -0.248 NA
HETATM   10  C12 UNL     1      22.532   1.651  49.918  1.00  0.00     0.223 C 
HETATM   11  N2  UNL     1      21.289   0.887  49.695  1.00  0.00    -0.296 N 
HETATM   12  N3  UNL     1      20.133   1.586  49.843  1.00  0.00    -0.315 N 
HETATM   13  C13 UNL     1      18.975   0.976  50.316  1.00  0.00     0.173 C 
HETATM   14  C14 UNL     1      18.913   0.311  51.632  1.00  0.00     0.027 C 
HETATM   15  C15 UNL     1      19.606  -0.086  52.769  1.00  0.00     0.053 C 
HETATM   16  C16 UNL     1      24.536   1.067  52.877  1.00  0.00     0.187 C 
HETATM   17  C17 UNL     1      24.742  -0.449  53.097  1.00  0.00     0.154 C 
HETATM   18  N4  UNL     1      25.127  -0.560  54.421  1.00  0.00    -0.408 N 
HETATM   19  C18 UNL     1      24.489  -1.236  55.425  1.00  0.00     0.117 C 
HETATM   20  C19 UNL     1      23.092  -1.771  55.270  1.00  0.00     0.020 C 
HETATM   21  C20 UNL     1      22.050  -0.641  55.037  1.00  0.00     0.014 C 
HETATM   22  C21 UNL     1      25.942   0.566  54.784  1.00  0.00     0.143 C 
HETATM   23  C22 UNL     1      26.632   1.170  53.572  1.00  0.00     0.188 C 
HETATM   24  O3  UNL     1      25.773   1.534  52.547  1.00  0.00    -0.377 OA
HETATM   25  H13 UNL     1      21.983   0.123  49.524  1.00  0.00     0.187 HD
ENDROOT
BRANCH   1  26
HETATM   26  C4  UNL     1      19.440   3.885  49.763  1.00  0.00    -0.000 C 
HETATM   27  C3  UNL     1      19.671   4.460  48.593  1.00  0.00    -0.003 C 
BRANCH  27  28
HETATM   28  C2  UNL     1      20.697   4.449  47.573  1.00  0.00    -0.010 C 
HETATM   29  C1  UNL     1      21.324   3.458  46.938  1.00  0.00     0.011 C 
ENDBRANCH  27  28
ENDBRANCH   1  26
BRANCH  15  30
HETATM   30  O2  UNL     1      18.969  -0.762  53.825  1.00  0.00    -0.364 OA
HETATM   31  H17 UNL     1      18.617  -0.132  54.569  1.00  0.00     0.217 HD
ENDBRANCH  15  30
TORSDOF 3
ENDMDL
MODEL 4
REMARK VINA RESULT:      -8.3      1.384      1.709
REMARK  3 active torsions:
REMARK  status: ('A' for Active; 'I' for Inactive)
REMARK    1  A    between atoms: C2_2  and  C3_3 
REMARK    2  A    between atoms: C4_4  and  C5_5 
REMARK    3  A    between atoms: C15_19  and  O2_20 
ROOT
HETATM    1  C5  UNL     1      23.302   5.741  50.240  1.00  0.00     0.125 C 
HETATM    2  C6  UNL     1      22.526   5.409  51.492  1.00  0.00     0.031 C 
HETATM    3  C7  UNL     1      22.824   4.187  52.184  1.00  0.00     0.002 C 
HETATM    4  O1  UNL     1      22.897   2.903  51.327  1.00  0.00     0.000 OA
HETATM    5  C8  UNL     1      22.436   1.891  52.189  1.00  0.00     0.048 A 
HETATM    6  C9  UNL     1      23.730   1.611  52.630  1.00  0.00    -0.005 A 
HETATM    7  C10 UNL     1      24.244   2.552  51.710  1.00  0.00     0.057 A 
HETATM    8  C11 UNL     1      25.514   2.920  51.430  1.00  0.00     0.050 C 
HETATM    9  N1  UNL     1      26.073   3.872  50.489  1.00  0.00    -0.248 NA
HETATM   10  C12 UNL     1      25.150   4.113  49.516  1.00  0.00     0.223 C 
HETATM   11  N2  UNL     1      23.815   3.863  48.940  1.00  0.00    -0.296 N 
HETATM   12  N3  UNL     1      22.873   4.805  49.204  1.00  0.00    -0.315 N 
HETATM   13  C13 UNL     1      21.529   4.466  49.341  1.00  0.00     0.173 C 
HETATM   14  C14 UNL     1      21.056   3.498  50.349  1.00  0.00     0.027 C 
HETATM   15  C15 UNL     1      21.402   2.596  51.348  1.00  0.00     0.053 C 
HETATM   16  C16 UNL     1      26.355   2.112  52.284  1.00  0.00     0.187 C 
HETATM   17  C17 UNL     1      26.117   0.611  52.006  1.00  0.00     0.154 C 
HETATM   18  N4  UNL     1      26.210   0.007  53.247  1.00  0.00    -0.408 N 
HETATM   19  C18 UNL     1      25.246  -0.704  53.907  1.00  0.00     0.117 C 
HETATM   20  C19 UNL     1      23.811  -0.721  53.456  1.00  0.00     0.020 C 
HETATM   21  C20 UNL     1      23.158   0.690  53.517  1.00  0.00     0.014 C 
HETATM   22  C21 UNL     1      27.208   0.675  54.036  1.00  0.00     0.143 C 
HETATM   23  C22 UNL     1      28.241   1.366  53.163  1.00  0.00     0.188 C 
HETATM   24  O3  UNL     1      27.710   2.256  52.243  1.00  0.00    -0.377 OA
HETATM   25  H13 UNL     1      24.307   3.009  48.589  1.00  0.00     0.187 HD
ENDROOT
BRANCH   1  26
HETATM   26  C4  UNL     1      22.825   7.124  49.830  1.00  0.00    -0.000 C 
HETATM   27  C3  UNL     1      23.305   7.848  48.830  1.00  0.00    -0.003 C 
BRANCH  27  28
HETATM   28  C2  UNL     1      24.325   7.730  47.811  1.00  0.00    -0.010 C 
HETATM   29  C1  UNL     1      25.619   7.411  47.866  1.00  0.00     0.011 C 
ENDBRANCH  27  28
ENDBRANCH   1  26
BRANCH  15  30
HETATM   30  O2  UNL     1      20.428   1.869  52.057  1.00  0.00    -0.364 OA
HETATM   31  H17 UNL     1      19.581   2.422  52.286  1.00  0.00     0.217 HD
ENDBRANCH  15  30
TORSDOF 3
ENDMDL
MODEL 5
REMARK VINA RESULT:      -8.2      2.468      4.421
REMARK  3 active torsions:
REMARK  status: ('A' for Active; 'I' for Inactive)
REMARK    1  A    between atoms: C2_2  and  C3_3 
REMARK    2  A    between atoms: C4_4  and  C5_5 
REMARK    3  A    between atoms: C15_19  and  O2_20 
ROOT
HETATM    1  C5  UNL     1      22.606   6.008  49.347  1.00  0.00     0.125 C 
HETATM    2  C6  UNL     1      23.506   5.133  48.509  1.00  0.00     0.031 C 
HETATM    3  C7  UNL     1      24.196   4.046  49.144  1.00  0.00     0.002 C 
HETATM    4  O1  UNL     1      24.950   4.372  50.453  1.00  0.00     0.000 OA
HETATM    5  C8  UNL     1      26.057   3.504  50.434  1.00  0.00     0.048 A 
HETATM    6  C9  UNL     1      25.360   2.522  51.139  1.00  0.00    -0.005 A 
HETATM    7  C10 UNL     1      24.258   3.397  51.263  1.00  0.00     0.057 A 
HETATM    8  C11 UNL     1      23.065   3.245  51.880  1.00  0.00     0.050 C 
HETATM    9  N1  UNL     1      21.922   4.124  52.033  1.00  0.00    -0.248 NA
HETATM   10  C12 UNL     1      22.331   5.407  51.827  1.00  0.00     0.223 C 
HETATM   11  N2  UNL     1      23.412   6.363  51.516  1.00  0.00    -0.296 N 
HETATM   12  N3  UNL     1      23.464   6.793  50.229  1.00  0.00    -0.315 N 
HETATM   13  C13 UNL     1      24.677   7.109  49.621  1.00  0.00     0.173 C 
HETATM   14  C14 UNL     1      25.775   6.132  49.494  1.00  0.00     0.027 C 
HETATM   15  C15 UNL     1      26.239   4.858  49.795  1.00  0.00     0.053 C 
HETATM   16  C16 UNL     1      23.095   1.926  52.471  1.00  0.00     0.187 C 
HETATM   17  C17 UNL     1      24.274   1.808  53.463  1.00  0.00     0.154 C 
HETATM   18  N4  UNL     1      24.736   0.514  53.304  1.00  0.00    -0.408 N 
HETATM   19  C18 UNL     1      25.980   0.113  52.900  1.00  0.00     0.117 C 
HETATM   20  C19 UNL     1      26.982   1.071  52.316  1.00  0.00     0.020 C 
HETATM   21  C20 UNL     1      26.486   1.703  50.985  1.00  0.00     0.014 C 
HETATM   22  C21 UNL     1      23.631  -0.366  53.043  1.00  0.00     0.143 C 
HETATM   23  C22 UNL     1      22.332   0.188  53.604  1.00  0.00     0.188 C 
HETATM   24  O3  UNL     1      22.017   1.465  53.168  1.00  0.00    -0.377 OA
HETATM   25  H13 UNL     1      23.613   6.213  52.532  1.00  0.00     0.187 HD
ENDROOT
BRANCH   1  26
HETATM   26  C4  UNL     1      21.958   6.971  48.365  1.00  0.00    -0.000 C 
HETATM   27  C3  UNL     1      20.976   7.815  48.637  1.00  0.00    -0.003 C 
BRANCH  27  28
HETATM   28  C2  UNL     1      20.165   8.190  49.775  1.00  0.00    -0.010 C 
HETATM   29  C1  UNL     1      19.513   9.311  50.085  1.00  0.00     0.011 C 
ENDBRANCH  27  28
ENDBRANCH   1  26
BRANCH  15  30
HETATM   30  O2  UNL     1      27.504   4.412  49.372  1.00  0.00    -0.364 OA
HETATM   31  H17 UNL     1      27.469   3.569  48.770  1.00  0.00     0.217 HD
ENDBRANCH  15  30
TORSDOF 3
ENDMDL
MODEL 6
REMARK VINA RESULT:      -7.9      1.809      2.484
REMARK  3 active torsions:
REMARK  status: ('A' for Active; 'I' for Inactive)
REMARK    1  A    between atoms: C2_2  and  C3_3 
REMARK    2  A    between atoms: C4_4  and  C5_5 
REMARK    3  A    between atoms: C15_19  and  O2_20 
ROOT
HETATM    1  C5  UNL     1      24.882   5.928  50.340  1.00  0.00     0.125 C 
HETATM    2  C6  UNL     1      23.719   6.354  51.204  1.00  0.00     0.031 C 
HETATM    3  C7  UNL     1      22.820   5.348  51.694  1.00  0.00     0.002 C 
HETATM    4  O1  UNL     1      22.283   4.333  50.660  1.00  0.00     0.000 OA
HETATM    5  C8  UNL     1      20.989   4.029  51.120  1.00  0.00     0.048 A 
HETATM    6  C9  UNL     1      21.457   2.946  51.866  1.00  0.00    -0.005 A 
HETATM    7  C10 UNL     1      22.756   3.158  51.354  1.00  0.00     0.057 A 
HETATM    8  C11 UNL     1      23.912   2.485  51.552  1.00  0.00     0.050 C 
HETATM    9  N1  UNL     1      25.255   2.671  51.036  1.00  0.00    -0.248 NA
HETATM   10  C12 UNL     1      25.182   3.417  49.899  1.00  0.00     0.223 C 
HETATM   11  N2  UNL     1      24.370   4.149  48.907  1.00  0.00    -0.296 N 
HETATM   12  N3  UNL     1      24.332   5.498  49.057  1.00  0.00    -0.315 N 
HETATM   13  C13 UNL     1      23.201   6.233  48.709  1.00  0.00     0.173 C 
HETATM   14  C14 UNL     1      21.878   5.980  49.311  1.00  0.00     0.027 C 
HETATM   15  C15 UNL     1      21.120   5.188  50.164  1.00  0.00     0.053 C 
HETATM   16  C16 UNL     1      23.583   1.393  52.440  1.00  0.00     0.187 C 
HETATM   17  C17 UNL     1      22.496   0.495  51.807  1.00  0.00     0.154 C 
HETATM   18  N4  UNL     1      21.698   0.111  52.871  1.00  0.00    -0.408 N 
HETATM   19  C18 UNL     1      20.365   0.358  53.050  1.00  0.00     0.117 C 
HETATM   20  C19 UNL     1      19.607   1.334  52.192  1.00  0.00     0.020 C 
HETATM   21  C20 UNL     1      20.146   2.787  52.334  1.00  0.00     0.014 C 
HETATM   22  C21 UNL     1      22.509  -0.072  54.042  1.00  0.00     0.143 C 
HETATM   23  C22 UNL     1      23.948  -0.400  53.680  1.00  0.00     0.188 C 
HETATM   24  O3  UNL     1      24.552   0.523  52.841  1.00  0.00    -0.377 OA
HETATM   25  H13 UNL     1      24.217   3.175  48.557  1.00  0.00     0.187 HD
ENDROOT
BRANCH   1  26
HETATM   26  C4  UNL     1      25.680   7.197  50.091  1.00  0.00    -0.000 C 
HETATM   27  C3  UNL     1      26.752   7.303  49.322  1.00  0.00    -0.003 C 
BRANCH  27  28
HETATM   28  C2  UNL     1      27.563   6.446  48.484  1.00  0.00    -0.010 C 
HETATM   29  C1  UNL     1      27.907   5.162  48.579  1.00  0.00     0.011 C 
ENDBRANCH  27  28
ENDBRANCH   1  26
BRANCH  15  30
HETATM   30  O2  UNL     1      19.753   5.435  50.384  1.00  0.00    -0.364 OA
HETATM   31  H17 UNL     1      19.134   5.007  49.671  1.00  0.00     0.217 HD
ENDBRANCH  15  30
TORSDOF 3
ENDMDL
MODEL 7
REMARK VINA RESULT:      -7.8      5.429      9.485
REMARK  3 active torsions:
REMARK  status: ('A' for Active; 'I' for Inactive)
REMARK    1  A    between atoms: C2_2  and  C3_3 
REMARK    2  A    between atoms: C4_4  and  C5_5 
REMARK    3  A    between atoms: C15_19  and  O2_20 
ROOT
HETATM    1  C5  UNL     1      33.150   6.274  48.513  1.00  0.00     0.125 C 
HETATM    2  C6  UNL     1      32.900   7.453  49.422  1.00  0.00     0.031 C 
HETATM    3  C7  UNL     1      31.591   8.043  49.440  1.00  0.00     0.002 C 
HETATM    4  O1  UNL     1      30.958   8.370  48.069  1.00  0.00     0.000 OA
HETATM    5  C8  UNL     1      30.184   9.518  48.316  1.00  0.00     0.048 A 
HETATM    6  C9  UNL     1      29.052   8.753  48.601  1.00  0.00    -0.005 A 
HETATM    7  C10 UNL     1      29.766   7.580  48.271  1.00  0.00     0.057 A 
HETATM    8  C11 UNL     1      29.383   6.283  48.242  1.00  0.00     0.050 C 
HETATM    9  N1  UNL     1      30.087   5.062  47.900  1.00  0.00    -0.248 NA
HETATM   10  C12 UNL     1      31.171   5.384  47.142  1.00  0.00     0.223 C 
HETATM   11  N2  UNL     1      32.000   6.409  46.478  1.00  0.00    -0.296 N 
HETATM   12  N3  UNL     1      33.129   6.773  47.141  1.00  0.00    -0.315 N 
HETATM   13  C13 UNL     1      33.630   8.069  47.057  1.00  0.00     0.173 C 
HETATM   14  C14 UNL     1      32.839   9.250  47.453  1.00  0.00     0.027 C 
HETATM   15  C15 UNL     1      31.616   9.736  47.895  1.00  0.00     0.053 C 
HETATM   16  C16 UNL     1      27.988   6.277  48.618  1.00  0.00     0.187 C 
HETATM   17  C17 UNL     1      27.163   7.142  47.638  1.00  0.00     0.154 C 
HETATM   18  N4  UNL     1      26.209   7.755  48.430  1.00  0.00    -0.408 N 
HETATM   19  C18 UNL     1      26.024   9.095  48.632  1.00  0.00     0.117 C 
HETATM   20  C19 UNL     1      27.031  10.121  48.189  1.00  0.00     0.020 C 
HETATM   21  C20 UNL     1      28.399   9.953  48.911  1.00  0.00     0.014 C 
HETATM   22  C21 UNL     1      25.797   6.857  49.473  1.00  0.00     0.143 C 
HETATM   23  C22 UNL     1      26.008   5.406  49.077  1.00  0.00     0.188 C 
HETATM   24  O3  UNL     1      27.304   5.100  48.691  1.00  0.00    -0.377 OA
HETATM   25  H13 UNL     1      31.234   6.335  45.770  1.00  0.00     0.187 HD
ENDROOT
BRANCH   1  26
HETATM   26  C4  UNL     1      34.573   5.832  48.815  1.00  0.00    -0.000 C 
HETATM   27  C3  UNL     1      35.145   4.713  48.399  1.00  0.00    -0.003 C 
BRANCH  27  28
HETATM   28  C2  UNL     1      34.792   3.557  47.603  1.00  0.00    -0.010 C 
HETATM   29  C1  UNL     1      34.905   3.293  46.302  1.00  0.00     0.011 C 
ENDBRANCH  27  28
ENDBRANCH   1  26
BRANCH  15  30
HETATM   30  O2  UNL     1      31.405  11.106  48.132  1.00  0.00    -0.364 OA
HETATM   31  H17 UNL     1      30.807  11.299  48.957  1.00  0.00     0.217 HD
ENDBRANCH  15  30
TORSDOF 3
ENDMDL
MODEL 8
REMARK VINA RESULT:      -7.6      2.581      6.664
REMARK  3 active torsions:
REMARK  status: ('A' for Active; 'I' for Inactive)
REMARK    1  A    between atoms: C2_2  and  C3_3 
REMARK    2  A    between atoms: C4_4  and  C5_5 
REMARK    3  A    between atoms: C15_19  and  O2_20 
ROOT
HETATM    1  C5  UNL     1      22.428   1.831  52.140  1.00  0.00     0.125 C 
HETATM    2  C6  UNL     1      22.531   1.315  50.725  1.00  0.00     0.031 C 
HETATM    3  C7  UNL     1      22.645   2.264  49.653  1.00  0.00     0.002 C 
HETATM    4  O1  UNL     1      21.635   3.434  49.650  1.00  0.00     0.000 OA
HETATM    5  C8  UNL     1      21.429   3.702  48.285  1.00  0.00     0.048 A 
HETATM    6  C9  UNL     1      22.453   4.651  48.268  1.00  0.00    -0.005 A 
HETATM    7  C10 UNL     1      22.630   4.480  49.658  1.00  0.00     0.057 A 
HETATM    8  C11 UNL     1      23.468   5.085  50.530  1.00  0.00     0.050 C 
HETATM    9  N1  UNL     1      23.667   4.940  51.959  1.00  0.00    -0.248 NA
HETATM   10  C12 UNL     1      22.552   4.370  52.496  1.00  0.00     0.223 C 
HETATM   11  N2  UNL     1      21.197   3.814  52.319  1.00  0.00    -0.296 N 
HETATM   12  N3  UNL     1      21.117   2.459  52.278  1.00  0.00    -0.315 N 
HETATM   13  C13 UNL     1      20.154   1.815  51.506  1.00  0.00     0.173 C 
HETATM   14  C14 UNL     1      20.047   2.013  50.047  1.00  0.00     0.027 C 
HETATM   15  C15 UNL     1      20.513   2.692  48.929  1.00  0.00     0.053 C 
HETATM   16  C16 UNL     1      24.218   6.044  49.751  1.00  0.00     0.187 C 
HETATM   17  C17 UNL     1      23.263   7.055  49.077  1.00  0.00     0.154 C 
HETATM   18  N4  UNL     1      23.831   7.301  47.840  1.00  0.00    -0.408 N 
HETATM   19  C18 UNL     1      23.287   7.067  46.607  1.00  0.00     0.117 C 
HETATM   20  C19 UNL     1      22.039   6.248  46.423  1.00  0.00     0.020 C 
HETATM   21  C20 UNL     1      22.225   4.776  46.891  1.00  0.00     0.014 C 
HETATM   22  C21 UNL     1      25.263   7.288  47.955  1.00  0.00     0.143 C 
HETATM   23  C22 UNL     1      25.714   7.626  49.366  1.00  0.00     0.188 C 
HETATM   24  O3  UNL     1      25.166   6.820  50.351  1.00  0.00    -0.377 OA
HETATM   25  H13 UNL     1      20.958   4.833  52.311  1.00  0.00     0.187 HD
ENDROOT
BRANCH   1  26
HETATM   26  C4  UNL     1      22.434   0.591  53.019  1.00  0.00    -0.000 C 
HETATM   27  C3  UNL     1      23.507  -0.032  53.479  1.00  0.00    -0.003 C 
BRANCH  27  28
HETATM   28  C2  UNL     1      24.946   0.109  53.405  1.00  0.00    -0.010 C 
HETATM   29  C1  UNL     1      25.780   0.297  52.383  1.00  0.00     0.011 C 
ENDBRANCH  27  28
ENDBRANCH   1  26
BRANCH  15  30
HETATM   30  O2  UNL     1      19.987   2.453  47.646  1.00  0.00    -0.364 OA
HETATM   31  H17 UNL     1      19.036   2.039  47.657  1.00  0.00     0.217 HD
ENDBRANCH  15  30
TORSDOF 3
ENDMDL
MODEL 9
REMARK VINA RESULT:      -7.4      3.454      5.962
REMARK  3 active torsions:
REMARK  status: ('A' for Active; 'I' for Inactive)
REMARK    1  A    between atoms: C2_2  and  C3_3 
REMARK    2  A    between atoms: C4_4  and  C5_5 
REMARK    3  A    between atoms: C15_19  and  O2_20 
ROOT
HETATM    1  C5  UNL     1      23.959   3.908  50.708  1.00  0.00     0.125 C 
HETATM    2  C6  UNL     1      23.783   2.480  50.254  1.00  0.00     0.031 C 
HETATM    3  C7  UNL     1      22.487   1.873  50.378  1.00  0.00     0.002 C 
HETATM    4  O1  UNL     1      21.779   2.018  51.745  1.00  0.00     0.000 OA
HETATM    5  C8  UNL     1      21.041   0.828  51.874  1.00  0.00     0.048 A 
HETATM    6  C9  UNL     1      19.915   1.406  51.285  1.00  0.00    -0.005 A 
HETATM    7  C10 UNL     1      20.589   2.646  51.222  1.00  0.00     0.057 A 
HETATM    8  C11 UNL     1      20.183   3.857  50.780  1.00  0.00     0.050 C 
HETATM    9  N1  UNL     1      20.845   5.146  50.710  1.00  0.00    -0.248 NA
HETATM   10  C12 UNL     1      21.888   5.146  51.586  1.00  0.00     0.223 C 
HETATM   11  N2  UNL     1      22.694   4.444  52.604  1.00  0.00    -0.296 N 
HETATM   12  N3  UNL     1      23.865   3.914  52.166  1.00  0.00    -0.315 N 
HETATM   13  C13 UNL     1      24.383   2.746  52.720  1.00  0.00     0.173 C 
HETATM   14  C14 UNL     1      23.636   1.473  52.720  1.00  0.00     0.027 C 
HETATM   15  C15 UNL     1      22.449   0.821  52.415  1.00  0.00     0.053 C 
HETATM   16  C16 UNL     1      18.813   3.682  50.357  1.00  0.00     0.187 C 
HETATM   17  C17 UNL     1      17.946   3.181  51.534  1.00  0.00     0.154 C 
HETATM   18  N4  UNL     1      17.051   2.298  50.958  1.00  0.00    -0.408 N 
HETATM   19  C18 UNL     1      16.900   0.965  51.226  1.00  0.00     0.117 C 
HETATM   20  C19 UNL     1      17.897   0.193  52.046  1.00  0.00     0.020 C 
HETATM   21  C20 UNL     1      19.302   0.150  51.380  1.00  0.00     0.014 C 
HETATM   22  C21 UNL     1      16.686   2.764  49.649  1.00  0.00     0.143 C 
HETATM   23  C22 UNL     1      16.849   4.270  49.527  1.00  0.00     0.188 C 
HETATM   24  O3  UNL     1      18.115   4.736  49.845  1.00  0.00    -0.377 OA
HETATM   25  H13 UNL     1      21.886   4.730  53.204  1.00  0.00     0.187 HD
ENDROOT
BRANCH   1  26
HETATM   26  C4  UNL     1      25.389   4.269  50.343  1.00  0.00    -0.000 C 
HETATM   27  C3  UNL     1      25.760   5.221  49.501  1.00  0.00    -0.003 C 
BRANCH  27  28
HETATM   28  C2  UNL     1      25.132   6.216  48.658  1.00  0.00    -0.010 C 
HETATM   29  C1  UNL     1      23.901   6.324  48.160  1.00  0.00     0.011 C 
ENDBRANCH  27  28
ENDBRANCH   1  26
BRANCH  15  30
HETATM   30  O2  UNL     1      22.276  -0.553  52.659  1.00  0.00    -0.364 OA
HETATM   31  H17 UNL     1      22.477  -1.151  51.835  1.00  0.00     0.217 HD
ENDBRANCH  15  30
TORSDOF 3
ENDMDL
