MODEL 1
REMARK VINA RESULT:      -7.6      0.000      0.000
REMARK  5 active torsions:
REMARK  status: ('A' for Active; 'I' for Inactive)
REMARK    1  A    between atoms: C12_14  and  N3_15 
REMARK    2  A    between atoms: N4_16  and  C13_17 
REMARK    3  A    between atoms: C14_19  and  C15_20 
REMARK    4  A    between atoms: C15_20  and  C16_21 
REMARK    5  A    between atoms: C16_21  and  N5_22 
ROOT
HETATM    1  C1  UNL     1      18.086  -1.880  52.842  1.00  0.00     0.050 C 
HETATM    2  C2  UNL     1      19.268  -1.075  53.221  1.00  0.00    -0.033 A 
HETATM    3  C3  UNL     1      20.102  -1.421  54.248  1.00  0.00     0.009 A 
HETATM    4  C4  UNL     1      21.195  -0.670  54.612  1.00  0.00     0.003 A 
HETATM    5  C5  UNL     1      21.491   0.485  53.936  1.00  0.00     0.032 A 
HETATM    6  C6  UNL     1      20.679   0.828  52.933  1.00  0.00     0.068 A 
HETATM    7  C7  UNL     1      19.533   0.080  52.518  1.00  0.00     0.067 A 
HETATM    8  N1  UNL     1      18.508   0.223  51.467  1.00  0.00    -0.331 N 
HETATM    9  C8  UNL     1      18.557   1.609  51.007  1.00  0.00     0.175 C 
HETATM   10  N2  UNL     1      19.344   1.771  50.116  1.00  0.00    -0.402 NA
HETATM   11  C9  UNL     1      20.232   1.810  49.152  1.00  0.00     0.196 C 
HETATM   12  C10 UNL     1      21.399   2.037  49.661  1.00  0.00     0.025 C 
HETATM   13  C11 UNL     1      21.823   2.239  51.046  1.00  0.00     0.095 C 
HETATM   14  C12 UNL     1      23.071   2.589  51.135  1.00  0.00     0.132 C 
HETATM   15  N4  UNL     1      23.613   2.665  49.829  1.00  0.00    -0.304 N 
HETATM   16  C19 UNL     1      22.657   2.140  48.882  1.00  0.00     0.127 C 
HETATM   17  C20 UNL     1      22.380   3.167  47.774  1.00  0.00     0.038 C 
HETATM   18  N6  UNL     1      20.926   2.065  52.181  1.00  0.00    -0.300 N 
HETATM   19  C21 UNL     1      20.251   3.349  52.445  1.00  0.00     0.209 C 
HETATM   20  N7  UNL     1      19.017   3.712  52.072  1.00  0.00    -0.276 NA
HETATM   21  C22 UNL     1      17.939   2.938  51.409  1.00  0.00     0.242 C 
HETATM   22  H7  UNL     1      17.960  -0.605  51.226  1.00  0.00     0.168 HD
ENDROOT
BRANCH  15  23
HETATM   23  C13 UNL     1      24.871   3.180  49.545  1.00  0.00     0.153 A 
HETATM   24  O1  UNL     1      25.035   4.439  49.707  1.00  0.00    -0.323 OA
HETATM   25  C14 UNL     1      26.180   3.542  49.222  1.00  0.00     0.211 A 
BRANCH  25  26
HETATM   26  C15 UNL     1      26.664   4.763  49.286  1.00  0.00     0.060 C 
BRANCH  26  27
HETATM   27  C16 UNL     1      27.921   5.034  48.559  1.00  0.00     0.279 C 
BRANCH  27  28
HETATM   28  N5  UNL     1      27.937   6.381  48.052  1.00  0.00     0.080 N 
HETATM   29  C17 UNL     1      29.245   6.903  47.799  1.00  0.00     0.309 C 
HETATM   30  C18 UNL     1      27.186   7.306  48.851  1.00  0.00     0.309 C 
ENDBRANCH  27  28
ENDBRANCH  26  27
ENDBRANCH  25  26
ENDBRANCH  15  23
BRANCH  14  31
HETATM   31  N3  UNL     1      23.818   2.867  52.328  1.00  0.00    -0.383 N 
HETATM   32  H9  UNL     1      24.375   3.740  52.462  1.00  0.00     0.157 HD
HETATM   33  H10 UNL     1      23.817   2.174  53.114  1.00  0.00     0.157 HD
ENDBRANCH  14  31
TORSDOF 5
ENDMDL
MODEL 2
REMARK VINA RESULT:      -7.5      3.745      6.248
REMARK  5 active torsions:
REMARK  status: ('A' for Active; 'I' for Inactive)
REMARK    1  A    between atoms: C12_14  and  N3_15 
REMARK    2  A    between atoms: N4_16  and  C13_17 
REMARK    3  A    between atoms: C14_19  and  C15_20 
REMARK    4  A    between atoms: C15_20  and  C16_21 
REMARK    5  A    between atoms: C16_21  and  N5_22 
ROOT
HETATM    1  C1  UNL     1      20.239   7.878  49.975  1.00  0.00     0.050 C 
HETATM    2  C2  UNL     1      21.606   7.340  50.145  1.00  0.00    -0.033 A 
HETATM    3  C3  UNL     1      22.690   8.136  50.396  1.00  0.00     0.009 A 
HETATM    4  C4  UNL     1      23.965   7.640  50.543  1.00  0.00     0.003 A 
HETATM    5  C5  UNL     1      24.196   6.294  50.439  1.00  0.00     0.032 A 
HETATM    6  C6  UNL     1      23.141   5.512  50.194  1.00  0.00     0.068 A 
HETATM    7  C7  UNL     1      21.798   5.980  50.034  1.00  0.00     0.067 A 
HETATM    8  N1  UNL     1      20.489   5.351  49.778  1.00  0.00    -0.331 N 
HETATM    9  C8  UNL     1      20.752   4.004  49.275  1.00  0.00     0.175 C 
HETATM   10  N2  UNL     1      20.852   3.196  50.155  1.00  0.00    -0.402 NA
HETATM   11  C9  UNL     1      20.938   2.417  51.207  1.00  0.00     0.196 C 
HETATM   12  C10 UNL     1      22.164   2.399  51.621  1.00  0.00     0.025 C 
HETATM   13  C11 UNL     1      23.360   3.072  51.118  1.00  0.00     0.095 C 
HETATM   14  C12 UNL     1      24.440   2.680  51.725  1.00  0.00     0.132 C 
HETATM   15  N4  UNL     1      24.087   1.706  52.690  1.00  0.00    -0.304 N 
HETATM   16  C19 UNL     1      22.649   1.636  52.797  1.00  0.00     0.127 C 
HETATM   17  C20 UNL     1      22.164   0.193  52.588  1.00  0.00     0.038 C 
HETATM   18  N6  UNL     1      23.321   4.063  50.050  1.00  0.00    -0.300 N 
HETATM   19  C21 UNL     1      23.452   3.364  48.758  1.00  0.00     0.209 C 
HETATM   20  N7  UNL     1      22.472   3.035  47.907  1.00  0.00    -0.276 NA
HETATM   21  C22 UNL     1      21.023   3.352  47.929  1.00  0.00     0.242 C 
HETATM   22  H7  UNL     1      19.653   5.902  49.981  1.00  0.00     0.168 HD
ENDROOT
BRANCH  15  23
HETATM   23  C13 UNL     1      25.013   0.950  53.396  1.00  0.00     0.153 A 
HETATM   24  O1  UNL     1      25.840   1.587  54.137  1.00  0.00    -0.323 OA
HETATM   25  C14 UNL     1      25.874   0.057  54.037  1.00  0.00     0.211 A 
BRANCH  25  26
HETATM   26  C15 UNL     1      26.835   0.397  54.867  1.00  0.00     0.060 C 
BRANCH  26  27
HETATM   27  C16 UNL     1      28.133  -0.292  54.723  1.00  0.00     0.279 C 
BRANCH  27  28
HETATM   28  N5  UNL     1      28.993   0.423  53.817  1.00  0.00     0.080 N 
HETATM   29  C17 UNL     1      30.180  -0.282  53.447  1.00  0.00     0.309 C 
HETATM   30  C18 UNL     1      29.325   1.746  54.261  1.00  0.00     0.309 C 
ENDBRANCH  27  28
ENDBRANCH  26  27
ENDBRANCH  25  26
ENDBRANCH  15  23
BRANCH  14  31
HETATM   31  N3  UNL     1      25.784   3.125  51.491  1.00  0.00    -0.383 N 
HETATM   32  H9  UNL     1      26.192   3.971  51.948  1.00  0.00     0.157 HD
HETATM   33  H10 UNL     1      26.401   2.589  50.837  1.00  0.00     0.157 HD
ENDBRANCH  14  31
TORSDOF 5
ENDMDL
MODEL 3
REMARK VINA RESULT:      -7.4      3.031      4.033
REMARK  5 active torsions:
REMARK  status: ('A' for Active; 'I' for Inactive)
REMARK    1  A    between atoms: C12_14  and  N3_15 
REMARK    2  A    between atoms: N4_16  and  C13_17 
REMARK    3  A    between atoms: C14_19  and  C15_20 
REMARK    4  A    between atoms: C15_20  and  C16_21 
REMARK    5  A    between atoms: C16_21  and  N5_22 
ROOT
HETATM    1  C1  UNL     1      15.737  -0.652  49.169  1.00  0.00     0.050 C 
HETATM    2  C2  UNL     1      16.670  -0.464  50.301  1.00  0.00    -0.033 A 
HETATM    3  C3  UNL     1      16.679  -1.281  51.399  1.00  0.00     0.009 A 
HETATM    4  C4  UNL     1      17.537  -1.102  52.458  1.00  0.00     0.003 A 
HETATM    5  C5  UNL     1      18.437  -0.068  52.449  1.00  0.00     0.032 A 
HETATM    6  C6  UNL     1      18.432   0.733  51.380  1.00  0.00     0.068 A 
HETATM    7  C7  UNL     1      17.560   0.587  50.255  1.00  0.00     0.067 A 
HETATM    8  N1  UNL     1      17.361   1.301  48.979  1.00  0.00    -0.331 N 
HETATM    9  C8  UNL     1      18.004   2.607  49.115  1.00  0.00     0.175 C 
HETATM   10  N2  UNL     1      19.162   2.584  48.802  1.00  0.00    -0.402 NA
HETATM   11  C9  UNL     1      20.409   2.423  48.432  1.00  0.00     0.196 C 
HETATM   12  C10 UNL     1      21.114   2.075  49.460  1.00  0.00     0.025 C 
HETATM   13  C11 UNL     1      20.738   1.858  50.856  1.00  0.00     0.095 C 
HETATM   14  C12 UNL     1      21.769   1.658  51.621  1.00  0.00     0.132 C 
HETATM   15  N4  UNL     1      22.940   1.726  50.827  1.00  0.00    -0.304 N 
HETATM   16  C19 UNL     1      22.570   1.793  49.432  1.00  0.00     0.127 C 
HETATM   17  C20 UNL     1      23.220   3.013  48.762  1.00  0.00     0.038 C 
HETATM   18  N6  UNL     1      19.354   1.872  51.314  1.00  0.00    -0.300 N 
HETATM   19  C21 UNL     1      18.997   3.257  51.676  1.00  0.00     0.209 C 
HETATM   20  N7  UNL     1      18.312   4.140  50.937  1.00  0.00    -0.276 NA
HETATM   21  C22 UNL     1      17.626   3.985  49.631  1.00  0.00     0.242 C 
HETATM   22  H7  UNL     1      16.849   0.814  48.241  1.00  0.00     0.168 HD
ENDROOT
BRANCH  15  23
HETATM   23  C13 UNL     1      24.226   1.732  51.349  1.00  0.00     0.153 A 
HETATM   24  O1  UNL     1      24.525   0.798  52.171  1.00  0.00    -0.323 OA
HETATM   25  C14 UNL     1      25.545   1.875  51.783  1.00  0.00     0.211 A 
BRANCH  25  26
HETATM   26  C15 UNL     1      26.153   1.073  52.630  1.00  0.00     0.060 C 
BRANCH  26  27
HETATM   27  C16 UNL     1      27.541   1.409  53.006  1.00  0.00     0.279 C 
BRANCH  27  28
HETATM   28  N5  UNL     1      27.888   0.807  54.266  1.00  0.00     0.080 N 
HETATM   29  C17 UNL     1      28.958  -0.140  54.195  1.00  0.00     0.309 C 
HETATM   30  C18 UNL     1      26.770   0.232  54.958  1.00  0.00     0.309 C 
ENDBRANCH  27  28
ENDBRANCH  26  27
ENDBRANCH  25  26
ENDBRANCH  15  23
BRANCH  14  31
HETATM   31  N3  UNL     1      21.775   1.411  53.034  1.00  0.00    -0.383 N 
HETATM   32  H9  UNL     1      20.944   1.577  53.645  1.00  0.00     0.157 HD
HETATM   33  H10 UNL     1      22.642   1.046  53.493  1.00  0.00     0.157 HD
ENDBRANCH  14  31
TORSDOF 5
ENDMDL
MODEL 4
REMARK VINA RESULT:      -7.3      3.352      8.222
REMARK  5 active torsions:
REMARK  status: ('A' for Active; 'I' for Inactive)
REMARK    1  A    between atoms: C12_14  and  N3_15 
REMARK    2  A    between atoms: N4_16  and  C13_17 
REMARK    3  A    between atoms: C14_19  and  C15_20 
REMARK    4  A    between atoms: C15_20  and  C16_21 
REMARK    5  A    between atoms: C16_21  and  N5_22 
ROOT
HETATM    1  C1  UNL     1      25.870   2.107  51.885  1.00  0.00     0.050 C 
HETATM    2  C2  UNL     1      24.570   1.431  52.086  1.00  0.00    -0.033 A 
HETATM    3  C3  UNL     1      24.367   0.488  53.056  1.00  0.00     0.009 A 
HETATM    4  C4  UNL     1      23.163  -0.151  53.238  1.00  0.00     0.003 A 
HETATM    5  C5  UNL     1      22.097   0.145  52.430  1.00  0.00     0.032 A 
HETATM    6  C6  UNL     1      22.290   1.065  51.481  1.00  0.00     0.068 A 
HETATM    7  C7  UNL     1      23.521   1.756  51.253  1.00  0.00     0.067 A 
HETATM    8  N1  UNL     1      23.986   2.794  50.314  1.00  0.00    -0.331 N 
HETATM    9  C8  UNL     1      23.026   2.836  49.213  1.00  0.00     0.175 C 
HETATM   10  N2  UNL     1      22.114   3.586  49.427  1.00  0.00    -0.402 NA
HETATM   11  C9  UNL     1      21.178   4.433  49.784  1.00  0.00     0.196 C 
HETATM   12  C10 UNL     1      20.259   3.797  50.437  1.00  0.00     0.025 C 
HETATM   13  C11 UNL     1      20.135   2.387  50.797  1.00  0.00     0.095 C 
HETATM   14  C12 UNL     1      18.983   2.112  51.332  1.00  0.00     0.132 C 
HETATM   15  N4  UNL     1      18.214   3.301  51.383  1.00  0.00    -0.304 N 
HETATM   16  C19 UNL     1      19.043   4.423  51.011  1.00  0.00     0.127 C 
HETATM   17  C20 UNL     1      18.396   5.211  49.861  1.00  0.00     0.038 C 
HETATM   18  N6  UNL     1      21.197   1.414  50.567  1.00  0.00    -0.300 N 
HETATM   19  C21 UNL     1      21.025   0.845  49.217  1.00  0.00     0.209 C 
HETATM   20  N7  UNL     1      21.680   1.187  48.100  1.00  0.00    -0.276 NA
HETATM   21  C22 UNL     1      22.816   2.118  47.890  1.00  0.00     0.242 C 
HETATM   22  H7  UNL     1      24.842   3.299  50.553  1.00  0.00     0.168 HD
ENDROOT
BRANCH  15  23
HETATM   23  C13 UNL     1      16.872   3.335  51.733  1.00  0.00     0.153 A 
HETATM   24  O1  UNL     1      16.514   4.228  52.578  1.00  0.00    -0.323 OA
HETATM   25  C14 UNL     1      15.501   3.242  51.982  1.00  0.00     0.211 A 
BRANCH  25  26
HETATM   26  C15 UNL     1      14.827   4.019  52.801  1.00  0.00     0.060 C 
BRANCH  26  27
HETATM   27  C16 UNL     1      13.360   4.070  52.635  1.00  0.00     0.279 C 
BRANCH  27  28
HETATM   28  N5  UNL     1      12.713   3.159  53.542  1.00  0.00     0.080 N 
HETATM   29  C17 UNL     1      11.821   2.234  52.915  1.00  0.00     0.309 C 
HETATM   30  C18 UNL     1      12.055   3.808  54.640  1.00  0.00     0.309 C 
ENDBRANCH  27  28
ENDBRANCH  26  27
ENDBRANCH  25  26
ENDBRANCH  15  23
BRANCH  14  31
HETATM   31  N3  UNL     1      18.519   0.839  51.804  1.00  0.00    -0.383 N 
HETATM   32  H9  UNL     1      17.879   0.733  52.622  1.00  0.00     0.157 HD
HETATM   33  H10 UNL     1      18.825  -0.037  51.318  1.00  0.00     0.157 HD
ENDBRANCH  14  31
TORSDOF 5
ENDMDL
MODEL 5
REMARK VINA RESULT:      -7.3      4.615      6.570
REMARK  5 active torsions:
REMARK  status: ('A' for Active; 'I' for Inactive)
REMARK    1  A    between atoms: C12_14  and  N3_15 
REMARK    2  A    between atoms: N4_16  and  C13_17 
REMARK    3  A    between atoms: C14_19  and  C15_20 
REMARK    4  A    between atoms: C15_20  and  C16_21 
REMARK    5  A    between atoms: C16_21  and  N5_22 
ROOT
HETATM    1  C1  UNL     1      20.197   4.922  47.090  1.00  0.00     0.050 C 
HETATM    2  C2  UNL     1      21.417   4.345  47.696  1.00  0.00    -0.033 A 
HETATM    3  C3  UNL     1      21.658   2.999  47.739  1.00  0.00     0.009 A 
HETATM    4  C4  UNL     1      22.786   2.459  48.312  1.00  0.00     0.003 A 
HETATM    5  C5  UNL     1      23.731   3.276  48.875  1.00  0.00     0.032 A 
HETATM    6  C6  UNL     1      23.499   4.591  48.837  1.00  0.00     0.068 A 
HETATM    7  C7  UNL     1      22.344   5.199  48.252  1.00  0.00     0.067 A 
HETATM    8  N1  UNL     1      21.863   6.581  48.068  1.00  0.00    -0.331 N 
HETATM    9  C8  UNL     1      22.625   7.426  48.987  1.00  0.00     0.175 C 
HETATM   10  N2  UNL     1      23.647   7.827  48.503  1.00  0.00    -0.402 NA
HETATM   11  C9  UNL     1      24.727   8.195  47.859  1.00  0.00     0.196 C 
HETATM   12  C10 UNL     1      25.655   7.314  48.050  1.00  0.00     0.025 C 
HETATM   13  C11 UNL     1      25.659   6.072  48.821  1.00  0.00     0.095 C 
HETATM   14  C12 UNL     1      26.840   5.534  48.886  1.00  0.00     0.132 C 
HETATM   15  N4  UNL     1      27.750   6.355  48.177  1.00  0.00    -0.304 N 
HETATM   16  C19 UNL     1      27.019   7.381  47.471  1.00  0.00     0.127 C 
HETATM   17  C20 UNL     1      27.559   8.773  47.835  1.00  0.00     0.038 C 
HETATM   18  N6  UNL     1      24.460   5.521  49.441  1.00  0.00    -0.300 N 
HETATM   19  C21 UNL     1      24.332   6.089  50.795  1.00  0.00     0.209 C 
HETATM   20  N7  UNL     1      23.547   7.104  51.181  1.00  0.00    -0.276 NA
HETATM   21  C22 UNL     1      22.519   7.871  50.436  1.00  0.00     0.242 C 
HETATM   22  H7  UNL     1      21.130   6.738  47.374  1.00  0.00     0.168 HD
ENDROOT
BRANCH  15  23
HETATM   23  C13 UNL     1      29.126   6.172  48.191  1.00  0.00     0.153 A 
HETATM   24  O1  UNL     1      29.555   4.976  48.031  1.00  0.00    -0.323 OA
HETATM   25  C14 UNL     1      30.521   6.151  48.228  1.00  0.00     0.211 A 
BRANCH  25  26
HETATM   26  C15 UNL     1      31.265   5.075  48.094  1.00  0.00     0.060 C 
BRANCH  26  27
HETATM   27  C16 UNL     1      32.727   5.240  48.223  1.00  0.00     0.279 C 
BRANCH  27  28
HETATM   28  N5  UNL     1      33.420   4.392  47.289  1.00  0.00     0.080 N 
HETATM   29  C17 UNL     1      32.588   3.437  46.626  1.00  0.00     0.309 C 
HETATM   30  C18 UNL     1      34.569   3.738  47.847  1.00  0.00     0.309 C 
ENDBRANCH  27  28
ENDBRANCH  26  27
ENDBRANCH  25  26
ENDBRANCH  15  23
BRANCH  14  31
HETATM   31  N3  UNL     1      27.212   4.320  49.554  1.00  0.00    -0.383 N 
HETATM   32  H9  UNL     1      26.531   3.724  50.076  1.00  0.00     0.157 HD
HETATM   33  H10 UNL     1      28.209   3.999  49.529  1.00  0.00     0.157 HD
ENDBRANCH  14  31
TORSDOF 5
ENDMDL
MODEL 6
REMARK VINA RESULT:      -7.1      2.625      9.216
REMARK  5 active torsions:
REMARK  status: ('A' for Active; 'I' for Inactive)
REMARK    1  A    between atoms: C12_14  and  N3_15 
REMARK    2  A    between atoms: N4_16  and  C13_17 
REMARK    3  A    between atoms: C14_19  and  C15_20 
REMARK    4  A    between atoms: C15_20  and  C16_21 
REMARK    5  A    between atoms: C16_21  and  N5_22 
ROOT
HETATM    1  C1  UNL     1      26.723   8.872  44.536  1.00  0.00     0.050 C 
HETATM    2  C2  UNL     1      25.574   8.528  45.400  1.00  0.00    -0.033 A 
HETATM    3  C3  UNL     1      24.275   8.727  45.021  1.00  0.00     0.009 A 
HETATM    4  C4  UNL     1      23.204   8.419  45.827  1.00  0.00     0.003 A 
HETATM    5  C5  UNL     1      23.410   7.887  47.073  1.00  0.00     0.032 A 
HETATM    6  C6  UNL     1      24.677   7.690  47.448  1.00  0.00     0.068 A 
HETATM    7  C7  UNL     1      25.822   7.994  46.647  1.00  0.00     0.067 A 
HETATM    8  N1  UNL     1      27.283   7.868  46.809  1.00  0.00    -0.331 N 
HETATM    9  C8  UNL     1      27.541   7.689  48.236  1.00  0.00     0.175 C 
HETATM   10  N2  UNL     1      27.509   6.537  48.569  1.00  0.00    -0.402 NA
HETATM   11  C9  UNL     1      27.446   5.248  48.799  1.00  0.00     0.196 C 
HETATM   12  C10 UNL     1      26.223   4.927  49.076  1.00  0.00     0.025 C 
HETATM   13  C11 UNL     1      25.011   5.738  49.161  1.00  0.00     0.095 C 
HETATM   14  C12 UNL     1      23.996   5.065  49.614  1.00  0.00     0.132 C 
HETATM   15  N4  UNL     1      24.418   3.740  49.887  1.00  0.00    -0.304 N 
HETATM   16  C19 UNL     1      25.758   3.552  49.383  1.00  0.00     0.127 C 
HETATM   17  C20 UNL     1      26.683   3.037  50.497  1.00  0.00     0.038 C 
HETATM   18  N6  UNL     1      24.970   7.144  48.778  1.00  0.00    -0.300 N 
HETATM   19  C21 UNL     1      25.319   7.959  49.956  1.00  0.00     0.209 C 
HETATM   20  N7  UNL     1      26.505   8.512  50.240  1.00  0.00    -0.276 NA
HETATM   21  C22 UNL     1      27.758   8.580  49.448  1.00  0.00     0.242 C 
HETATM   22  H7  UNL     1      27.857   7.912  45.965  1.00  0.00     0.168 HD
ENDROOT
BRANCH  15  23
HETATM   23  C13 UNL     1      23.635   2.802  50.545  1.00  0.00     0.153 A 
HETATM   24  O1  UNL     1      23.348   3.040  51.770  1.00  0.00    -0.323 OA
HETATM   25  C14 UNL     1      22.847   1.774  51.065  1.00  0.00     0.211 A 
BRANCH  25  26
HETATM   26  C15 UNL     1      22.386   1.723  52.296  1.00  0.00     0.060 C 
BRANCH  26  27
HETATM   27  C16 UNL     1      21.715   0.477  52.718  1.00  0.00     0.279 C 
BRANCH  27  28
HETATM   28  N5  UNL     1      22.277  -0.012  53.951  1.00  0.00     0.080 N 
HETATM   29  C17 UNL     1      23.571  -0.605  53.817  1.00  0.00     0.309 C 
HETATM   30  C18 UNL     1      21.405  -0.893  54.672  1.00  0.00     0.309 C 
ENDBRANCH  27  28
ENDBRANCH  26  27
ENDBRANCH  25  26
ENDBRANCH  15  23
BRANCH  14  31
HETATM   31  N3  UNL     1      22.658   5.537  49.826  1.00  0.00    -0.383 N 
HETATM   32  H9  UNL     1      22.417   6.550  49.915  1.00  0.00     0.157 HD
HETATM   33  H10 UNL     1      21.870   4.850  49.898  1.00  0.00     0.157 HD
ENDBRANCH  14  31
TORSDOF 5
ENDMDL
MODEL 7
REMARK VINA RESULT:      -7.1      3.627      5.557
REMARK  5 active torsions:
REMARK  status: ('A' for Active; 'I' for Inactive)
REMARK    1  A    between atoms: C12_14  and  N3_15 
REMARK    2  A    between atoms: N4_16  and  C13_17 
REMARK    3  A    between atoms: C14_19  and  C15_20 
REMARK    4  A    between atoms: C15_20  and  C16_21 
REMARK    5  A    between atoms: C16_21  and  N5_22 
ROOT
HETATM    1  C1  UNL     1      18.366   4.724  46.886  1.00  0.00     0.050 C 
HETATM    2  C2  UNL     1      18.810   4.077  48.140  1.00  0.00    -0.033 A 
HETATM    3  C3  UNL     1      18.108   3.069  48.743  1.00  0.00     0.009 A 
HETATM    4  C4  UNL     1      18.511   2.473  49.915  1.00  0.00     0.003 A 
HETATM    5  C5  UNL     1      19.663   2.882  50.534  1.00  0.00     0.032 A 
HETATM    6  C6  UNL     1      20.352   3.866  49.950  1.00  0.00     0.068 A 
HETATM    7  C7  UNL     1      19.974   4.516  48.733  1.00  0.00     0.067 A 
HETATM    8  N1  UNL     1      20.542   5.586  47.892  1.00  0.00    -0.331 N 
HETATM    9  C8  UNL     1      21.522   6.298  48.709  1.00  0.00     0.175 C 
HETATM   10  N2  UNL     1      22.616   5.810  48.646  1.00  0.00    -0.402 NA
HETATM   11  C9  UNL     1      23.756   5.182  48.489  1.00  0.00     0.196 C 
HETATM   12  C10 UNL     1      23.846   4.240  49.371  1.00  0.00     0.025 C 
HETATM   13  C11 UNL     1      22.927   3.819  50.427  1.00  0.00     0.095 C 
HETATM   14  C12 UNL     1      23.447   2.919  51.206  1.00  0.00     0.132 C 
HETATM   15  N4  UNL     1      24.764   2.646  50.763  1.00  0.00    -0.304 N 
HETATM   16  C19 UNL     1      24.992   3.307  49.500  1.00  0.00     0.127 C 
HETATM   17  C20 UNL     1      26.245   4.192  49.575  1.00  0.00     0.038 C 
HETATM   18  N6  UNL     1      21.583   4.367  50.572  1.00  0.00    -0.300 N 
HETATM   19  C21 UNL     1      21.656   5.563  51.432  1.00  0.00     0.209 C 
HETATM   20  N7  UNL     1      21.674   6.844  51.043  1.00  0.00    -0.276 NA
HETATM   21  C22 UNL     1      21.518   7.452  49.699  1.00  0.00     0.242 C 
HETATM   22  H7  UNL     1      20.201   5.663  46.932  1.00  0.00     0.168 HD
ENDROOT
BRANCH  15  23
HETATM   23  C13 UNL     1      25.667   1.863  51.470  1.00  0.00     0.153 A 
HETATM   24  O1  UNL     1      25.225   0.771  51.969  1.00  0.00    -0.323 OA
HETATM   25  C14 UNL     1      26.689   1.193  52.145  1.00  0.00     0.211 A 
BRANCH  25  26
HETATM   26  C15 UNL     1      26.557   0.041  52.765  1.00  0.00     0.060 C 
BRANCH  26  27
HETATM   27  C16 UNL     1      27.777  -0.765  52.969  1.00  0.00     0.279 C 
BRANCH  27  28
HETATM   28  N5  UNL     1      28.786   0.002  53.652  1.00  0.00     0.080 N 
HETATM   29  C17 UNL     1      30.119  -0.487  53.482  1.00  0.00     0.309 C 
HETATM   30  C18 UNL     1      28.511   0.205  55.046  1.00  0.00     0.309 C 
ENDBRANCH  27  28
ENDBRANCH  26  27
ENDBRANCH  25  26
ENDBRANCH  15  23
BRANCH  14  31
HETATM   31  N3  UNL     1      22.835   2.283  52.337  1.00  0.00    -0.383 N 
HETATM   32  H9  UNL     1      23.271   1.481  52.845  1.00  0.00     0.157 HD
HETATM   33  H10 UNL     1      21.909   2.625  52.686  1.00  0.00     0.157 HD
ENDBRANCH  14  31
TORSDOF 5
ENDMDL
MODEL 8
REMARK VINA RESULT:      -7.0      3.133      5.341
REMARK  5 active torsions:
REMARK  status: ('A' for Active; 'I' for Inactive)
REMARK    1  A    between atoms: C12_14  and  N3_15 
REMARK    2  A    between atoms: N4_16  and  C13_17 
REMARK    3  A    between atoms: C14_19  and  C15_20 
REMARK    4  A    between atoms: C15_20  and  C16_21 
REMARK    5  A    between atoms: C16_21  and  N5_22 
ROOT
HETATM    1  C1  UNL     1      13.377   2.033  53.323  1.00  0.00     0.050 C 
HETATM    2  C2  UNL     1      14.622   2.561  52.724  1.00  0.00    -0.033 A 
HETATM    3  C3  UNL     1      14.836   3.896  52.515  1.00  0.00     0.009 A 
HETATM    4  C4  UNL     1      15.987   4.390  51.948  1.00  0.00     0.003 A 
HETATM    5  C5  UNL     1      16.986   3.535  51.562  1.00  0.00     0.032 A 
HETATM    6  C6  UNL     1      16.782   2.230  51.763  1.00  0.00     0.068 A 
HETATM    7  C7  UNL     1      15.603   1.669  52.349  1.00  0.00     0.067 A 
HETATM    8  N1  UNL     1      15.141   0.310  52.687  1.00  0.00    -0.331 N 
HETATM    9  C8  UNL     1      15.982  -0.625  51.941  1.00  0.00     0.175 C 
HETATM   10  N2  UNL     1      16.977  -0.926  52.539  1.00  0.00    -0.402 NA
HETATM   11  C9  UNL     1      18.020  -1.172  53.296  1.00  0.00     0.196 C 
HETATM   12  C10 UNL     1      18.938  -0.296  53.047  1.00  0.00     0.025 C 
HETATM   13  C11 UNL     1      18.967   0.832  52.118  1.00  0.00     0.095 C 
HETATM   14  C12 UNL     1      20.138   1.393  52.056  1.00  0.00     0.132 C 
HETATM   15  N4  UNL     1      21.016   0.702  52.927  1.00  0.00    -0.304 N 
HETATM   16  C19 UNL     1      20.261  -0.243  53.716  1.00  0.00     0.127 C 
HETATM   17  C20 UNL     1      20.856  -1.653  53.579  1.00  0.00     0.038 C 
HETATM   18  N6  UNL     1      17.801   1.258  51.353  1.00  0.00    -0.300 N 
HETATM   19  C21 UNL     1      17.777   0.510  50.082  1.00  0.00     0.209 C 
HETATM   20  N7  UNL     1      17.043  -0.570  49.787  1.00  0.00    -0.276 NA
HETATM   21  C22 UNL     1      15.984  -1.263  50.562  1.00  0.00     0.242 C 
HETATM   22  H7  UNL     1      14.367   0.225  53.347  1.00  0.00     0.168 HD
ENDROOT
BRANCH  15  23
HETATM   23  C13 UNL     1      22.385   0.924  52.976  1.00  0.00     0.153 A 
HETATM   24  O1  UNL     1      22.782   2.137  52.869  1.00  0.00    -0.323 OA
HETATM   25  C14 UNL     1      23.777   0.984  53.045  1.00  0.00     0.211 A 
BRANCH  25  26
HETATM   26  C15 UNL     1      24.492   2.085  52.968  1.00  0.00     0.060 C 
BRANCH  26  27
HETATM   27  C16 UNL     1      25.786   2.107  53.680  1.00  0.00     0.279 C 
BRANCH  27  28
HETATM   28  N5  UNL     1      26.869   1.816  52.778  1.00  0.00     0.080 N 
HETATM   29  C17 UNL     1      28.172   2.028  53.328  1.00  0.00     0.309 C 
HETATM   30  C18 UNL     1      26.757   2.478  51.510  1.00  0.00     0.309 C 
ENDBRANCH  27  28
ENDBRANCH  26  27
ENDBRANCH  25  26
ENDBRANCH  15  23
BRANCH  14  31
HETATM   31  N3  UNL     1      20.527   2.517  51.255  1.00  0.00    -0.383 N 
HETATM   32  H9  UNL     1      19.906   3.341  51.087  1.00  0.00     0.157 HD
HETATM   33  H10 UNL     1      21.476   2.534  50.810  1.00  0.00     0.157 HD
ENDBRANCH  14  31
TORSDOF 5
ENDMDL
MODEL 9
REMARK VINA RESULT:      -6.8      4.188      6.398
REMARK  5 active torsions:
REMARK  status: ('A' for Active; 'I' for Inactive)
REMARK    1  A    between atoms: C12_14  and  N3_15 
REMARK    2  A    between atoms: N4_16  and  C13_17 
REMARK    3  A    between atoms: C14_19  and  C15_20 
REMARK    4  A    between atoms: C15_20  and  C16_21 
REMARK    5  A    between atoms: C16_21  and  N5_22 
ROOT
HETATM    1  C1  UNL     1      13.065  -2.851  48.685  1.00  0.00     0.050 C 
HETATM    2  C2  UNL     1      13.862  -2.974  49.925  1.00  0.00    -0.033 A 
HETATM    3  C3  UNL     1      13.980  -4.149  50.617  1.00  0.00     0.009 A 
HETATM    4  C4  UNL     1      14.711  -4.265  51.776  1.00  0.00     0.003 A 
HETATM    5  C5  UNL     1      15.364  -3.175  52.290  1.00  0.00     0.032 A 
HETATM    6  C6  UNL     1      15.251  -2.026  51.619  1.00  0.00     0.068 A 
HETATM    7  C7  UNL     1      14.504  -1.856  50.411  1.00  0.00     0.067 A 
HETATM    8  N1  UNL     1      14.234  -0.736  49.489  1.00  0.00    -0.331 N 
HETATM    9  C8  UNL     1      14.568   0.495  50.203  1.00  0.00     0.175 C 
HETATM   10  N2  UNL     1      15.721   0.803  50.075  1.00  0.00    -0.402 NA
HETATM   11  C9  UNL     1      16.994   1.025  49.855  1.00  0.00     0.196 C 
HETATM   12  C10 UNL     1      17.692   0.422  50.762  1.00  0.00     0.025 C 
HETATM   13  C11 UNL     1      17.286  -0.401  51.900  1.00  0.00     0.095 C 
HETATM   14  C12 UNL     1      18.286  -0.709  52.670  1.00  0.00     0.132 C 
HETATM   15  N4  UNL     1      19.461  -0.123  52.139  1.00  0.00    -0.304 N 
HETATM   16  C19 UNL     1      19.173   0.434  50.838  1.00  0.00     0.127 C 
HETATM   17  C20 UNL     1      19.583   1.913  50.785  1.00  0.00     0.038 C 
HETATM   18  N6  UNL     1      15.906  -0.814  52.126  1.00  0.00    -0.300 N 
HETATM   19  C21 UNL     1      15.234   0.221  52.933  1.00  0.00     0.209 C 
HETATM   20  N7  UNL     1      14.422   1.193  52.497  1.00  0.00    -0.276 NA
HETATM   21  C22 UNL     1      13.869   1.460  51.146  1.00  0.00     0.242 C 
HETATM   22  H7  UNL     1      13.888  -0.965  48.556  1.00  0.00     0.168 HD
ENDROOT
BRANCH  15  23
HETATM   23  C13 UNL     1      20.680  -0.103  52.803  1.00  0.00     0.153 A 
HETATM   24  O1  UNL     1      21.725  -0.357  52.109  1.00  0.00    -0.323 OA
HETATM   25  C14 UNL     1      21.819  -0.045  53.608  1.00  0.00     0.211 A 
BRANCH  25  26
HETATM   26  C15 UNL     1      23.049  -0.255  53.193  1.00  0.00     0.060 C 
BRANCH  26  27
HETATM   27  C16 UNL     1      24.070  -0.550  54.219  1.00  0.00     0.279 C 
BRANCH  27  28
HETATM   28  N5  UNL     1      25.395  -0.354  53.690  1.00  0.00     0.080 N 
HETATM   29  C17 UNL     1      26.355   0.096  54.649  1.00  0.00     0.309 C 
HETATM   30  C18 UNL     1      25.433   0.484  52.526  1.00  0.00     0.309 C 
ENDBRANCH  27  28
ENDBRANCH  26  27
ENDBRANCH  25  26
ENDBRANCH  15  23
BRANCH  14  31
HETATM   31  N3  UNL     1      18.257  -1.498  53.868  1.00  0.00    -0.383 N 
HETATM   32  H9  UNL     1      17.994  -2.509  53.878  1.00  0.00     0.157 HD
HETATM   33  H10 UNL     1      18.508  -1.059  54.785  1.00  0.00     0.157 HD
ENDBRANCH  14  31
TORSDOF 5
ENDMDL
