MODEL 1
REMARK VINA RESULT:      -9.5      0.000      0.000
REMARK  3 active torsions:
REMARK  status: ('A' for Active; 'I' for Inactive)
REMARK    1  A    between atoms: C5_5  and  P1_6 
REMARK    2  A    between atoms: C12_14  and  C13_15 
REMARK    3  A    between atoms: C16_18  and  S1_19 
ROOT
HETATM    1  P1  UNL     1      25.466   2.279  51.601  1.00  0.00    -0.054 P 
HETATM    2  C6  UNL     1      25.221   1.661  52.161  1.00  0.00    -0.052 A 
HETATM    3  C7  UNL     1      24.909   0.806  52.943  1.00  0.00     0.116 A 
HETATM    4  C8  UNL     1      26.587   0.530  53.204  1.00  0.00     0.055 A 
HETATM    5  C9  UNL     1      27.224   1.577  52.310  1.00  0.00     0.080 A 
HETATM    6  C10 UNL     1      25.648   2.694  51.227  1.00  0.00     0.081 A 
HETATM    7  O1  UNL     1      26.424  -0.464  54.044  1.00  0.00    -0.329 OA
HETATM    8  C11 UNL     1      25.111  -0.836  54.152  1.00  0.00     0.151 C 
HETATM    9  C12 UNL     1      24.219  -0.152  53.495  1.00  0.00    -0.008 C 
ENDROOT
BRANCH   9  10
HETATM   10  C13 UNL     1      22.796  -0.231  53.263  1.00  0.00    -0.027 A 
HETATM   11  C14 UNL     1      22.072   0.339  52.257  1.00  0.00     0.013 A 
HETATM   12  C15 UNL     1      20.713   0.160  52.187  1.00  0.00     0.022 A 
HETATM   13  C16 UNL     1      20.096  -0.604  53.148  1.00  0.00     0.031 A 
HETATM   14  C18 UNL     1      20.764  -1.220  54.206  1.00  0.00     0.022 A 
HETATM   15  C19 UNL     1      22.129  -0.985  54.197  1.00  0.00     0.013 A 
BRANCH  13  16
HETATM   16  S1  UNL     1      18.334  -0.847  53.099  1.00  0.00     0.045 S 
HETATM   17  C17 UNL     1      18.028  -2.539  53.684  1.00  0.00     0.133 C 
HETATM   18  O2  UNL     1      17.861  -0.693  51.654  1.00  0.00    -0.253 OA
ENDBRANCH  13  16
ENDBRANCH   9  10
BRANCH   1  19
HETATM   19  C5  UNL     1      26.156   4.189  49.858  1.00  0.00     0.076 A 
HETATM   20  C4  UNL     1      25.236   5.106  49.419  1.00  0.00     0.040 A 
HETATM   21  C3  UNL     1      26.241   5.639  48.708  1.00  0.00     0.035 A 
HETATM   22  C2  UNL     1      27.505   5.172  48.693  1.00  0.00     0.050 A 
HETATM   23  C1  UNL     1      28.877   5.239  48.238  1.00  0.00     0.076 C 
HETATM   24  O3  UNL     1      27.445   4.169  49.485  1.00  0.00    -0.315 OA
ENDBRANCH   1  19
TORSDOF 3
ENDMDL
MODEL 2
REMARK VINA RESULT:      -9.2      2.631      7.940
REMARK  3 active torsions:
REMARK  status: ('A' for Active; 'I' for Inactive)
REMARK    1  A    between atoms: C5_5  and  P1_6 
REMARK    2  A    between atoms: C12_14  and  C13_15 
REMARK    3  A    between atoms: C16_18  and  S1_19 
ROOT
HETATM    1  P1  UNL     1      22.130  -0.515  53.448  1.00  0.00    -0.054 P 
HETATM    2  C6  UNL     1      22.981  -0.355  53.522  1.00  0.00    -0.052 A 
HETATM    3  C7  UNL     1      24.157  -0.154  53.646  1.00  0.00     0.116 A 
HETATM    4  C8  UNL     1      24.096  -1.087  55.090  1.00  0.00     0.055 A 
HETATM    5  C9  UNL     1      22.640  -1.514  55.130  1.00  0.00     0.080 A 
HETATM    6  C10 UNL     1      21.556  -0.634  53.411  1.00  0.00     0.081 A 
HETATM    7  O1  UNL     1      25.359  -0.922  55.403  1.00  0.00    -0.329 OA
HETATM    8  C11 UNL     1      25.986  -0.039  54.565  1.00  0.00     0.151 C 
HETATM    9  C12 UNL     1      25.308   0.455  53.570  1.00  0.00    -0.008 C 
ENDROOT
BRANCH   9  10
HETATM   10  C13 UNL     1      25.529   1.434  52.531  1.00  0.00    -0.027 A 
HETATM   11  C14 UNL     1      26.530   1.468  51.605  1.00  0.00     0.013 A 
HETATM   12  C15 UNL     1      26.590   2.482  50.680  1.00  0.00     0.022 A 
HETATM   13  C16 UNL     1      25.623   3.458  50.704  1.00  0.00     0.031 A 
HETATM   14  C18 UNL     1      24.569   3.492  51.617  1.00  0.00     0.022 A 
HETATM   15  C19 UNL     1      24.589   2.433  52.510  1.00  0.00     0.013 A 
BRANCH  13  16
HETATM   16  S1  UNL     1      25.676   4.794  49.531  1.00  0.00     0.045 S 
HETATM   17  C17 UNL     1      27.333   4.766  48.788  1.00  0.00     0.133 C 
HETATM   18  O2  UNL     1      25.452   6.108  50.279  1.00  0.00    -0.253 OA
ENDBRANCH  13  16
ENDBRANCH   9  10
BRANCH   1  19
HETATM   19  C5  UNL     1      19.508  -0.965  53.166  1.00  0.00     0.076 A 
HETATM   20  C4  UNL     1      18.694  -0.035  52.572  1.00  0.00     0.040 A 
HETATM   21  C3  UNL     1      17.698  -0.911  52.771  1.00  0.00     0.035 A 
HETATM   22  C2  UNL     1      17.839  -2.117  53.356  1.00  0.00     0.050 A 
HETATM   23  C1  UNL     1      17.293  -3.374  53.819  1.00  0.00     0.076 C 
HETATM   24  O3  UNL     1      19.088  -2.152  53.632  1.00  0.00    -0.315 OA
ENDBRANCH   1  19
TORSDOF 3
ENDMDL
MODEL 3
REMARK VINA RESULT:      -9.2      4.884      9.450
REMARK  3 active torsions:
REMARK  status: ('A' for Active; 'I' for Inactive)
REMARK    1  A    between atoms: C5_5  and  P1_6 
REMARK    2  A    between atoms: C12_14  and  C13_15 
REMARK    3  A    between atoms: C16_18  and  S1_19 
ROOT
HETATM    1  P1  UNL     1      26.289   2.585  50.985  1.00  0.00    -0.054 P 
HETATM    2  C6  UNL     1      26.065   3.294  50.536  1.00  0.00    -0.052 A 
HETATM    3  C7  UNL     1      25.728   4.268  49.921  1.00  0.00     0.116 A 
HETATM    4  C8  UNL     1      24.115   3.674  49.999  1.00  0.00     0.055 A 
HETATM    5  C9  UNL     1      24.283   2.403  50.810  1.00  0.00     0.080 A 
HETATM    6  C10 UNL     1      26.424   2.101  51.291  1.00  0.00     0.081 A 
HETATM    7  O1  UNL     1      23.587   4.646  49.294  1.00  0.00    -0.329 OA
HETATM    8  C11 UNL     1      24.539   5.481  48.774  1.00  0.00     0.151 C 
HETATM    9  C12 UNL     1      25.785   5.264  49.081  1.00  0.00    -0.008 C 
ENDROOT
BRANCH   9  10
HETATM   10  C13 UNL     1      27.069   5.817  48.718  1.00  0.00    -0.027 A 
HETATM   11  C14 UNL     1      28.230   5.152  48.456  1.00  0.00     0.013 A 
HETATM   12  C15 UNL     1      29.370   5.842  48.122  1.00  0.00     0.022 A 
HETATM   13  C16 UNL     1      29.317   7.214  48.055  1.00  0.00     0.031 A 
HETATM   14  C18 UNL     1      28.169   7.965  48.308  1.00  0.00     0.022 A 
HETATM   15  C19 UNL     1      27.071   7.187  48.637  1.00  0.00     0.013 A 
BRANCH  13  16
HETATM   16  S1  UNL     1      30.776   8.143  47.640  1.00  0.00     0.045 S 
HETATM   17  C17 UNL     1      31.937   7.928  49.021  1.00  0.00     0.133 C 
HETATM   18  O2  UNL     1      30.391   9.615  47.496  1.00  0.00    -0.253 OA
ENDBRANCH  13  16
ENDBRANCH   9  10
BRANCH   1  19
HETATM   19  C5  UNL     1      27.045   0.417  52.359  1.00  0.00     0.076 A 
HETATM   20  C4  UNL     1      26.174  -0.621  52.572  1.00  0.00     0.040 A 
HETATM   21  C3  UNL     1      27.187  -1.221  53.213  1.00  0.00     0.035 A 
HETATM   22  C2  UNL     1      28.416  -0.693  53.376  1.00  0.00     0.050 A 
HETATM   23  C1  UNL     1      29.773  -0.766  53.872  1.00  0.00     0.076 C 
HETATM   24  O3  UNL     1      28.316   0.440  52.789  1.00  0.00    -0.315 OA
ENDBRANCH   1  19
TORSDOF 3
ENDMDL
MODEL 4
REMARK VINA RESULT:      -9.1      3.643      5.093
REMARK  3 active torsions:
REMARK  status: ('A' for Active; 'I' for Inactive)
REMARK    1  A    between atoms: C5_5  and  P1_6 
REMARK    2  A    between atoms: C12_14  and  C13_15 
REMARK    3  A    between atoms: C16_18  and  S1_19 
ROOT
HETATM    1  P1  UNL     1      24.597  -0.007  53.694  1.00  0.00    -0.054 P 
HETATM    2  C6  UNL     1      23.738  -0.137  53.697  1.00  0.00    -0.052 A 
HETATM    3  C7  UNL     1      22.554  -0.329  53.725  1.00  0.00     0.116 A 
HETATM    4  C8  UNL     1      22.832  -1.421  55.025  1.00  0.00     0.055 A 
HETATM    5  C9  UNL     1      24.334  -1.314  55.214  1.00  0.00     0.080 A 
HETATM    6  C10 UNL     1      25.180   0.070  53.706  1.00  0.00     0.081 A 
HETATM    7  O1  UNL     1      21.579  -1.784  55.157  1.00  0.00    -0.329 OA
HETATM    8  C11 UNL     1      20.784  -1.261  54.173  1.00  0.00     0.151 C 
HETATM    9  C12 UNL     1      21.326  -0.454  53.306  1.00  0.00    -0.008 C 
ENDROOT
BRANCH   9  10
HETATM   10  C13 UNL     1      20.906   0.237  52.109  1.00  0.00    -0.027 A 
HETATM   11  C14 UNL     1      21.503   0.237  50.883  1.00  0.00     0.013 A 
HETATM   12  C15 UNL     1      20.964   0.957  49.845  1.00  0.00     0.022 A 
HETATM   13  C16 UNL     1      19.814   1.676  50.066  1.00  0.00     0.031 A 
HETATM   14  C18 UNL     1      19.145   1.726  51.288  1.00  0.00     0.022 A 
HETATM   15  C19 UNL     1      19.759   0.972  52.275  1.00  0.00     0.013 A 
BRANCH  13  16
HETATM   16  S1  UNL     1      19.094   2.633  48.750  1.00  0.00     0.045 S 
HETATM   17  C17 UNL     1      20.433   2.982  47.572  1.00  0.00     0.133 C 
HETATM   18  O2  UNL     1      18.551   3.936  49.335  1.00  0.00    -0.253 OA
ENDBRANCH  13  16
ENDBRANCH   9  10
BRANCH   1  19
HETATM   19  C5  UNL     1      27.237   0.428  53.629  1.00  0.00     0.076 A 
HETATM   20  C4  UNL     1      27.738   1.699  53.513  1.00  0.00     0.040 A 
HETATM   21  C3  UNL     1      28.950   1.131  53.576  1.00  0.00     0.035 A 
HETATM   22  C2  UNL     1      29.174  -0.193  53.700  1.00  0.00     0.050 A 
HETATM   23  C1  UNL     1      30.071  -1.323  53.816  1.00  0.00     0.076 C 
HETATM   24  O3  UNL     1      27.991  -0.678  53.734  1.00  0.00    -0.315 OA
ENDBRANCH   1  19
TORSDOF 3
ENDMDL
MODEL 5
REMARK VINA RESULT:      -8.8      1.087      1.474
REMARK  3 active torsions:
REMARK  status: ('A' for Active; 'I' for Inactive)
REMARK    1  A    between atoms: C5_5  and  P1_6 
REMARK    2  A    between atoms: C12_14  and  C13_15 
REMARK    3  A    between atoms: C16_18  and  S1_19 
ROOT
HETATM    1  P1  UNL     1      25.223   2.630  51.324  1.00  0.00    -0.054 P 
HETATM    2  C6  UNL     1      24.896   1.994  51.818  1.00  0.00    -0.052 A 
HETATM    3  C7  UNL     1      24.471   1.113  52.512  1.00  0.00     0.116 A 
HETATM    4  C8  UNL     1      26.100   0.749  52.929  1.00  0.00     0.055 A 
HETATM    5  C9  UNL     1      26.868   1.814  52.168  1.00  0.00     0.080 A 
HETATM    6  C10 UNL     1      25.460   3.057  50.996  1.00  0.00     0.081 A 
HETATM    7  O1  UNL     1      25.811  -0.281  53.688  1.00  0.00    -0.329 OA
HETATM    8  C11 UNL     1      24.481  -0.600  53.638  1.00  0.00     0.151 C 
HETATM    9  C12 UNL     1      23.690   0.157  52.933  1.00  0.00    -0.008 C 
ENDROOT
BRANCH   9  10
HETATM   10  C13 UNL     1      22.298   0.154  52.551  1.00  0.00    -0.027 A 
HETATM   11  C14 UNL     1      21.750   0.523  51.358  1.00  0.00     0.013 A 
HETATM   12  C15 UNL     1      20.392   0.457  51.163  1.00  0.00     0.022 A 
HETATM   13  C16 UNL     1      19.597   0.011  52.192  1.00  0.00     0.031 A 
HETATM   14  C18 UNL     1      20.081  -0.384  53.439  1.00  0.00     0.022 A 
HETATM   15  C19 UNL     1      21.458  -0.284  53.545  1.00  0.00     0.013 A 
BRANCH  13  16
HETATM   16  S1  UNL     1      17.833  -0.074  51.983  1.00  0.00     0.045 S 
HETATM   17  C17 UNL     1      17.254  -1.449  53.020  1.00  0.00     0.133 C 
HETATM   18  O2  UNL     1      17.530  -0.357  50.512  1.00  0.00    -0.253 OA
ENDBRANCH  13  16
ENDBRANCH   9  10
BRANCH   1  19
HETATM   19  C5  UNL     1      26.166   4.599  49.777  1.00  0.00     0.076 A 
HETATM   20  C4  UNL     1      27.245   4.394  48.955  1.00  0.00     0.040 A 
HETATM   21  C3  UNL     1      27.079   5.667  48.569  1.00  0.00     0.035 A 
HETATM   22  C2  UNL     1      26.122   6.495  49.034  1.00  0.00     0.050 A 
HETATM   23  C1  UNL     1      25.458   7.779  49.058  1.00  0.00     0.076 C 
HETATM   24  O3  UNL     1      25.494   5.757  49.871  1.00  0.00    -0.315 OA
ENDBRANCH   1  19
TORSDOF 3
ENDMDL
MODEL 6
REMARK VINA RESULT:      -8.8      2.001      2.498
REMARK  3 active torsions:
REMARK  status: ('A' for Active; 'I' for Inactive)
REMARK    1  A    between atoms: C5_5  and  P1_6 
REMARK    2  A    between atoms: C12_14  and  C13_15 
REMARK    3  A    between atoms: C16_18  and  S1_19 
ROOT
HETATM    1  P1  UNL     1      25.293   3.047  50.833  1.00  0.00    -0.054 P 
HETATM    2  C6  UNL     1      24.869   2.462  51.316  1.00  0.00    -0.052 A 
HETATM    3  C7  UNL     1      24.309   1.647  51.994  1.00  0.00     0.116 A 
HETATM    4  C8  UNL     1      25.857   1.000  52.375  1.00  0.00     0.055 A 
HETATM    5  C9  UNL     1      26.786   1.940  51.629  1.00  0.00     0.080 A 
HETATM    6  C10 UNL     1      25.595   3.437  50.513  1.00  0.00     0.081 A 
HETATM    7  O1  UNL     1      25.406   0.013  53.111  1.00  0.00    -0.329 OA
HETATM    8  C11 UNL     1      24.040  -0.074  53.075  1.00  0.00     0.151 C 
HETATM    9  C12 UNL     1      23.382   0.826  52.403  1.00  0.00    -0.008 C 
ENDROOT
BRANCH   9  10
HETATM   10  C13 UNL     1      22.004   1.070  52.043  1.00  0.00    -0.027 A 
HETATM   11  C14 UNL     1      21.179   0.291  51.287  1.00  0.00     0.013 A 
HETATM   12  C15 UNL     1      19.885   0.678  51.041  1.00  0.00     0.022 A 
HETATM   13  C16 UNL     1      19.437   1.864  51.574  1.00  0.00     0.031 A 
HETATM   14  C18 UNL     1      20.217   2.713  52.357  1.00  0.00     0.022 A 
HETATM   15  C19 UNL     1      21.506   2.244  52.551  1.00  0.00     0.013 A 
BRANCH  13  16
HETATM   16  S1  UNL     1      17.771   2.406  51.266  1.00  0.00     0.045 S 
HETATM   17  C17 UNL     1      17.631   2.656  49.472  1.00  0.00     0.133 C 
HETATM   18  O2  UNL     1      17.543   3.724  52.004  1.00  0.00    -0.253 OA
ENDBRANCH  13  16
ENDBRANCH   9  10
BRANCH   1  19
HETATM   19  C5  UNL     1      26.540   4.871  49.323  1.00  0.00     0.076 A 
HETATM   20  C4  UNL     1      25.879   5.990  48.882  1.00  0.00     0.040 A 
HETATM   21  C3  UNL     1      27.040   6.339  48.310  1.00  0.00     0.035 A 
HETATM   22  C2  UNL     1      28.176   5.615  48.367  1.00  0.00     0.050 A 
HETATM   23  C1  UNL     1      29.572   5.416  48.042  1.00  0.00     0.076 C 
HETATM   24  O3  UNL     1      27.828   4.600  49.064  1.00  0.00    -0.315 OA
ENDBRANCH   1  19
TORSDOF 3
ENDMDL
MODEL 7
REMARK VINA RESULT:      -8.4      3.580      8.382
REMARK  3 active torsions:
REMARK  status: ('A' for Active; 'I' for Inactive)
REMARK    1  A    between atoms: C5_5  and  P1_6 
REMARK    2  A    between atoms: C12_14  and  C13_15 
REMARK    3  A    between atoms: C16_18  and  S1_19 
ROOT
HETATM    1  P1  UNL     1      20.048   0.927  52.490  1.00  0.00    -0.054 P 
HETATM    2  C6  UNL     1      20.741   1.452  52.464  1.00  0.00    -0.052 A 
HETATM    3  C7  UNL     1      21.680   2.197  52.424  1.00  0.00     0.116 A 
HETATM    4  C8  UNL     1      20.606   3.406  51.835  1.00  0.00     0.055 A 
HETATM    5  C9  UNL     1      19.275   2.678  51.839  1.00  0.00     0.080 A 
HETATM    6  C10 UNL     1      19.569   0.586  52.504  1.00  0.00     0.081 A 
HETATM    7  O1  UNL     1      21.525   4.329  51.680  1.00  0.00    -0.329 OA
HETATM    8  C11 UNL     1      22.785   3.844  51.906  1.00  0.00     0.151 C 
HETATM    9  C12 UNL     1      22.911   2.607  52.293  1.00  0.00    -0.008 C 
ENDROOT
BRANCH   9  10
HETATM   10  C13 UNL     1      23.998   1.695  52.560  1.00  0.00    -0.027 A 
HETATM   11  C14 UNL     1      23.972   0.542  53.287  1.00  0.00     0.013 A 
HETATM   12  C15 UNL     1      25.109  -0.213  53.442  1.00  0.00     0.022 A 
HETATM   13  C16 UNL     1      26.272   0.216  52.848  1.00  0.00     0.031 A 
HETATM   14  C18 UNL     1      26.380   1.381  52.089  1.00  0.00     0.022 A 
HETATM   15  C19 UNL     1      25.186   2.077  51.988  1.00  0.00     0.013 A 
BRANCH  13  16
HETATM   16  S1  UNL     1      27.769  -0.726  53.038  1.00  0.00     0.045 S 
HETATM   17  C17 UNL     1      27.363  -2.439  52.590  1.00  0.00     0.133 C 
HETATM   18  O2  UNL     1      28.211  -0.651  54.499  1.00  0.00    -0.253 OA
ENDBRANCH  13  16
ENDBRANCH   9  10
BRANCH   1  19
HETATM   19  C5  UNL     1      17.957  -0.739  52.586  1.00  0.00     0.076 A 
HETATM   20  C4  UNL     1      16.755  -0.393  52.023  1.00  0.00     0.040 A 
HETATM   21  C3  UNL     1      16.323  -1.598  52.422  1.00  0.00     0.035 A 
HETATM   22  C2  UNL     1      17.070  -2.502  53.087  1.00  0.00     0.050 A 
HETATM   23  C1  UNL     1      17.234  -3.792  53.722  1.00  0.00     0.076 C 
HETATM   24  O3  UNL     1      18.197  -1.907  53.202  1.00  0.00    -0.315 OA
ENDBRANCH   1  19
TORSDOF 3
ENDMDL
MODEL 8
REMARK VINA RESULT:      -8.2      2.965      7.846
REMARK  3 active torsions:
REMARK  status: ('A' for Active; 'I' for Inactive)
REMARK    1  A    between atoms: C5_5  and  P1_6 
REMARK    2  A    between atoms: C12_14  and  C13_15 
REMARK    3  A    between atoms: C16_18  and  S1_19 
ROOT
HETATM    1  P1  UNL     1      21.926   0.635  51.865  1.00  0.00    -0.054 P 
HETATM    2  C6  UNL     1      22.770   0.776  52.014  1.00  0.00    -0.052 A 
HETATM    3  C7  UNL     1      23.936   0.949  52.239  1.00  0.00     0.116 A 
HETATM    4  C8  UNL     1      23.769  -0.127  53.570  1.00  0.00     0.055 A 
HETATM    5  C9  UNL     1      22.313  -0.539  53.466  1.00  0.00     0.080 A 
HETATM    6  C10 UNL     1      21.355   0.527  51.777  1.00  0.00     0.081 A 
HETATM    7  O1  UNL     1      25.008  -0.011  53.985  1.00  0.00    -0.329 OA
HETATM    8  C11 UNL     1      25.696   0.947  53.289  1.00  0.00     0.151 C 
HETATM    9  C12 UNL     1      25.092   1.550  52.306  1.00  0.00    -0.008 C 
ENDROOT
BRANCH   9  10
HETATM   10  C13 UNL     1      25.390   2.627  51.391  1.00  0.00    -0.027 A 
HETATM   11  C14 UNL     1      26.413   2.713  50.494  1.00  0.00     0.013 A 
HETATM   12  C15 UNL     1      26.549   3.821  49.694  1.00  0.00     0.022 A 
HETATM   13  C16 UNL     1      25.635   4.840  49.814  1.00  0.00     0.031 A 
HETATM   14  C18 UNL     1      24.562   4.826  50.705  1.00  0.00     0.022 A 
HETATM   15  C19 UNL     1      24.504   3.673  51.470  1.00  0.00     0.013 A 
BRANCH  13  16
HETATM   16  S1  UNL     1      25.786   6.297  48.806  1.00  0.00     0.045 S 
HETATM   17  C17 UNL     1      26.136   7.675  49.936  1.00  0.00     0.133 C 
HETATM   18  O2  UNL     1      24.460   6.529  48.083  1.00  0.00    -0.253 OA
ENDBRANCH  13  16
ENDBRANCH   9  10
BRANCH   1  19
HETATM   19  C5  UNL     1      19.327   0.248  51.359  1.00  0.00     0.076 A 
HETATM   20  C4  UNL     1      18.740   0.785  50.241  1.00  0.00     0.040 A 
HETATM   21  C3  UNL     1      17.613   0.190  50.658  1.00  0.00     0.035 A 
HETATM   22  C2  UNL     1      17.502  -0.550  51.779  1.00  0.00     0.050 A 
HETATM   23  C1  UNL     1      16.726  -1.360  52.692  1.00  0.00     0.076 C 
HETATM   24  O3  UNL     1      18.685  -0.507  52.264  1.00  0.00    -0.315 OA
ENDBRANCH   1  19
TORSDOF 3
ENDMDL
MODEL 9
REMARK VINA RESULT:      -8.0      2.218      3.115
REMARK  3 active torsions:
REMARK  status: ('A' for Active; 'I' for Inactive)
REMARK    1  A    between atoms: C5_5  and  P1_6 
REMARK    2  A    between atoms: C12_14  and  C13_15 
REMARK    3  A    between atoms: C16_18  and  S1_19 
ROOT
HETATM    1  P1  UNL     1      23.655   1.705  51.698  1.00  0.00    -0.054 P 
HETATM    2  C6  UNL     1      23.132   1.174  52.146  1.00  0.00    -0.052 A 
HETATM    3  C7  UNL     1      22.433   0.435  52.781  1.00  0.00     0.116 A 
HETATM    4  C8  UNL     1      23.861  -0.157  53.535  1.00  0.00     0.055 A 
HETATM    5  C9  UNL     1      24.937   0.700  52.895  1.00  0.00     0.080 A 
HETATM    6  C10 UNL     1      24.022   2.058  51.404  1.00  0.00     0.081 A 
HETATM    7  O1  UNL     1      23.254  -1.060  54.268  1.00  0.00    -0.329 OA
HETATM    8  C11 UNL     1      21.922  -1.158  53.966  1.00  0.00     0.151 C 
HETATM    9  C12 UNL     1      21.428  -0.341  53.080  1.00  0.00    -0.008 C 
ENDROOT
BRANCH   9  10
HETATM   10  C13 UNL     1      20.156  -0.145  52.425  1.00  0.00    -0.027 A 
HETATM   11  C14 UNL     1      18.914  -0.478  52.879  1.00  0.00     0.013 A 
HETATM   12  C15 UNL     1      17.800  -0.217  52.119  1.00  0.00     0.022 A 
HETATM   13  C16 UNL     1      17.961   0.386  50.895  1.00  0.00     0.031 A 
HETATM   14  C18 UNL     1      19.195   0.757  50.362  1.00  0.00     0.022 A 
HETATM   15  C19 UNL     1      20.260   0.456  51.195  1.00  0.00     0.013 A 
BRANCH  13  16
HETATM   16  S1  UNL     1      16.543   0.727  49.876  1.00  0.00     0.045 S 
HETATM   17  C17 UNL     1      16.094  -0.840  49.073  1.00  0.00     0.133 C 
HETATM   18  O2  UNL     1      16.936   1.765  48.826  1.00  0.00    -0.253 OA
ENDBRANCH  13  16
ENDBRANCH   9  10
BRANCH   1  19
HETATM   19  C5  UNL     1      25.211   3.358  50.281  1.00  0.00     0.076 A 
HETATM   20  C4  UNL     1      26.528   3.056  50.046  1.00  0.00     0.040 A 
HETATM   21  C3  UNL     1      26.574   4.203  49.353  1.00  0.00     0.035 A 
HETATM   22  C2  UNL     1      25.533   5.043  49.185  1.00  0.00     0.050 A 
HETATM   23  C1  UNL     1      24.955   6.255  48.646  1.00  0.00     0.076 C 
HETATM   24  O3  UNL     1      24.593   4.461  49.829  1.00  0.00    -0.315 OA
ENDBRANCH   1  19
TORSDOF 3
ENDMDL
