MODEL 1
REMARK VINA RESULT:      -7.5      0.000      0.000
REMARK  7 active torsions:
REMARK  status: ('A' for Active; 'I' for Inactive)
REMARK    1  A    between atoms: C2_2  and  N1_9 
REMARK    2  A    between atoms: C3_3  and  C4_4 
REMARK    3  A    between atoms: C4_4  and  C5_5 
REMARK    4  A    between atoms: C5_5  and  C6_6 
REMARK    5  A    between atoms: C6_6  and  C7_7 
REMARK    6  A    between atoms: C7_7  and  O1_8 
REMARK    7  A    between atoms: N1_9  and  C8_10 
ROOT
HETATM    1  C8  UNL     1      25.438   0.467  52.216  1.00  0.00     0.142 A 
HETATM    2  N2  UNL     1      26.378   1.223  51.644  1.00  0.00    -0.223 NA
HETATM    3  C9  UNL     1      26.259   2.469  51.215  1.00  0.00     0.236 A 
HETATM    4  N3  UNL     1      25.063   3.055  51.365  1.00  0.00    -0.234 NA
HETATM    5  C10 UNL     1      24.070   2.333  51.941  1.00  0.00     0.114 A 
HETATM    6  S1  UNL     1      22.275   2.751  52.332  1.00  0.00    -0.072 SA
HETATM    7  C11 UNL     1      21.883   1.244  53.013  1.00  0.00     0.020 A 
HETATM    8  C12 UNL     1      23.063   0.428  52.958  1.00  0.00    -0.025 A 
HETATM    9  C13 UNL     1      24.185   0.975  52.414  1.00  0.00     0.053 A 
HETATM   10  C14 UNL     1      22.819  -0.895  53.524  1.00  0.00     0.070 C 
HETATM   11  C15 UNL     1      22.082  -0.767  54.815  1.00  0.00     0.274 C 
HETATM   12  N4  UNL     1      20.801  -0.169  54.662  1.00  0.00     0.088 N 
HETATM   13  C16 UNL     1      20.639   0.743  53.577  1.00  0.00     0.316 C 
HETATM   14  H16 UNL     1      20.432   0.155  55.570  1.00  0.00     0.316 HD
ENDROOT
BRANCH   1  15
HETATM   15  N1  UNL     1      25.785  -0.858  52.608  1.00  0.00    -0.343 N 
HETATM   16  H10 UNL     1      25.586  -1.788  52.244  1.00  0.00     0.167 HD
BRANCH  15  17
HETATM   17  C2  UNL     1      26.570  -0.645  53.766  1.00  0.00     0.018 C 
HETATM   18  C1  UNL     1      26.348   0.042  55.046  1.00  0.00     0.069 C 
HETATM   19  C3  UNL     1      27.790  -1.175  53.693  1.00  0.00    -0.002 C 
BRANCH  19  20
HETATM   20  C4  UNL     1      29.071  -1.271  53.374  1.00  0.00     0.014 C 
BRANCH  20  21
HETATM   21  C5  UNL     1      29.542   0.050  53.515  1.00  0.00    -0.001 C 
BRANCH  21  22
HETATM   22  C6  UNL     1      29.372   1.208  54.116  1.00  0.00    -0.001 C 
BRANCH  22  23
HETATM   23  C7  UNL     1      28.976   2.572  53.683  1.00  0.00     0.191 C 
BRANCH  23  24
HETATM   24  O1  UNL     1      27.714   2.876  54.179  1.00  0.00    -0.397 OA
HETATM   25  H9  UNL     1      27.284   3.656  53.716  1.00  0.00     0.209 HD
ENDBRANCH  23  24
ENDBRANCH  22  23
ENDBRANCH  21  22
ENDBRANCH  20  21
ENDBRANCH  19  20
ENDBRANCH  15  17
ENDBRANCH   1  15
TORSDOF 7
ENDMDL
MODEL 2
REMARK VINA RESULT:      -7.3      2.948      5.796
REMARK  7 active torsions:
REMARK  status: ('A' for Active; 'I' for Inactive)
REMARK    1  A    between atoms: C2_2  and  N1_9 
REMARK    2  A    between atoms: C3_3  and  C4_4 
REMARK    3  A    between atoms: C4_4  and  C5_5 
REMARK    4  A    between atoms: C5_5  and  C6_6 
REMARK    5  A    between atoms: C6_6  and  C7_7 
REMARK    6  A    between atoms: C7_7  and  O1_8 
REMARK    7  A    between atoms: N1_9  and  C8_10 
ROOT
HETATM    1  C8  UNL     1      24.336   2.371  52.493  1.00  0.00     0.142 A 
HETATM    2  N2  UNL     1      23.017   2.175  52.568  1.00  0.00    -0.223 NA
HETATM    3  C9  UNL     1      22.387   1.097  53.005  1.00  0.00     0.236 A 
HETATM    4  N3  UNL     1      23.145   0.075  53.425  1.00  0.00    -0.234 NA
HETATM    5  C10 UNL     1      24.492   0.219  53.372  1.00  0.00     0.114 A 
HETATM    6  S1  UNL     1      25.901  -0.939  53.842  1.00  0.00    -0.072 SA
HETATM    7  C11 UNL     1      27.158   0.121  53.412  1.00  0.00     0.020 A 
HETATM    8  C12 UNL     1      26.554   1.327  52.922  1.00  0.00    -0.025 A 
HETATM    9  C13 UNL     1      25.194   1.388  52.897  1.00  0.00     0.053 A 
HETATM   10  C14 UNL     1      27.563   2.303  52.523  1.00  0.00     0.070 C 
HETATM   11  C15 UNL     1      28.622   2.393  53.571  1.00  0.00     0.274 C 
HETATM   12  N4  UNL     1      29.320   1.168  53.758  1.00  0.00     0.088 N 
HETATM   13  C16 UNL     1      28.604  -0.033  53.472  1.00  0.00     0.316 C 
HETATM   14  H16 UNL     1      29.842   1.170  54.648  1.00  0.00     0.316 HD
ENDROOT
BRANCH   1  15
HETATM   15  N1  UNL     1      24.804   3.619  51.989  1.00  0.00    -0.343 N 
HETATM   16  H10 UNL     1      25.179   4.467  52.411  1.00  0.00     0.167 HD
BRANCH  15  17
HETATM   17  C2  UNL     1      24.635   3.474  50.591  1.00  0.00     0.018 C 
HETATM   18  C1  UNL     1      23.545   2.988  49.734  1.00  0.00     0.069 C 
HETATM   19  C3  UNL     1      25.694   3.854  49.880  1.00  0.00    -0.002 C 
BRANCH  19  20
HETATM   20  C4  UNL     1      26.884   3.766  49.304  1.00  0.00     0.014 C 
BRANCH  20  21
HETATM   21  C5  UNL     1      27.116   5.074  48.833  1.00  0.00    -0.001 C 
BRANCH  21  22
HETATM   22  C6  UNL     1      27.979   5.892  48.271  1.00  0.00    -0.001 C 
BRANCH  22  23
HETATM   23  C7  UNL     1      29.457   5.937  48.139  1.00  0.00     0.191 C 
BRANCH  23  24
HETATM   24  O1  UNL     1      30.050   5.573  49.342  1.00  0.00    -0.397 OA
HETATM   25  H9  UNL     1      29.385   5.383  50.069  1.00  0.00     0.209 HD
ENDBRANCH  23  24
ENDBRANCH  22  23
ENDBRANCH  21  22
ENDBRANCH  20  21
ENDBRANCH  19  20
ENDBRANCH  15  17
ENDBRANCH   1  15
TORSDOF 7
ENDMDL
MODEL 3
REMARK VINA RESULT:      -7.2      2.339      3.678
REMARK  7 active torsions:
REMARK  status: ('A' for Active; 'I' for Inactive)
REMARK    1  A    between atoms: C2_2  and  N1_9 
REMARK    2  A    between atoms: C3_3  and  C4_4 
REMARK    3  A    between atoms: C4_4  and  C5_5 
REMARK    4  A    between atoms: C5_5  and  C6_6 
REMARK    5  A    between atoms: C6_6  and  C7_7 
REMARK    6  A    between atoms: C7_7  and  O1_8 
REMARK    7  A    between atoms: N1_9  and  C8_10 
ROOT
HETATM    1  C8  UNL     1      24.228  -0.049  53.390  1.00  0.00     0.142 A 
HETATM    2  N2  UNL     1      24.768  -0.668  54.442  1.00  0.00    -0.223 NA
HETATM    3  C9  UNL     1      24.135  -1.304  55.415  1.00  0.00     0.236 A 
HETATM    4  N3  UNL     1      22.797  -1.340  55.352  1.00  0.00    -0.234 NA
HETATM    5  C10 UNL     1      22.194  -0.726  54.304  1.00  0.00     0.114 A 
HETATM    6  S1  UNL     1      20.380  -0.529  53.835  1.00  0.00    -0.072 SA
HETATM    7  C11 UNL     1      20.656   0.365  52.416  1.00  0.00     0.020 A 
HETATM    8  C12 UNL     1      22.076   0.524  52.278  1.00  0.00    -0.025 A 
HETATM    9  C13 UNL     1      22.870  -0.029  53.236  1.00  0.00     0.053 A 
HETATM   10  C14 UNL     1      22.410   1.287  51.080  1.00  0.00     0.070 C 
HETATM   11  C15 UNL     1      21.619   0.783  49.920  1.00  0.00     0.274 C 
HETATM   12  N4  UNL     1      20.217   0.938  50.099  1.00  0.00     0.088 N 
HETATM   13  C16 UNL     1      19.731   0.924  51.441  1.00  0.00     0.316 C 
HETATM   14  H16 UNL     1      19.690   0.351  49.433  1.00  0.00     0.316 HD
ENDROOT
BRANCH   1  15
HETATM   15  N1  UNL     1      25.101   0.575  52.453  1.00  0.00    -0.343 N 
HETATM   16  H10 UNL     1      25.490   0.310  51.549  1.00  0.00     0.167 HD
BRANCH  15  17
HETATM   17  C2  UNL     1      25.392   1.813  53.074  1.00  0.00     0.018 C 
HETATM   18  C1  UNL     1      24.596   2.995  53.429  1.00  0.00     0.069 C 
HETATM   19  C3  UNL     1      26.671   1.956  53.415  1.00  0.00    -0.002 C 
BRANCH  19  20
HETATM   20  C4  UNL     1      27.960   2.224  53.269  1.00  0.00     0.014 C 
BRANCH  20  21
HETATM   21  C5  UNL     1      28.593   1.056  53.740  1.00  0.00    -0.001 C 
BRANCH  21  22
HETATM   22  C6  UNL     1      28.466  -0.233  53.972  1.00  0.00    -0.001 C 
BRANCH  22  23
HETATM   23  C7  UNL     1      28.370  -1.451  53.130  1.00  0.00     0.191 C 
BRANCH  23  24
HETATM   24  O1  UNL     1      27.072  -1.945  53.160  1.00  0.00    -0.397 OA
HETATM   25  H9  UNL     1      27.007  -2.864  53.559  1.00  0.00     0.209 HD
ENDBRANCH  23  24
ENDBRANCH  22  23
ENDBRANCH  21  22
ENDBRANCH  20  21
ENDBRANCH  19  20
ENDBRANCH  15  17
ENDBRANCH   1  15
TORSDOF 7
ENDMDL
MODEL 4
REMARK VINA RESULT:      -7.2      2.309      3.927
REMARK  7 active torsions:
REMARK  status: ('A' for Active; 'I' for Inactive)
REMARK    1  A    between atoms: C2_2  and  N1_9 
REMARK    2  A    between atoms: C3_3  and  C4_4 
REMARK    3  A    between atoms: C4_4  and  C5_5 
REMARK    4  A    between atoms: C5_5  and  C6_6 
REMARK    5  A    between atoms: C6_6  and  C7_7 
REMARK    6  A    between atoms: C7_7  and  O1_8 
REMARK    7  A    between atoms: N1_9  and  C8_10 
ROOT
HETATM    1  C8  UNL     1      24.924   1.478  53.533  1.00  0.00     0.142 A 
HETATM    2  N2  UNL     1      25.200   0.212  53.854  1.00  0.00    -0.223 NA
HETATM    3  C9  UNL     1      24.411  -0.842  53.723  1.00  0.00     0.236 A 
HETATM    4  N3  UNL     1      23.190  -0.632  53.211  1.00  0.00    -0.234 NA
HETATM    5  C10 UNL     1      22.856   0.636  52.866  1.00  0.00     0.114 A 
HETATM    6  S1  UNL     1      21.282   1.368  52.135  1.00  0.00    -0.072 SA
HETATM    7  C11 UNL     1      21.836   2.974  52.083  1.00  0.00     0.020 A 
HETATM    8  C12 UNL     1      23.175   2.983  52.601  1.00  0.00    -0.025 A 
HETATM    9  C13 UNL     1      23.706   1.795  53.003  1.00  0.00     0.053 A 
HETATM   10  C14 UNL     1      23.736   4.330  52.596  1.00  0.00     0.070 C 
HETATM   11  C15 UNL     1      23.457   4.992  51.289  1.00  0.00     0.274 C 
HETATM   12  N4  UNL     1      22.066   5.151  51.036  1.00  0.00     0.088 N 
HETATM   13  C16 UNL     1      21.189   4.196  51.631  1.00  0.00     0.316 C 
HETATM   14  H16 UNL     1      21.891   5.351  50.039  1.00  0.00     0.316 HD
ENDROOT
BRANCH   1  15
HETATM   15  N1  UNL     1      25.929   2.464  53.755  1.00  0.00    -0.343 N 
HETATM   16  H10 UNL     1      26.062   3.211  54.435  1.00  0.00     0.167 HD
BRANCH  15  17
HETATM   17  C2  UNL     1      26.857   2.202  52.718  1.00  0.00     0.018 C 
HETATM   18  C1  UNL     1      26.754   2.065  51.259  1.00  0.00     0.069 C 
HETATM   19  C3  UNL     1      28.107   2.036  53.145  1.00  0.00    -0.002 C 
BRANCH  19  20
HETATM   20  C4  UNL     1      29.161   1.413  53.651  1.00  0.00     0.014 C 
BRANCH  20  21
HETATM   21  C5  UNL     1      28.718   0.082  53.788  1.00  0.00    -0.001 C 
BRANCH  21  22
HETATM   22  C6  UNL     1      28.915  -1.173  53.443  1.00  0.00    -0.001 C 
BRANCH  22  23
HETATM   23  C7  UNL     1      28.066  -2.264  52.904  1.00  0.00     0.191 C 
BRANCH  23  24
HETATM   24  O1  UNL     1      28.564  -3.496  53.313  1.00  0.00    -0.397 OA
HETATM   25  H9  UNL     1      28.147  -3.828  54.163  1.00  0.00     0.209 HD
ENDBRANCH  23  24
ENDBRANCH  22  23
ENDBRANCH  21  22
ENDBRANCH  20  21
ENDBRANCH  19  20
ENDBRANCH  15  17
ENDBRANCH   1  15
TORSDOF 7
ENDMDL
MODEL 5
REMARK VINA RESULT:      -6.9      2.748      5.235
REMARK  7 active torsions:
REMARK  status: ('A' for Active; 'I' for Inactive)
REMARK    1  A    between atoms: C2_2  and  N1_9 
REMARK    2  A    between atoms: C3_3  and  C4_4 
REMARK    3  A    between atoms: C4_4  and  C5_5 
REMARK    4  A    between atoms: C5_5  and  C6_6 
REMARK    5  A    between atoms: C6_6  and  C7_7 
REMARK    6  A    between atoms: C7_7  and  O1_8 
REMARK    7  A    between atoms: N1_9  and  C8_10 
ROOT
HETATM    1  C8  UNL     1      23.103   3.238  52.407  1.00  0.00     0.142 A 
HETATM    2  N2  UNL     1      21.862   3.681  52.189  1.00  0.00    -0.223 NA
HETATM    3  C9  UNL     1      20.734   2.996  52.286  1.00  0.00     0.236 A 
HETATM    4  N3  UNL     1      20.830   1.707  52.642  1.00  0.00    -0.234 NA
HETATM    5  C10 UNL     1      22.067   1.204  52.876  1.00  0.00     0.114 A 
HETATM    6  S1  UNL     1      22.652  -0.515  53.379  1.00  0.00    -0.072 SA
HETATM    7  C11 UNL     1      24.310  -0.141  53.407  1.00  0.00     0.020 A 
HETATM    8  C12 UNL     1      24.444   1.243  53.048  1.00  0.00    -0.025 A 
HETATM    9  C13 UNL     1      23.306   1.938  52.775  1.00  0.00     0.053 A 
HETATM   10  C14 UNL     1      25.844   1.656  53.042  1.00  0.00     0.070 C 
HETATM   11  C15 UNL     1      26.525   1.153  54.271  1.00  0.00     0.274 C 
HETATM   12  N4  UNL     1      26.541  -0.266  54.353  1.00  0.00     0.088 N 
HETATM   13  C16 UNL     1      25.472  -0.962  53.714  1.00  0.00     0.316 C 
HETATM   14  H16 UNL     1      26.762  -0.581  55.310  1.00  0.00     0.316 HD
ENDROOT
BRANCH   1  15
HETATM   15  N1  UNL     1      24.182   4.154  52.248  1.00  0.00    -0.343 N 
HETATM   16  H10 UNL     1      24.792   4.662  52.887  1.00  0.00     0.167 HD
BRANCH  15  17
HETATM   17  C2  UNL     1      24.290   4.267  50.841  1.00  0.00     0.018 C 
HETATM   18  C1  UNL     1      23.339   4.555  49.759  1.00  0.00     0.069 C 
HETATM   19  C3  UNL     1      25.522   4.066  50.378  1.00  0.00    -0.002 C 
BRANCH  19  20
HETATM   20  C4  UNL     1      26.586   3.393  49.968  1.00  0.00     0.014 C 
BRANCH  20  21
HETATM   21  C5  UNL     1      27.104   4.200  48.935  1.00  0.00    -0.001 C 
BRANCH  21  22
HETATM   22  C6  UNL     1      27.478   5.412  48.583  1.00  0.00    -0.001 C 
BRANCH  22  23
HETATM   23  C7  UNL     1      28.777   6.076  48.305  1.00  0.00     0.191 C 
BRANCH  23  24
HETATM   24  O1  UNL     1      29.761   5.555  49.136  1.00  0.00    -0.397 OA
HETATM   25  H9  UNL     1      30.206   6.250  49.706  1.00  0.00     0.209 HD
ENDBRANCH  23  24
ENDBRANCH  22  23
ENDBRANCH  21  22
ENDBRANCH  20  21
ENDBRANCH  19  20
ENDBRANCH  15  17
ENDBRANCH   1  15
TORSDOF 7
ENDMDL
MODEL 6
REMARK VINA RESULT:      -6.8      1.688      2.803
REMARK  7 active torsions:
REMARK  status: ('A' for Active; 'I' for Inactive)
REMARK    1  A    between atoms: C2_2  and  N1_9 
REMARK    2  A    between atoms: C3_3  and  C4_4 
REMARK    3  A    between atoms: C4_4  and  C5_5 
REMARK    4  A    between atoms: C5_5  and  C6_6 
REMARK    5  A    between atoms: C6_6  and  C7_7 
REMARK    6  A    between atoms: C7_7  and  O1_8 
REMARK    7  A    between atoms: N1_9  and  C8_10 
ROOT
HETATM    1  C8  UNL     1      23.847   3.137  52.729  1.00  0.00     0.142 A 
HETATM    2  N2  UNL     1      23.756   4.414  52.351  1.00  0.00    -0.223 NA
HETATM    3  C9  UNL     1      22.672   5.063  51.958  1.00  0.00     0.236 A 
HETATM    4  N3  UNL     1      21.523   4.373  51.930  1.00  0.00    -0.234 NA
HETATM    5  C10 UNL     1      21.557   3.070  52.304  1.00  0.00     0.114 A 
HETATM    6  S1  UNL     1      20.211   1.756  52.406  1.00  0.00    -0.072 SA
HETATM    7  C11 UNL     1      21.222   0.503  52.953  1.00  0.00     0.020 A 
HETATM    8  C12 UNL     1      22.549   1.040  53.063  1.00  0.00    -0.025 A 
HETATM    9  C13 UNL     1      22.730   2.349  52.735  1.00  0.00     0.053 A 
HETATM   10  C14 UNL     1      23.493   0.029  53.528  1.00  0.00     0.070 C 
HETATM   11  C15 UNL     1      22.911  -0.716  54.682  1.00  0.00     0.274 C 
HETATM   12  N4  UNL     1      21.724  -1.422  54.342  1.00  0.00     0.088 N 
HETATM   13  C16 UNL     1      20.935  -0.885  53.282  1.00  0.00     0.316 C 
HETATM   14  H16 UNL     1      21.200  -1.696  55.188  1.00  0.00     0.316 HD
ENDROOT
BRANCH   1  15
HETATM   15  N1  UNL     1      25.123   2.639  53.120  1.00  0.00    -0.343 N 
HETATM   16  H10 UNL     1      25.597   2.505  54.012  1.00  0.00     0.167 HD
BRANCH  15  17
HETATM   17  C2  UNL     1      25.723   2.311  51.881  1.00  0.00     0.018 C 
HETATM   18  C1  UNL     1      25.703   2.911  50.540  1.00  0.00     0.069 C 
HETATM   19  C3  UNL     1      26.473   1.212  51.921  1.00  0.00    -0.002 C 
BRANCH  19  20
HETATM   20  C4  UNL     1      26.761  -0.081  51.905  1.00  0.00     0.014 C 
BRANCH  20  21
HETATM   21  C5  UNL     1      27.409  -0.286  53.140  1.00  0.00    -0.001 C 
BRANCH  21  22
HETATM   22  C6  UNL     1      27.990   0.286  54.173  1.00  0.00    -0.001 C 
BRANCH  22  23
HETATM   23  C7  UNL     1      29.124   1.225  54.359  1.00  0.00     0.191 C 
BRANCH  23  24
HETATM   24  O1  UNL     1      28.670   2.536  54.279  1.00  0.00    -0.397 OA
HETATM   25  H9  UNL     1      28.236   2.751  53.401  1.00  0.00     0.209 HD
ENDBRANCH  23  24
ENDBRANCH  22  23
ENDBRANCH  21  22
ENDBRANCH  20  21
ENDBRANCH  19  20
ENDBRANCH  15  17
ENDBRANCH   1  15
TORSDOF 7
ENDMDL
MODEL 7
REMARK VINA RESULT:      -6.5      3.243      6.007
REMARK  7 active torsions:
REMARK  status: ('A' for Active; 'I' for Inactive)
REMARK    1  A    between atoms: C2_2  and  N1_9 
REMARK    2  A    between atoms: C3_3  and  C4_4 
REMARK    3  A    between atoms: C4_4  and  C5_5 
REMARK    4  A    between atoms: C5_5  and  C6_6 
REMARK    5  A    between atoms: C6_6  and  C7_7 
REMARK    6  A    between atoms: C7_7  and  O1_8 
REMARK    7  A    between atoms: N1_9  and  C8_10 
ROOT
HETATM    1  C8  UNL     1      24.218   0.270  52.939  1.00  0.00     0.142 A 
HETATM    2  N2  UNL     1      25.219   0.207  53.819  1.00  0.00    -0.223 NA
HETATM    3  C9  UNL     1      26.178   1.099  54.014  1.00  0.00     0.236 A 
HETATM    4  N3  UNL     1      26.155   2.197  53.246  1.00  0.00    -0.234 NA
HETATM    5  C10 UNL     1      25.159   2.314  52.334  1.00  0.00     0.114 A 
HETATM    6  S1  UNL     1      24.758   3.655  51.073  1.00  0.00    -0.072 SA
HETATM    7  C11 UNL     1      23.379   2.895  50.433  1.00  0.00     0.020 A 
HETATM    8  C12 UNL     1      23.205   1.656  51.138  1.00  0.00    -0.025 A 
HETATM    9  C13 UNL     1      24.108   1.350  52.110  1.00  0.00     0.053 A 
HETATM   10  C14 UNL     1      22.037   0.929  50.651  1.00  0.00     0.070 C 
HETATM   11  C15 UNL     1      20.879   1.859  50.518  1.00  0.00     0.274 C 
HETATM   12  N4  UNL     1      21.109   2.897  49.574  1.00  0.00     0.088 N 
HETATM   13  C16 UNL     1      22.463   3.303  49.378  1.00  0.00     0.316 C 
HETATM   14  H16 UNL     1      20.431   3.665  49.694  1.00  0.00     0.316 HD
ENDROOT
BRANCH   1  15
HETATM   15  N1  UNL     1      23.287  -0.808  52.899  1.00  0.00    -0.343 N 
HETATM   16  H10 UNL     1      23.020  -1.499  52.200  1.00  0.00     0.167 HD
BRANCH  15  17
HETATM   17  C2  UNL     1      22.699  -0.758  54.185  1.00  0.00     0.018 C 
HETATM   18  C1  UNL     1      22.939  -1.462  55.453  1.00  0.00     0.069 C 
HETATM   19  C3  UNL     1      21.697   0.114  54.285  1.00  0.00    -0.002 C 
BRANCH  19  20
HETATM   20  C4  UNL     1      20.465   0.587  54.181  1.00  0.00     0.014 C 
BRANCH  20  21
HETATM   21  C5  UNL     1      19.832  -0.335  53.324  1.00  0.00    -0.001 C 
BRANCH  21  22
HETATM   22  C6  UNL     1      18.808  -0.557  52.527  1.00  0.00    -0.001 C 
BRANCH  22  23
HETATM   23  C7  UNL     1      17.455  -1.145  52.688  1.00  0.00     0.191 C 
BRANCH  23  24
HETATM   24  O1  UNL     1      17.167  -1.306  54.038  1.00  0.00    -0.397 OA
HETATM   25  H9  UNL     1      16.214  -1.091  54.268  1.00  0.00     0.209 HD
ENDBRANCH  23  24
ENDBRANCH  22  23
ENDBRANCH  21  22
ENDBRANCH  20  21
ENDBRANCH  19  20
ENDBRANCH  15  17
ENDBRANCH   1  15
TORSDOF 7
ENDMDL
MODEL 8
REMARK VINA RESULT:      -6.4      3.144      6.014
REMARK  7 active torsions:
REMARK  status: ('A' for Active; 'I' for Inactive)
REMARK    1  A    between atoms: C2_2  and  N1_9 
REMARK    2  A    between atoms: C3_3  and  C4_4 
REMARK    3  A    between atoms: C4_4  and  C5_5 
REMARK    4  A    between atoms: C5_5  and  C6_6 
REMARK    5  A    between atoms: C6_6  and  C7_7 
REMARK    6  A    between atoms: C7_7  and  O1_8 
REMARK    7  A    between atoms: N1_9  and  C8_10 
ROOT
HETATM    1  C8  UNL     1      24.149   3.286  50.772  1.00  0.00     0.142 A 
HETATM    2  N2  UNL     1      24.949   4.019  49.993  1.00  0.00    -0.223 NA
HETATM    3  C9  UNL     1      26.258   3.901  49.845  1.00  0.00     0.236 A 
HETATM    4  N3  UNL     1      26.869   2.940  50.552  1.00  0.00    -0.234 NA
HETATM    5  C10 UNL     1      26.105   2.164  51.360  1.00  0.00     0.114 A 
HETATM    6  S1  UNL     1      26.538   0.735  52.509  1.00  0.00    -0.072 SA
HETATM    7  C11 UNL     1      24.953   0.453  53.053  1.00  0.00     0.020 A 
HETATM    8  C12 UNL     1      24.098   1.403  52.398  1.00  0.00    -0.025 A 
HETATM    9  C13 UNL     1      24.676   2.280  51.532  1.00  0.00     0.053 A 
HETATM   10  C14 UNL     1      22.708   1.237  52.808  1.00  0.00     0.070 C 
HETATM   11  C15 UNL     1      22.341  -0.209  52.785  1.00  0.00     0.274 C 
HETATM   12  N4  UNL     1      23.108  -0.988  53.694  1.00  0.00     0.088 N 
HETATM   13  C16 UNL     1      24.422  -0.521  53.996  1.00  0.00     0.316 C 
HETATM   14  H16 UNL     1      23.037  -1.993  53.473  1.00  0.00     0.316 HD
ENDROOT
BRANCH   1  15
HETATM   15  N1  UNL     1      22.756   3.583  50.777  1.00  0.00    -0.343 N 
HETATM   16  H10 UNL     1      22.100   3.931  51.474  1.00  0.00     0.167 HD
BRANCH  15  17
HETATM   17  C2  UNL     1      22.366   3.269  49.453  1.00  0.00     0.018 C 
HETATM   18  C1  UNL     1      22.202   4.047  48.218  1.00  0.00     0.069 C 
HETATM   19  C3  UNL     1      22.073   1.982  49.271  1.00  0.00    -0.002 C 
BRANCH  19  20
HETATM   20  C4  UNL     1      21.350   0.873  49.282  1.00  0.00     0.014 C 
BRANCH  20  21
HETATM   21  C5  UNL     1      20.130   1.284  49.858  1.00  0.00    -0.001 C 
BRANCH  21  22
HETATM   22  C6  UNL     1      19.433   1.395  50.968  1.00  0.00    -0.001 C 
BRANCH  22  23
HETATM   23  C7  UNL     1      18.894   2.524  51.766  1.00  0.00     0.191 C 
BRANCH  23  24
HETATM   24  O1  UNL     1      19.936   3.332  52.205  1.00  0.00    -0.397 OA
HETATM   25  H9  UNL     1      20.782   2.823  52.384  1.00  0.00     0.209 HD
ENDBRANCH  23  24
ENDBRANCH  22  23
ENDBRANCH  21  22
ENDBRANCH  20  21
ENDBRANCH  19  20
ENDBRANCH  15  17
ENDBRANCH   1  15
TORSDOF 7
ENDMDL
MODEL 9
REMARK VINA RESULT:      -6.4      3.409      7.636
REMARK  7 active torsions:
REMARK  status: ('A' for Active; 'I' for Inactive)
REMARK    1  A    between atoms: C2_2  and  N1_9 
REMARK    2  A    between atoms: C3_3  and  C4_4 
REMARK    3  A    between atoms: C4_4  and  C5_5 
REMARK    4  A    between atoms: C5_5  and  C6_6 
REMARK    5  A    between atoms: C6_6  and  C7_7 
REMARK    6  A    between atoms: C7_7  and  O1_8 
REMARK    7  A    between atoms: N1_9  and  C8_10 
ROOT
HETATM    1  C8  UNL     1      21.476   0.590  53.110  1.00  0.00     0.142 A 
HETATM    2  N2  UNL     1      20.775  -0.284  53.837  1.00  0.00    -0.223 NA
HETATM    3  C9  UNL     1      21.242  -1.299  54.547  1.00  0.00     0.236 A 
HETATM    4  N3  UNL     1      22.570  -1.484  54.547  1.00  0.00    -0.234 NA
HETATM    5  C10 UNL     1      23.331  -0.625  53.825  1.00  0.00     0.114 A 
HETATM    6  S1  UNL     1      25.191  -0.523  53.545  1.00  0.00    -0.072 SA
HETATM    7  C11 UNL     1      25.146   0.839  52.528  1.00  0.00     0.020 A 
HETATM    8  C12 UNL     1      23.771   1.225  52.388  1.00  0.00    -0.025 A 
HETATM    9  C13 UNL     1      22.836   0.485  53.046  1.00  0.00     0.053 A 
HETATM   10  C14 UNL     1      23.633   2.393  51.524  1.00  0.00     0.070 C 
HETATM   11  C15 UNL     1      24.644   3.424  51.900  1.00  0.00     0.274 C 
HETATM   12  N4  UNL     1      25.982   2.973  51.732  1.00  0.00     0.088 N 
HETATM   13  C16 UNL     1      26.212   1.571  51.860  1.00  0.00     0.316 C 
HETATM   14  H16 UNL     1      26.645   3.578  52.242  1.00  0.00     0.316 HD
ENDROOT
BRANCH   1  15
HETATM   15  N1  UNL     1      20.765   1.615  52.421  1.00  0.00    -0.343 N 
HETATM   16  H10 UNL     1      20.571   2.598  52.603  1.00  0.00     0.167 HD
BRANCH  15  17
HETATM   17  C2  UNL     1      20.298   0.947  51.264  1.00  0.00     0.018 C 
HETATM   18  C1  UNL     1      20.930   0.476  50.025  1.00  0.00     0.069 C 
HETATM   19  C3  UNL     1      18.993   0.684  51.286  1.00  0.00    -0.002 C 
BRANCH  19  20
HETATM   20  C4  UNL     1      17.693   0.901  51.154  1.00  0.00     0.014 C 
BRANCH  20  21
HETATM   21  C5  UNL     1      17.135  -0.389  51.256  1.00  0.00    -0.001 C 
BRANCH  21  22
HETATM   22  C6  UNL     1      16.714  -1.332  52.072  1.00  0.00    -0.001 C 
BRANCH  22  23
HETATM   23  C7  UNL     1      17.310  -2.097  53.196  1.00  0.00     0.191 C 
BRANCH  23  24
HETATM   24  O1  UNL     1      17.770  -1.221  54.172  1.00  0.00    -0.397 OA
HETATM   25  H9  UNL     1      17.200  -1.213  54.997  1.00  0.00     0.209 HD
ENDBRANCH  23  24
ENDBRANCH  22  23
ENDBRANCH  21  22
ENDBRANCH  20  21
ENDBRANCH  19  20
ENDBRANCH  15  17
ENDBRANCH   1  15
TORSDOF 7
ENDMDL
