MODEL 1
REMARK VINA RESULT:      -6.6      0.000      0.000
REMARK  7 active torsions:
REMARK  status: ('A' for Active; 'I' for Inactive)
REMARK    1  A    between atoms: C2_2  and  C3_3 
REMARK    2  A    between atoms: C3_3  and  C4_5 
REMARK    3  A    between atoms: C6_7  and  O2_8 
REMARK    4  A    between atoms: C6_7  and  N1_10 
REMARK    5  A    between atoms: C15_20  and  N4_21 
REMARK    6  A    between atoms: C16_22  and  N5_23 
REMARK    7  A    between atoms: N5_23  and  C18_25 
ROOT
HETATM    1  C4  UNL     1      22.269   2.378  49.474  1.00  0.00     0.011 C 
HETATM    2  C5  UNL     1      22.854   3.524  49.764  1.00  0.00     0.055 C 
HETATM    3  C6  UNL     1      23.392   3.921  51.102  1.00  0.00     0.218 C 
HETATM    4  C15 UNL     1      24.008   2.947  51.949  1.00  0.00     0.108 C 
HETATM    5  C16 UNL     1      23.687   1.695  52.091  1.00  0.00     0.127 C 
HETATM    6  N6  UNL     1      22.650   0.974  51.450  1.00  0.00    -0.370 N 
HETATM    7  C20 UNL     1      21.931   1.149  50.230  1.00  0.00     0.164 C 
HETATM    8  H26 UNL     1      22.274   0.099  51.920  1.00  0.00     0.161 HD
ENDROOT
BRANCH   3   9
HETATM    9  O2  UNL     1      22.152   4.163  51.697  1.00  0.00    -0.356 OA
HETATM   10  C7  UNL     1      21.182   4.742  51.004  1.00  0.00     0.205 C 
ENDBRANCH   3   9
BRANCH   3  11
HETATM   11  N1  UNL     1      24.035   5.221  50.993  1.00  0.00    -0.257 N 
HETATM   12  C8  UNL     1      23.589   6.452  51.609  1.00  0.00     0.295 A 
HETATM   13  N2  UNL     1      24.258   7.639  51.195  1.00  0.00    -0.278 NA
HETATM   14  C9  UNL     1      25.257   7.754  50.406  1.00  0.00     0.144 A 
HETATM   15  C10 UNL     1      25.740   6.483  49.868  1.00  0.00     0.073 A 
HETATM   16  C11 UNL     1      26.846   6.411  49.030  1.00  0.00     0.035 A 
HETATM   17  N3  UNL     1      25.177   5.278  50.145  1.00  0.00    -0.257 N 
HETATM   18  C12 UNL     1      26.957   5.060  48.786  1.00  0.00     0.029 A 
HETATM   19  C13 UNL     1      25.938   4.366  49.468  1.00  0.00     0.030 A 
HETATM   20  C14 UNL     1      25.820   2.909  49.404  1.00  0.00     0.070 C 
ENDBRANCH   3  11
BRANCH   4  21
HETATM   21  N4  UNL     1      25.112   3.426  52.729  1.00  0.00    -0.395 N 
HETATM   22  H16 UNL     1      25.113   4.099  53.512  1.00  0.00     0.156 HD
HETATM   23  H17 UNL     1      26.053   3.058  52.495  1.00  0.00     0.156 HD
ENDBRANCH   4  21
BRANCH   1  24
HETATM   24  C3  UNL     1      21.821   2.221  48.070  1.00  0.00     0.178 C 
HETATM   25  O1  UNL     1      21.952   1.128  47.456  1.00  0.00    -0.288 OA
BRANCH  24  26
HETATM   26  C2  UNL     1      21.205   3.233  47.246  1.00  0.00     0.045 C 
HETATM   27  C1  UNL     1      21.931   3.523  46.181  1.00  0.00     0.015 C 
ENDBRANCH  24  26
ENDBRANCH   1  24
BRANCH   5  28
HETATM   28  N5  UNL     1      24.459   0.925  53.003  1.00  0.00    -0.370 N 
HETATM   29  C17 UNL     1      23.715   0.057  53.895  1.00  0.00     0.151 C 
BRANCH  28  30
HETATM   30  C18 UNL     1      25.897   0.947  53.100  1.00  0.00     0.119 C 
HETATM   31  C19 UNL     1      26.537  -0.159  52.278  1.00  0.00     0.026 C 
ENDBRANCH  28  30
ENDBRANCH   5  28
TORSDOF 7
ENDMDL
MODEL 2
REMARK VINA RESULT:      -6.5      6.299      9.775
REMARK  7 active torsions:
REMARK  status: ('A' for Active; 'I' for Inactive)
REMARK    1  A    between atoms: C2_2  and  C3_3 
REMARK    2  A    between atoms: C3_3  and  C4_5 
REMARK    3  A    between atoms: C6_7  and  O2_8 
REMARK    4  A    between atoms: C6_7  and  N1_10 
REMARK    5  A    between atoms: C15_20  and  N4_21 
REMARK    6  A    between atoms: C16_22  and  N5_23 
REMARK    7  A    between atoms: N5_23  and  C18_25 
ROOT
HETATM    1  C4  UNL     1      28.454   7.009  47.863  1.00  0.00     0.011 C 
HETATM    2  C5  UNL     1      29.579   6.880  47.186  1.00  0.00     0.055 C 
HETATM    3  C6  UNL     1      30.320   7.981  46.496  1.00  0.00     0.218 C 
HETATM    4  C15 UNL     1      30.360   9.292  47.067  1.00  0.00     0.108 C 
HETATM    5  C16 UNL     1      29.423   9.903  47.731  1.00  0.00     0.127 C 
HETATM    6  N6  UNL     1      28.128   9.433  48.058  1.00  0.00    -0.370 N 
HETATM    7  C20 UNL     1      27.550   8.136  48.193  1.00  0.00     0.164 C 
HETATM    8  H26 UNL     1      27.366  10.145  48.261  1.00  0.00     0.161 HD
ENDROOT
BRANCH   3   9
HETATM    9  O2  UNL     1      29.441   8.100  45.417  1.00  0.00    -0.356 OA
HETATM   10  C7  UNL     1      29.368   9.236  44.738  1.00  0.00     0.205 C 
ENDBRANCH   3   9
BRANCH   3  11
HETATM   11  N1  UNL     1      31.555   7.451  45.940  1.00  0.00    -0.257 N 
HETATM   12  C8  UNL     1      31.898   7.374  44.536  1.00  0.00     0.295 A 
HETATM   13  N2  UNL     1      33.070   6.630  44.216  1.00  0.00    -0.278 NA
HETATM   14  C9  UNL     1      33.905   6.083  45.014  1.00  0.00     0.144 A 
HETATM   15  C10 UNL     1      33.577   6.253  46.429  1.00  0.00     0.073 A 
HETATM   16  C11 UNL     1      34.397   5.766  47.439  1.00  0.00     0.035 A 
HETATM   17  N3  UNL     1      32.474   6.906  46.880  1.00  0.00    -0.257 N 
HETATM   18  C12 UNL     1      33.738   6.156  48.583  1.00  0.00     0.029 A 
HETATM   19  C13 UNL     1      32.563   6.854  48.243  1.00  0.00     0.030 A 
HETATM   20  C14 UNL     1      31.667   7.403  49.262  1.00  0.00     0.070 C 
ENDBRANCH   3  11
BRANCH   4  21
HETATM   21  N4  UNL     1      31.589  10.005  46.875  1.00  0.00    -0.395 N 
HETATM   22  H16 UNL     1      32.087  10.633  47.527  1.00  0.00     0.156 HD
HETATM   23  H17 UNL     1      32.067   9.889  45.962  1.00  0.00     0.156 HD
ENDBRANCH   4  21
BRANCH   1  24
HETATM   24  C3  UNL     1      27.914   5.765  48.459  1.00  0.00     0.178 C 
HETATM   25  O1  UNL     1      28.625   4.732  48.582  1.00  0.00    -0.288 OA
BRANCH  24  26
HETATM   26  C2  UNL     1      26.574   5.562  48.957  1.00  0.00     0.045 C 
HETATM   27  C1  UNL     1      26.363   4.313  49.333  1.00  0.00     0.015 C 
ENDBRANCH  24  26
ENDBRANCH   1  24
BRANCH   5  28
HETATM   28  N5  UNL     1      29.709  11.213  48.200  1.00  0.00    -0.370 N 
HETATM   29  C17 UNL     1      30.542  11.300  49.384  1.00  0.00     0.151 C 
BRANCH  28  30
HETATM   30  C18 UNL     1      29.239  12.435  47.596  1.00  0.00     0.119 C 
HETATM   31  C19 UNL     1      28.298  13.195  48.514  1.00  0.00     0.026 C 
ENDBRANCH  28  30
ENDBRANCH   5  28
TORSDOF 7
ENDMDL
MODEL 3
REMARK VINA RESULT:      -6.5      7.552     10.156
REMARK  7 active torsions:
REMARK  status: ('A' for Active; 'I' for Inactive)
REMARK    1  A    between atoms: C2_2  and  C3_3 
REMARK    2  A    between atoms: C3_3  and  C4_5 
REMARK    3  A    between atoms: C6_7  and  O2_8 
REMARK    4  A    between atoms: C6_7  and  N1_10 
REMARK    5  A    between atoms: C15_20  and  N4_21 
REMARK    6  A    between atoms: C16_22  and  N5_23 
REMARK    7  A    between atoms: N5_23  and  C18_25 
ROOT
HETATM    1  C4  UNL     1      30.482   6.695  48.132  1.00  0.00     0.011 C 
HETATM    2  C5  UNL     1      30.984   7.746  47.514  1.00  0.00     0.055 C 
HETATM    3  C6  UNL     1      32.396   8.231  47.611  1.00  0.00     0.218 C 
HETATM    4  C15 UNL     1      33.473   7.297  47.721  1.00  0.00     0.108 C 
HETATM    5  C16 UNL     1      33.481   6.157  48.349  1.00  0.00     0.127 C 
HETATM    6  N6  UNL     1      32.432   5.550  49.083  1.00  0.00    -0.370 N 
HETATM    7  C20 UNL     1      31.012   5.671  49.064  1.00  0.00     0.164 C 
HETATM    8  H26 UNL     1      32.682   4.836  49.829  1.00  0.00     0.161 HD
ENDROOT
BRANCH   3   9
HETATM    9  O2  UNL     1      32.279   8.778  48.891  1.00  0.00    -0.356 OA
HETATM   10  C7  UNL     1      31.136   9.322  49.282  1.00  0.00     0.205 C 
ENDBRANCH   3   9
BRANCH   3  11
HETATM   11  N1  UNL     1      32.577   9.363  46.716  1.00  0.00    -0.257 N 
HETATM   12  C8  UNL     1      32.863  10.727  47.106  1.00  0.00     0.295 A 
HETATM   13  N2  UNL     1      32.794  11.703  46.072  1.00  0.00    -0.278 NA
HETATM   14  C9  UNL     1      32.586  11.524  44.824  1.00  0.00     0.144 A 
HETATM   15  C10 UNL     1      32.386  10.126  44.447  1.00  0.00     0.073 A 
HETATM   16  C11 UNL     1      32.193   9.738  43.127  1.00  0.00     0.035 A 
HETATM   17  N3  UNL     1      32.389   9.094  45.331  1.00  0.00    -0.257 N 
HETATM   18  C12 UNL     1      32.072   8.370  43.224  1.00  0.00     0.029 A 
HETATM   19  C13 UNL     1      32.193   7.974  44.571  1.00  0.00     0.030 A 
HETATM   20  C14 UNL     1      32.120   6.569  44.972  1.00  0.00     0.070 C 
ENDBRANCH   3  11
BRANCH   4  21
HETATM   21  N4  UNL     1      34.683   7.677  47.054  1.00  0.00    -0.395 N 
HETATM   22  H16 UNL     1      35.606   7.212  47.061  1.00  0.00     0.156 HD
HETATM   23  H17 UNL     1      34.655   8.536  46.473  1.00  0.00     0.156 HD
ENDBRANCH   4  21
BRANCH   1  24
HETATM   24  C3  UNL     1      29.050   6.417  47.872  1.00  0.00     0.178 C 
HETATM   25  O1  UNL     1      28.351   7.183  47.155  1.00  0.00    -0.288 OA
BRANCH  24  26
HETATM   26  C2  UNL     1      28.287   5.298  48.370  1.00  0.00     0.045 C 
HETATM   27  C1  UNL     1      27.041   5.628  48.658  1.00  0.00     0.015 C 
ENDBRANCH  24  26
ENDBRANCH   1  24
BRANCH   5  28
HETATM   28  N5  UNL     1      34.684   5.403  48.311  1.00  0.00    -0.370 N 
HETATM   29  C17 UNL     1      35.649   5.688  49.356  1.00  0.00     0.151 C 
BRANCH  28  30
HETATM   30  C18 UNL     1      35.006   4.397  47.330  1.00  0.00     0.119 C 
HETATM   31  C19 UNL     1      34.547   3.015  47.765  1.00  0.00     0.026 C 
ENDBRANCH  28  30
ENDBRANCH   5  28
TORSDOF 7
ENDMDL
MODEL 4
REMARK VINA RESULT:      -6.4      2.651      6.313
REMARK  7 active torsions:
REMARK  status: ('A' for Active; 'I' for Inactive)
REMARK    1  A    between atoms: C2_2  and  C3_3 
REMARK    2  A    between atoms: C3_3  and  C4_5 
REMARK    3  A    between atoms: C6_7  and  O2_8 
REMARK    4  A    between atoms: C6_7  and  N1_10 
REMARK    5  A    between atoms: C15_20  and  N4_21 
REMARK    6  A    between atoms: C16_22  and  N5_23 
REMARK    7  A    between atoms: N5_23  and  C18_25 
ROOT
HETATM    1  C4  UNL     1      25.110   4.592  49.564  1.00  0.00     0.011 C 
HETATM    2  C5  UNL     1      24.002   4.156  50.132  1.00  0.00     0.055 C 
HETATM    3  C6  UNL     1      22.679   4.855  50.127  1.00  0.00     0.218 C 
HETATM    4  C15 UNL     1      22.259   5.596  48.979  1.00  0.00     0.108 C 
HETATM    5  C16 UNL     1      22.995   6.298  48.169  1.00  0.00     0.127 C 
HETATM    6  N6  UNL     1      24.395   6.511  48.212  1.00  0.00    -0.370 N 
HETATM    7  C20 UNL     1      25.487   5.793  48.782  1.00  0.00     0.164 C 
HETATM    8  H26 UNL     1      24.792   7.374  47.737  1.00  0.00     0.161 HD
ENDROOT
BRANCH   3   9
HETATM    9  O2  UNL     1      23.022   5.831  51.064  1.00  0.00    -0.356 OA
HETATM   10  C7  UNL     1      23.726   5.506  52.139  1.00  0.00     0.205 C 
ENDBRANCH   3   9
BRANCH   3  11
HETATM   11  N1  UNL     1      21.691   4.012  50.783  1.00  0.00    -0.257 N 
HETATM   12  C8  UNL     1      20.957   4.332  51.989  1.00  0.00     0.295 A 
HETATM   13  N2  UNL     1      20.196   3.273  52.560  1.00  0.00    -0.278 NA
HETATM   14  C9  UNL     1      20.013   2.093  52.105  1.00  0.00     0.144 A 
HETATM   15  C10 UNL     1      20.696   1.828  50.840  1.00  0.00     0.073 A 
HETATM   16  C11 UNL     1      20.572   0.614  50.176  1.00  0.00     0.035 A 
HETATM   17  N3  UNL     1      21.485   2.730  50.200  1.00  0.00    -0.257 N 
HETATM   18  C12 UNL     1      21.344   0.801  49.051  1.00  0.00     0.029 A 
HETATM   19  C13 UNL     1      21.901   2.095  49.064  1.00  0.00     0.030 A 
HETATM   20  C14 UNL     1      22.757   2.578  47.979  1.00  0.00     0.070 C 
ENDBRANCH   3  11
BRANCH   4  21
HETATM   21  N4  UNL     1      20.853   5.549  48.701  1.00  0.00    -0.395 N 
HETATM   22  H16 UNL     1      20.355   5.755  47.820  1.00  0.00     0.156 HD
HETATM   23  H17 UNL     1      20.225   5.271  49.479  1.00  0.00     0.156 HD
ENDBRANCH   4  21
BRANCH   1  24
HETATM   24  C3  UNL     1      26.295   3.714  49.706  1.00  0.00     0.178 C 
HETATM   25  O1  UNL     1      27.403   4.017  49.187  1.00  0.00    -0.288 OA
BRANCH  24  26
HETATM   26  C2  UNL     1      26.355   2.459  50.416  1.00  0.00     0.045 C 
HETATM   27  C1  UNL     1      26.906   2.583  51.609  1.00  0.00     0.015 C 
ENDBRANCH  24  26
ENDBRANCH   1  24
BRANCH   5  28
HETATM   28  N5  UNL     1      22.336   6.948  47.090  1.00  0.00    -0.370 N 
HETATM   29  C17 UNL     1      21.915   8.315  47.330  1.00  0.00     0.151 C 
BRANCH  28  30
HETATM   30  C18 UNL     1      22.063   6.358  45.804  1.00  0.00     0.119 C 
HETATM   31  C19 UNL     1      22.900   6.987  44.703  1.00  0.00     0.026 C 
ENDBRANCH  28  30
ENDBRANCH   5  28
TORSDOF 7
ENDMDL
MODEL 5
REMARK VINA RESULT:      -6.4      5.963      8.991
REMARK  7 active torsions:
REMARK  status: ('A' for Active; 'I' for Inactive)
REMARK    1  A    between atoms: C2_2  and  C3_3 
REMARK    2  A    between atoms: C3_3  and  C4_5 
REMARK    3  A    between atoms: C6_7  and  O2_8 
REMARK    4  A    between atoms: C6_7  and  N1_10 
REMARK    5  A    between atoms: C15_20  and  N4_21 
REMARK    6  A    between atoms: C16_22  and  N5_23 
REMARK    7  A    between atoms: N5_23  and  C18_25 
ROOT
HETATM    1  C4  UNL     1      28.836   6.421  48.238  1.00  0.00     0.011 C 
HETATM    2  C5  UNL     1      28.964   7.734  48.232  1.00  0.00     0.055 C 
HETATM    3  C6  UNL     1      30.244   8.490  48.067  1.00  0.00     0.218 C 
HETATM    4  C15 UNL     1      31.266   7.998  47.195  1.00  0.00     0.108 C 
HETATM    5  C16 UNL     1      31.593   6.760  46.969  1.00  0.00     0.127 C 
HETATM    6  N6  UNL     1      31.029   5.585  47.522  1.00  0.00    -0.370 N 
HETATM    7  C20 UNL     1      29.765   5.273  48.105  1.00  0.00     0.164 C 
HETATM    8  H26 UNL     1      31.617   4.700  47.542  1.00  0.00     0.161 HD
ENDROOT
BRANCH   3   9
HETATM    9  O2  UNL     1      30.733   8.240  49.351  1.00  0.00    -0.356 OA
HETATM   10  C7  UNL     1      32.039   8.173  49.566  1.00  0.00     0.205 C 
ENDBRANCH   3   9
BRANCH   3  11
HETATM   11  N1  UNL     1      29.956   9.916  48.029  1.00  0.00    -0.257 N 
HETATM   12  C8  UNL     1      30.389  10.903  48.993  1.00  0.00     0.295 A 
HETATM   13  N2  UNL     1      29.816  12.201  48.864  1.00  0.00    -0.278 NA
HETATM   14  C9  UNL     1      29.024  12.631  47.958  1.00  0.00     0.144 A 
HETATM   15  C10 UNL     1      28.674  11.634  46.948  1.00  0.00     0.073 A 
HETATM   16  C11 UNL     1      27.861  11.937  45.863  1.00  0.00     0.035 A 
HETATM   17  N3  UNL     1      29.115  10.349  46.965  1.00  0.00    -0.257 N 
HETATM   18  C12 UNL     1      27.811  10.746  45.175  1.00  0.00     0.029 A 
HETATM   19  C13 UNL     1      28.578   9.774  45.847  1.00  0.00     0.030 A 
HETATM   20  C14 UNL     1      28.720   8.411  45.333  1.00  0.00     0.070 C 
ENDBRANCH   3  11
BRANCH   4  21
HETATM   21  N4  UNL     1      32.009   9.004  46.495  1.00  0.00    -0.395 N 
HETATM   22  H16 UNL     1      32.123   9.140  45.477  1.00  0.00     0.156 HD
HETATM   23  H17 UNL     1      32.511   9.708  47.067  1.00  0.00     0.156 HD
ENDBRANCH   4  21
BRANCH   1  24
HETATM   24  C3  UNL     1      27.457   5.908  48.417  1.00  0.00     0.178 C 
HETATM   25  O1  UNL     1      26.452   6.612  48.129  1.00  0.00    -0.288 OA
BRANCH  24  26
HETATM   26  C2  UNL     1      27.082   4.607  48.917  1.00  0.00     0.045 C 
HETATM   27  C1  UNL     1      25.844   4.585  49.377  1.00  0.00     0.015 C 
ENDBRANCH  24  26
ENDBRANCH   1  24
BRANCH   5  28
HETATM   28  N5  UNL     1      32.653   6.526  46.050  1.00  0.00    -0.370 N 
HETATM   29  C17 UNL     1      33.976   6.382  46.626  1.00  0.00     0.151 C 
BRANCH  28  30
HETATM   30  C18 UNL     1      32.507   6.425  44.620  1.00  0.00     0.119 C 
HETATM   31  C19 UNL     1      33.087   5.127  44.083  1.00  0.00     0.026 C 
ENDBRANCH  28  30
ENDBRANCH   5  28
TORSDOF 7
ENDMDL
MODEL 6
REMARK VINA RESULT:      -6.4      2.446      4.419
REMARK  7 active torsions:
REMARK  status: ('A' for Active; 'I' for Inactive)
REMARK    1  A    between atoms: C2_2  and  C3_3 
REMARK    2  A    between atoms: C3_3  and  C4_5 
REMARK    3  A    between atoms: C6_7  and  O2_8 
REMARK    4  A    between atoms: C6_7  and  N1_10 
REMARK    5  A    between atoms: C15_20  and  N4_21 
REMARK    6  A    between atoms: C16_22  and  N5_23 
REMARK    7  A    between atoms: N5_23  and  C18_25 
ROOT
HETATM    1  C4  UNL     1      25.954   4.334  49.235  1.00  0.00     0.011 C 
HETATM    2  C5  UNL     1      24.740   4.768  48.956  1.00  0.00     0.055 C 
HETATM    3  C6  UNL     1      23.459   4.118  49.370  1.00  0.00     0.218 C 
HETATM    4  C15 UNL     1      23.355   3.473  50.642  1.00  0.00     0.108 C 
HETATM    5  C16 UNL     1      24.273   2.803  51.274  1.00  0.00     0.127 C 
HETATM    6  N6  UNL     1      25.605   2.539  50.871  1.00  0.00    -0.370 N 
HETATM    7  C20 UNL     1      26.512   3.177  49.975  1.00  0.00     0.164 C 
HETATM    8  H26 UNL     1      26.103   1.697  51.286  1.00  0.00     0.161 HD
ENDROOT
BRANCH   3   9
HETATM    9  O2  UNL     1      23.520   3.067  48.452  1.00  0.00    -0.356 OA
HETATM   10  C7  UNL     1      22.646   2.073  48.517  1.00  0.00     0.205 C 
ENDBRANCH   3   9
BRANCH   3  11
HETATM   11  N1  UNL     1      22.342   4.947  48.942  1.00  0.00    -0.257 N 
HETATM   12  C8  UNL     1      21.301   4.569  48.011  1.00  0.00     0.295 A 
HETATM   13  N2  UNL     1      20.430   5.612  47.586  1.00  0.00    -0.278 NA
HETATM   14  C9  UNL     1      20.397   6.827  47.978  1.00  0.00     0.144 A 
HETATM   15  C10 UNL     1      21.405   7.157  48.984  1.00  0.00     0.073 A 
HETATM   16  C11 UNL     1      21.487   8.419  49.559  1.00  0.00     0.035 A 
HETATM   17  N3  UNL     1      22.324   6.274  49.455  1.00  0.00    -0.257 N 
HETATM   18  C12 UNL     1      22.534   8.285  50.443  1.00  0.00     0.029 A 
HETATM   19  C13 UNL     1      23.046   6.974  50.382  1.00  0.00     0.030 A 
HETATM   20  C14 UNL     1      24.158   6.539  51.228  1.00  0.00     0.070 C 
ENDBRANCH   3  11
BRANCH   4  21
HETATM   21  N4  UNL     1      22.078   3.588  51.283  1.00  0.00    -0.395 N 
HETATM   22  H16 UNL     1      21.712   3.078  52.103  1.00  0.00     0.156 HD
HETATM   23  H17 UNL     1      21.409   4.275  50.888  1.00  0.00     0.156 HD
ENDBRANCH   4  21
BRANCH   1  24
HETATM   24  C3  UNL     1      27.070   5.157  48.712  1.00  0.00     0.178 C 
HETATM   25  O1  UNL     1      28.215   4.667  48.520  1.00  0.00    -0.288 OA
BRANCH  24  26
HETATM   26  C2  UNL     1      27.016   6.558  48.367  1.00  0.00     0.045 C 
HETATM   27  C1  UNL     1      28.140   6.984  47.821  1.00  0.00     0.015 C 
ENDBRANCH  24  26
ENDBRANCH   1  24
BRANCH   5  28
HETATM   28  N5  UNL     1      23.921   2.253  52.537  1.00  0.00    -0.370 N 
HETATM   29  C17 UNL     1      24.521   2.884  53.697  1.00  0.00     0.151 C 
BRANCH  28  30
HETATM   30  C18 UNL     1      23.032   1.137  52.740  1.00  0.00     0.119 C 
HETATM   31  C19 UNL     1      23.746  -0.049  53.365  1.00  0.00     0.026 C 
ENDBRANCH  28  30
ENDBRANCH   5  28
TORSDOF 7
ENDMDL
MODEL 7
REMARK VINA RESULT:      -6.2      2.766      6.539
REMARK  7 active torsions:
REMARK  status: ('A' for Active; 'I' for Inactive)
REMARK    1  A    between atoms: C2_2  and  C3_3 
REMARK    2  A    between atoms: C3_3  and  C4_5 
REMARK    3  A    between atoms: C6_7  and  O2_8 
REMARK    4  A    between atoms: C6_7  and  N1_10 
REMARK    5  A    between atoms: C15_20  and  N4_21 
REMARK    6  A    between atoms: C16_22  and  N5_23 
REMARK    7  A    between atoms: N5_23  and  C18_25 
ROOT
HETATM    1  C4  UNL     1      24.366   6.301  49.976  1.00  0.00     0.011 C 
HETATM    2  C5  UNL     1      23.632   5.239  50.248  1.00  0.00     0.055 C 
HETATM    3  C6  UNL     1      22.199   5.248  50.679  1.00  0.00     0.218 C 
HETATM    4  C15 UNL     1      21.293   6.219  50.148  1.00  0.00     0.108 C 
HETATM    5  C16 UNL     1      21.542   7.456  49.835  1.00  0.00     0.127 C 
HETATM    6  N6  UNL     1      22.767   8.161  49.938  1.00  0.00    -0.370 N 
HETATM    7  C20 UNL     1      24.136   7.765  49.976  1.00  0.00     0.164 C 
HETATM    8  H26 UNL     1      22.738   9.221  50.006  1.00  0.00     0.161 HD
ENDROOT
BRANCH   3   9
HETATM    9  O2  UNL     1      22.438   5.676  51.986  1.00  0.00    -0.356 OA
HETATM   10  C7  UNL     1      23.399   5.114  52.706  1.00  0.00     0.205 C 
ENDBRANCH   3   9
BRANCH   3  11
HETATM   11  N1  UNL     1      21.725   3.878  50.795  1.00  0.00    -0.257 N 
HETATM   12  C8  UNL     1      21.218   3.245  51.993  1.00  0.00     0.295 A 
HETATM   13  N2  UNL     1      21.006   1.839  51.919  1.00  0.00    -0.278 NA
HETATM   14  C9  UNL     1      21.131   1.070  50.906  1.00  0.00     0.144 A 
HETATM   15  C10 UNL     1      21.562   1.754  49.688  1.00  0.00     0.073 A 
HETATM   16  C11 UNL     1      21.706   1.084  48.479  1.00  0.00     0.035 A 
HETATM   17  N3  UNL     1      21.837   3.082  49.620  1.00  0.00    -0.257 N 
HETATM   18  C12 UNL     1      22.096   2.086  47.619  1.00  0.00     0.029 A 
HETATM   19  C13 UNL     1      22.175   3.308  48.314  1.00  0.00     0.030 A 
HETATM   20  C14 UNL     1      22.552   4.555  47.646  1.00  0.00     0.070 C 
ENDBRANCH   3  11
BRANCH   4  21
HETATM   21  N4  UNL     1      19.952   5.756  49.942  1.00  0.00    -0.395 N 
HETATM   22  H16 UNL     1      19.061   6.266  50.054  1.00  0.00     0.156 HD
HETATM   23  H17 UNL     1      19.832   4.772  49.636  1.00  0.00     0.156 HD
ENDBRANCH   4  21
BRANCH   1  24
HETATM   24  C3  UNL     1      25.764   6.030  49.566  1.00  0.00     0.178 C 
HETATM   25  O1  UNL     1      26.599   6.962  49.423  1.00  0.00    -0.288 OA
BRANCH  24  26
HETATM   26  C2  UNL     1      26.343   4.738  49.287  1.00  0.00     0.045 C 
HETATM   27  C1  UNL     1      27.512   4.832  48.680  1.00  0.00     0.015 C 
ENDBRANCH  24  26
ENDBRANCH   1  24
BRANCH   5  28
HETATM   28  N5  UNL     1      20.464   8.226  49.320  1.00  0.00    -0.370 N 
HETATM   29  C17 UNL     1      20.258   8.157  47.886  1.00  0.00     0.151 C 
BRANCH  28  30
HETATM   30  C18 UNL     1      19.581   9.052  50.106  1.00  0.00     0.119 C 
HETATM   31  C19 UNL     1      19.470  10.458  49.542  1.00  0.00     0.026 C 
ENDBRANCH  28  30
ENDBRANCH   5  28
TORSDOF 7
ENDMDL
MODEL 8
REMARK VINA RESULT:      -6.1      1.811      5.499
REMARK  7 active torsions:
REMARK  status: ('A' for Active; 'I' for Inactive)
REMARK    1  A    between atoms: C2_2  and  C3_3 
REMARK    2  A    between atoms: C3_3  and  C4_5 
REMARK    3  A    between atoms: C6_7  and  O2_8 
REMARK    4  A    between atoms: C6_7  and  N1_10 
REMARK    5  A    between atoms: C15_20  and  N4_21 
REMARK    6  A    between atoms: C16_22  and  N5_23 
REMARK    7  A    between atoms: N5_23  and  C18_25 
ROOT
HETATM    1  C4  UNL     1      22.492   3.898  47.966  1.00  0.00     0.011 C 
HETATM    2  C5  UNL     1      22.726   3.177  49.045  1.00  0.00     0.055 C 
HETATM    3  C6  UNL     1      23.753   3.472  50.093  1.00  0.00     0.218 C 
HETATM    4  C15 UNL     1      24.038   4.823  50.462  1.00  0.00     0.108 C 
HETATM    5  C16 UNL     1      24.050   5.875  49.696  1.00  0.00     0.127 C 
HETATM    6  N6  UNL     1      23.786   5.955  48.307  1.00  0.00    -0.370 N 
HETATM    7  C20 UNL     1      23.057   5.142  47.390  1.00  0.00     0.164 C 
HETATM    8  H26 UNL     1      24.187   6.772  47.760  1.00  0.00     0.161 HD
ENDROOT
BRANCH   3   9
HETATM    9  O2  UNL     1      24.858   3.078  49.335  1.00  0.00    -0.356 OA
HETATM   10  C7  UNL     1      26.068   3.524  49.640  1.00  0.00     0.205 C 
ENDBRANCH   3   9
BRANCH   3  11
HETATM   11  N1  UNL     1      23.640   2.491  51.162  1.00  0.00    -0.257 N 
HETATM   12  C8  UNL     1      24.674   1.577  51.597  1.00  0.00     0.295 A 
HETATM   13  N2  UNL     1      24.273   0.569  52.520  1.00  0.00    -0.278 NA
HETATM   14  C9  UNL     1      23.133   0.412  53.077  1.00  0.00     0.144 A 
HETATM   15  C10 UNL     1      22.134   1.404  52.682  1.00  0.00     0.073 A 
HETATM   16  C11 UNL     1      20.854   1.415  53.221  1.00  0.00     0.035 A 
HETATM   17  N3  UNL     1      22.364   2.398  51.785  1.00  0.00    -0.257 N 
HETATM   18  C12 UNL     1      20.271   2.498  52.603  1.00  0.00     0.029 A 
HETATM   19  C13 UNL     1      21.193   3.101  51.725  1.00  0.00     0.030 A 
HETATM   20  C14 UNL     1      20.852   4.288  50.941  1.00  0.00     0.070 C 
ENDBRANCH   3  11
BRANCH   4  21
HETATM   21  N4  UNL     1      24.347   5.027  51.847  1.00  0.00    -0.395 N 
HETATM   22  H16 UNL     1      24.810   4.387  52.513  1.00  0.00     0.156 HD
HETATM   23  H17 UNL     1      24.077   5.938  52.264  1.00  0.00     0.156 HD
ENDBRANCH   4  21
BRANCH   1  24
HETATM   24  C3  UNL     1      21.417   3.398  47.077  1.00  0.00     0.178 C 
HETATM   25  O1  UNL     1      21.568   3.348  45.827  1.00  0.00    -0.288 OA
BRANCH  24  26
HETATM   26  C2  UNL     1      20.117   2.921  47.484  1.00  0.00     0.045 C 
HETATM   27  C1  UNL     1      19.196   3.866  47.428  1.00  0.00     0.015 C 
ENDBRANCH  24  26
ENDBRANCH   1  24
BRANCH   5  28
HETATM   28  N5  UNL     1      24.367   7.119  50.306  1.00  0.00    -0.370 N 
HETATM   29  C17 UNL     1      25.767   7.496  50.296  1.00  0.00     0.151 C 
BRANCH  28  30
HETATM   30  C18 UNL     1      23.415   8.011  50.919  1.00  0.00     0.119 C 
HETATM   31  C19 UNL     1      22.002   7.761  50.421  1.00  0.00     0.026 C 
ENDBRANCH  28  30
ENDBRANCH   5  28
TORSDOF 7
ENDMDL
MODEL 9
REMARK VINA RESULT:      -6.1      5.485      8.004
REMARK  7 active torsions:
REMARK  status: ('A' for Active; 'I' for Inactive)
REMARK    1  A    between atoms: C2_2  and  C3_3 
REMARK    2  A    between atoms: C3_3  and  C4_5 
REMARK    3  A    between atoms: C6_7  and  O2_8 
REMARK    4  A    between atoms: C6_7  and  N1_10 
REMARK    5  A    between atoms: C15_20  and  N4_21 
REMARK    6  A    between atoms: C16_22  and  N5_23 
REMARK    7  A    between atoms: N5_23  and  C18_25 
ROOT
HETATM    1  C4  UNL     1      27.034   7.505  48.048  1.00  0.00     0.011 C 
HETATM    2  C5  UNL     1      27.612   8.681  47.902  1.00  0.00     0.055 C 
HETATM    3  C6  UNL     1      28.997   9.039  48.341  1.00  0.00     0.218 C 
HETATM    4  C15 UNL     1      30.052   8.078  48.258  1.00  0.00     0.108 C 
HETATM    5  C16 UNL     1      29.977   6.793  48.448  1.00  0.00     0.127 C 
HETATM    6  N6  UNL     1      28.841   6.017  48.785  1.00  0.00    -0.370 N 
HETATM    7  C20 UNL     1      27.436   6.201  48.628  1.00  0.00     0.164 C 
HETATM    8  H26 UNL     1      28.990   5.080  49.263  1.00  0.00     0.161 HD
ENDROOT
BRANCH   3   9
HETATM    9  O2  UNL     1      28.706   9.118  49.705  1.00  0.00    -0.356 OA
HETATM   10  C7  UNL     1      27.504   9.501  50.110  1.00  0.00     0.205 C 
ENDBRANCH   3   9
BRANCH   3  11
HETATM   11  N1  UNL     1      29.294  10.401  47.924  1.00  0.00    -0.257 N 
HETATM   12  C8  UNL     1      29.579  11.521  48.795  1.00  0.00     0.295 A 
HETATM   13  N2  UNL     1      29.636  12.801  48.174  1.00  0.00    -0.278 NA
HETATM   14  C9  UNL     1      29.544  13.085  46.931  1.00  0.00     0.144 A 
HETATM   15  C10 UNL     1      29.344  11.922  46.067  1.00  0.00     0.073 A 
HETATM   16  C11 UNL     1      29.268  12.036  44.685  1.00  0.00     0.035 A 
HETATM   17  N3  UNL     1      29.233  10.647  46.524  1.00  0.00    -0.257 N 
HETATM   18  C12 UNL     1      29.101  10.731  44.279  1.00  0.00     0.029 A 
HETATM   19  C13 UNL     1      29.080   9.880  45.402  1.00  0.00     0.030 A 
HETATM   20  C14 UNL     1      28.931   8.431  45.271  1.00  0.00     0.070 C 
ENDBRANCH   3  11
BRANCH   4  21
HETATM   21  N4  UNL     1      31.340   8.610  47.923  1.00  0.00    -0.395 N 
HETATM   22  H16 UNL     1      32.070   8.214  47.309  1.00  0.00     0.156 HD
HETATM   23  H17 UNL     1      31.600   9.521  48.344  1.00  0.00     0.156 HD
ENDBRANCH   4  21
BRANCH   1  24
HETATM   24  C3  UNL     1      25.651   7.397  47.527  1.00  0.00     0.178 C 
HETATM   25  O1  UNL     1      25.315   7.935  46.439  1.00  0.00    -0.288 OA
BRANCH  24  26
HETATM   26  C2  UNL     1      24.549   6.703  48.151  1.00  0.00     0.045 C 
HETATM   27  C1  UNL     1      23.412   6.885  47.504  1.00  0.00     0.015 C 
ENDBRANCH  24  26
ENDBRANCH   1  24
BRANCH   5  28
HETATM   28  N5  UNL     1      31.177   6.045  48.305  1.00  0.00    -0.370 N 
HETATM   29  C17 UNL     1      31.945   5.832  49.517  1.00  0.00     0.151 C 
BRANCH  28  30
HETATM   30  C18 UNL     1      31.673   5.494  47.068  1.00  0.00     0.119 C 
HETATM   31  C19 UNL     1      31.991   4.014  47.195  1.00  0.00     0.026 C 
ENDBRANCH  28  30
ENDBRANCH   5  28
TORSDOF 7
ENDMDL
