MODEL 1
REMARK VINA RESULT:      -8.9      0.000      0.000
REMARK  7 active torsions:
REMARK  status: ('A' for Active; 'I' for Inactive)
REMARK    1  A    between atoms: C7_8  and  N1_9 
REMARK    2  A    between atoms: N1_9  and  C8_10 
REMARK    3  A    between atoms: C11_14  and  C12_15 
REMARK    4  A    between atoms: N3_19  and  C15_20 
REMARK    5  A    between atoms: C15_20  and  C17_22 
REMARK    6  A    between atoms: C18_23  and  C19_24 
REMARK    7  A    between atoms: C19_24  and  N4_25 
ROOT
HETATM    1  C8  UNL     1      24.808  -0.267  53.813  1.00  0.00     0.152 A 
HETATM    2  N2  UNL     1      24.971   0.466  52.812  1.00  0.00    -0.265 NA
HETATM    3  C9  UNL     1      24.035   1.040  51.947  1.00  0.00     0.208 A 
HETATM    4  C10 UNL     1      22.623   0.574  52.205  1.00  0.00     0.040 A 
HETATM    5  C11 UNL     1      21.722   0.936  51.364  1.00  0.00     0.058 C 
HETATM    6  N5  UNL     1      22.493  -0.235  53.356  1.00  0.00    -0.303 N 
HETATM    7  C22 UNL     1      21.394  -0.749  53.922  1.00  0.00     0.214 A 
HETATM    8  N6  UNL     1      21.646  -1.476  55.024  1.00  0.00    -0.253 NA
HETATM    9  C23 UNL     1      23.001  -1.444  55.202  1.00  0.00     0.151 A 
HETATM   10  C24 UNL     1      23.456  -0.675  54.157  1.00  0.00     0.103 A 
ENDROOT
BRANCH   5  11
HETATM   11  C12 UNL     1      20.366   0.955  50.898  1.00  0.00     0.052 A 
HETATM   12  C13 UNL     1      19.181   0.452  51.145  1.00  0.00     0.056 A 
HETATM   13 CL1  UNL     1      18.075  -0.559  52.059  1.00  0.00    -0.085 Cl
HETATM   14  C14 UNL     1      18.527   1.127  50.036  1.00  0.00     0.177 A 
HETATM   15  N3  UNL     1      19.815   1.687  49.805  1.00  0.00    -0.367 N 
BRANCH  15  16
HETATM   16  C15 UNL     1      20.035   2.629  48.724  1.00  0.00     0.103 C 
HETATM   17  C16 UNL     1      21.255   2.298  47.909  1.00  0.00     0.037 C 
BRANCH  16  18
HETATM   18  C17 UNL     1      20.175   3.977  49.308  1.00  0.00    -0.004 C 
HETATM   19  C18 UNL     1      21.164   4.588  49.978  1.00  0.00     0.001 C 
BRANCH  19  20
HETATM   20  C19 UNL     1      22.517   4.399  50.498  1.00  0.00     0.298 C 
BRANCH  20  21
HETATM   21  N4  UNL     1      22.898   5.280  51.570  1.00  0.00     0.083 N 
HETATM   22  C20 UNL     1      23.436   4.622  52.720  1.00  0.00     0.309 C 
HETATM   23  C21 UNL     1      23.772   6.358  51.166  1.00  0.00     0.309 C 
ENDBRANCH  20  21
ENDBRANCH  19  20
ENDBRANCH  16  18
ENDBRANCH  15  16
ENDBRANCH   5  11
BRANCH   1  24
HETATM   24  N1  UNL     1      25.935  -0.711  54.521  1.00  0.00    -0.339 N 
HETATM   25  H7  UNL     1      25.745  -1.378  55.314  1.00  0.00     0.167 HD
BRANCH  24  26
HETATM   26  C7  UNL     1      27.270  -0.333  54.235  1.00  0.00     0.042 A 
HETATM   27  C2  UNL     1      28.037  -1.135  53.412  1.00  0.00    -0.035 A 
HETATM   28  C1  UNL     1      27.492  -2.405  52.821  1.00  0.00     0.050 C 
HETATM   29  C3  UNL     1      29.340  -0.821  53.089  1.00  0.00     0.012 A 
HETATM   30  C4  UNL     1      29.956   0.316  53.566  1.00  0.00     0.043 A 
HETATM   31  C5  UNL     1      29.215   1.138  54.391  1.00  0.00     0.118 A 
HETATM   32  F1  UNL     1      29.773   2.267  54.887  1.00  0.00    -0.206 F 
HETATM   33  C6  UNL     1      27.919   0.787  54.688  1.00  0.00     0.072 A 
ENDBRANCH  24  26
ENDBRANCH   1  24
TORSDOF 7
ENDMDL
MODEL 2
REMARK VINA RESULT:      -8.2      2.645      4.746
REMARK  7 active torsions:
REMARK  status: ('A' for Active; 'I' for Inactive)
REMARK    1  A    between atoms: C7_8  and  N1_9 
REMARK    2  A    between atoms: N1_9  and  C8_10 
REMARK    3  A    between atoms: C11_14  and  C12_15 
REMARK    4  A    between atoms: N3_19  and  C15_20 
REMARK    5  A    between atoms: C15_20  and  C17_22 
REMARK    6  A    between atoms: C18_23  and  C19_24 
REMARK    7  A    between atoms: C19_24  and  N4_25 
ROOT
HETATM    1  C8  UNL     1      25.485   1.930  52.845  1.00  0.00     0.152 A 
HETATM    2  N2  UNL     1      24.334   1.668  53.263  1.00  0.00    -0.265 NA
HETATM    3  C9  UNL     1      23.089   1.826  52.650  1.00  0.00     0.208 A 
HETATM    4  C10 UNL     1      23.164   2.558  51.332  1.00  0.00     0.040 A 
HETATM    5  C11 UNL     1      22.053   2.877  50.773  1.00  0.00     0.058 C 
HETATM    6  N5  UNL     1      24.485   2.813  50.899  1.00  0.00    -0.303 N 
HETATM    7  C22 UNL     1      24.921   3.361  49.757  1.00  0.00     0.214 A 
HETATM    8  N6  UNL     1      26.260   3.448  49.680  1.00  0.00    -0.253 NA
HETATM    9  C23 UNL     1      26.746   2.925  50.845  1.00  0.00     0.151 A 
HETATM   10  C24 UNL     1      25.618   2.558  51.541  1.00  0.00     0.103 A 
ENDROOT
BRANCH   5  11
HETATM   11  C12 UNL     1      21.304   3.477  49.707  1.00  0.00     0.052 A 
HETATM   12  C13 UNL     1      21.445   4.199  48.623  1.00  0.00     0.056 A 
HETATM   13 CL1  UNL     1      22.409   5.080  47.450  1.00  0.00    -0.085 Cl
HETATM   14  C14 UNL     1      20.024   4.251  48.323  1.00  0.00     0.177 A 
HETATM   15  N3  UNL     1      19.895   3.440  49.486  1.00  0.00    -0.367 N 
BRANCH  15  16
HETATM   16  C15 UNL     1      18.595   2.968  49.925  1.00  0.00     0.103 C 
HETATM   17  C16 UNL     1      18.205   3.521  51.268  1.00  0.00     0.037 C 
BRANCH  16  18
HETATM   18  C17 UNL     1      18.635   1.494  49.984  1.00  0.00    -0.004 C 
HETATM   19  C18 UNL     1      19.039   0.624  50.923  1.00  0.00     0.001 C 
BRANCH  19  20
HETATM   20  C19 UNL     1      19.607   0.532  52.267  1.00  0.00     0.298 C 
BRANCH  20  21
HETATM   21  N4  UNL     1      19.545  -0.769  52.878  1.00  0.00     0.083 N 
HETATM   22  C20 UNL     1      20.463  -0.965  53.956  1.00  0.00     0.309 C 
HETATM   23  C21 UNL     1      18.216  -1.168  53.283  1.00  0.00     0.309 C 
ENDBRANCH  20  21
ENDBRANCH  19  20
ENDBRANCH  16  18
ENDBRANCH  15  16
ENDBRANCH   5  11
BRANCH   1  24
HETATM   24  N1  UNL     1      26.586   1.665  53.673  1.00  0.00    -0.339 N 
HETATM   25  H7  UNL     1      26.742   2.348  54.460  1.00  0.00     0.167 HD
BRANCH  24  26
HETATM   26  C7  UNL     1      27.464   0.563  53.523  1.00  0.00     0.042 A 
HETATM   27  C2  UNL     1      28.799   0.716  53.843  1.00  0.00    -0.035 A 
HETATM   28  C1  UNL     1      29.345   2.026  54.337  1.00  0.00     0.050 C 
HETATM   29  C3  UNL     1      29.704  -0.318  53.726  1.00  0.00     0.012 A 
HETATM   30  C4  UNL     1      29.329  -1.569  53.284  1.00  0.00     0.043 A 
HETATM   31  C5  UNL     1      28.001  -1.753  52.957  1.00  0.00     0.118 A 
HETATM   32  F1  UNL     1      27.580  -2.961  52.517  1.00  0.00    -0.206 F 
HETATM   33  C6  UNL     1      27.132  -0.694  53.088  1.00  0.00     0.072 A 
ENDBRANCH  24  26
ENDBRANCH   1  24
TORSDOF 7
ENDMDL
MODEL 3
REMARK VINA RESULT:      -8.1      2.522      4.467
REMARK  7 active torsions:
REMARK  status: ('A' for Active; 'I' for Inactive)
REMARK    1  A    between atoms: C7_8  and  N1_9 
REMARK    2  A    between atoms: N1_9  and  C8_10 
REMARK    3  A    between atoms: C11_14  and  C12_15 
REMARK    4  A    between atoms: N3_19  and  C15_20 
REMARK    5  A    between atoms: C15_20  and  C17_22 
REMARK    6  A    between atoms: C18_23  and  C19_24 
REMARK    7  A    between atoms: C19_24  and  N4_25 
ROOT
HETATM    1  C8  UNL     1      25.374   1.549  53.149  1.00  0.00     0.152 A 
HETATM    2  N2  UNL     1      25.609   2.591  52.497  1.00  0.00    -0.265 NA
HETATM    3  C9  UNL     1      24.844   3.247  51.529  1.00  0.00     0.208 A 
HETATM    4  C10 UNL     1      23.607   2.479  51.129  1.00  0.00     0.040 A 
HETATM    5  C11 UNL     1      22.926   2.937  50.141  1.00  0.00     0.058 C 
HETATM    6  N5  UNL     1      23.380   1.322  51.908  1.00  0.00    -0.303 N 
HETATM    7  C22 UNL     1      22.354   0.463  51.886  1.00  0.00     0.214 A 
HETATM    8  N6  UNL     1      22.468  -0.535  52.779  1.00  0.00    -0.253 NA
HETATM    9  C23 UNL     1      23.647  -0.326  53.438  1.00  0.00     0.151 A 
HETATM   10  C24 UNL     1      24.151   0.817  52.863  1.00  0.00     0.103 A 
ENDROOT
BRANCH   5  11
HETATM   11  C12 UNL     1      21.814   2.870  49.237  1.00  0.00     0.052 A 
HETATM   12  C13 UNL     1      21.511   2.949  47.965  1.00  0.00     0.056 A 
HETATM   13 CL1  UNL     1      21.924   3.165  46.273  1.00  0.00    -0.085 Cl
HETATM   14  C14 UNL     1      20.083   2.761  48.167  1.00  0.00     0.177 A 
HETATM   15  N3  UNL     1      20.438   2.647  49.541  1.00  0.00    -0.367 N 
BRANCH  15  16
HETATM   16  C15 UNL     1      19.430   2.392  50.552  1.00  0.00     0.103 C 
HETATM   17  C16 UNL     1      19.774   3.012  51.878  1.00  0.00     0.037 C 
BRANCH  16  18
HETATM   18  C17 UNL     1      19.289   0.932  50.705  1.00  0.00    -0.004 C 
HETATM   19  C18 UNL     1      18.345   0.153  51.256  1.00  0.00     0.001 C 
BRANCH  19  20
HETATM   20  C19 UNL     1      17.058   0.187  51.949  1.00  0.00     0.298 C 
BRANCH  20  21
HETATM   21  N4  UNL     1      16.796  -0.926  52.823  1.00  0.00     0.083 N 
HETATM   22  C20 UNL     1      15.897  -1.902  52.290  1.00  0.00     0.309 C 
HETATM   23  C21 UNL     1      17.985  -1.574  53.327  1.00  0.00     0.309 C 
ENDBRANCH  20  21
ENDBRANCH  19  20
ENDBRANCH  16  18
ENDBRANCH  15  16
ENDBRANCH   5  11
BRANCH   1  24
HETATM   24  N1  UNL     1      26.324   1.100  54.079  1.00  0.00    -0.339 N 
HETATM   25  H7  UNL     1      26.174   1.410  55.074  1.00  0.00     0.167 HD
BRANCH  24  26
HETATM   26  C7  UNL     1      27.432   0.272  53.767  1.00  0.00     0.042 A 
HETATM   27  C2  UNL     1      28.703   0.811  53.787  1.00  0.00    -0.035 A 
HETATM   28  C1  UNL     1      28.940   2.258  54.120  1.00  0.00     0.050 C 
HETATM   29  C3  UNL     1      29.823   0.060  53.501  1.00  0.00     0.012 A 
HETATM   30  C4  UNL     1      29.741  -1.278  53.180  1.00  0.00     0.043 A 
HETATM   31  C5  UNL     1      28.483  -1.847  53.152  1.00  0.00     0.118 A 
HETATM   32  F1  UNL     1      28.346  -3.157  52.843  1.00  0.00    -0.206 F 
HETATM   33  C6  UNL     1      27.393  -1.060  53.444  1.00  0.00     0.072 A 
ENDBRANCH  24  26
ENDBRANCH   1  24
TORSDOF 7
ENDMDL
MODEL 4
REMARK VINA RESULT:      -8.1      1.941      2.686
REMARK  7 active torsions:
REMARK  status: ('A' for Active; 'I' for Inactive)
REMARK    1  A    between atoms: C7_8  and  N1_9 
REMARK    2  A    between atoms: N1_9  and  C8_10 
REMARK    3  A    between atoms: C11_14  and  C12_15 
REMARK    4  A    between atoms: N3_19  and  C15_20 
REMARK    5  A    between atoms: C15_20  and  C17_22 
REMARK    6  A    between atoms: C18_23  and  C19_24 
REMARK    7  A    between atoms: C19_24  and  N4_25 
ROOT
HETATM    1  C8  UNL     1      24.542   0.656  53.336  1.00  0.00     0.152 A 
HETATM    2  N2  UNL     1      25.015   1.769  53.014  1.00  0.00    -0.265 NA
HETATM    3  C9  UNL     1      24.393   2.895  52.468  1.00  0.00     0.208 A 
HETATM    4  C10 UNL     1      22.952   2.652  52.090  1.00  0.00     0.040 A 
HETATM    5  C11 UNL     1      22.348   3.586  51.447  1.00  0.00     0.058 C 
HETATM    6  N5  UNL     1      22.464   1.389  52.493  1.00  0.00    -0.303 N 
HETATM    7  C22 UNL     1      21.230   0.877  52.397  1.00  0.00     0.214 A 
HETATM    8  N6  UNL     1      21.125  -0.369  52.891  1.00  0.00    -0.253 NA
HETATM    9  C23 UNL     1      22.369  -0.708  53.344  1.00  0.00     0.151 A 
HETATM   10  C24 UNL     1      23.135   0.402  53.073  1.00  0.00     0.103 A 
ENDROOT
BRANCH   5  11
HETATM   11  C12 UNL     1      21.188   4.124  50.798  1.00  0.00     0.052 A 
HETATM   12  C13 UNL     1      19.880   4.153  50.875  1.00  0.00     0.056 A 
HETATM   13 CL1  UNL     1      18.352   3.719  51.620  1.00  0.00    -0.085 Cl
HETATM   14  C14 UNL     1      19.705   4.976  49.690  1.00  0.00     0.177 A 
HETATM   15  N3  UNL     1      21.128   4.959  49.643  1.00  0.00    -0.367 N 
BRANCH  15  16
HETATM   16  C15 UNL     1      21.848   5.677  48.608  1.00  0.00     0.103 C 
HETATM   17  C16 UNL     1      22.722   4.774  47.781  1.00  0.00     0.037 C 
BRANCH  16  18
HETATM   18  C17 UNL     1      22.673   6.714  49.255  1.00  0.00    -0.004 C 
HETATM   19  C18 UNL     1      23.872   6.690  49.857  1.00  0.00     0.001 C 
BRANCH  19  20
HETATM   20  C19 UNL     1      24.980   5.810  50.224  1.00  0.00     0.298 C 
BRANCH  20  21
HETATM   21  N4  UNL     1      25.801   5.359  49.132  1.00  0.00     0.083 N 
HETATM   22  C20 UNL     1      26.677   6.354  48.596  1.00  0.00     0.309 C 
HETATM   23  C21 UNL     1      26.542   4.149  49.410  1.00  0.00     0.309 C 
ENDBRANCH  20  21
ENDBRANCH  19  20
ENDBRANCH  16  18
ENDBRANCH  15  16
ENDBRANCH   5  11
BRANCH   1  24
HETATM   24  N1  UNL     1      25.398  -0.316  53.877  1.00  0.00    -0.339 N 
HETATM   25  H7  UNL     1      24.926  -1.155  54.305  1.00  0.00     0.167 HD
BRANCH  24  26
HETATM   26  C7  UNL     1      26.813  -0.240  53.873  1.00  0.00     0.042 A 
HETATM   27  C2  UNL     1      27.537  -1.174  53.159  1.00  0.00    -0.035 A 
HETATM   28  C1  UNL     1      26.860  -2.276  52.393  1.00  0.00     0.050 C 
HETATM   29  C3  UNL     1      28.915  -1.152  53.108  1.00  0.00     0.012 A 
HETATM   30  C4  UNL     1      29.653  -0.193  53.768  1.00  0.00     0.043 A 
HETATM   31  C5  UNL     1      28.958   0.756  54.491  1.00  0.00     0.118 A 
HETATM   32  F1  UNL     1      29.635   1.720  55.157  1.00  0.00    -0.206 F 
HETATM   33  C6  UNL     1      27.583   0.697  54.514  1.00  0.00     0.072 A 
ENDBRANCH  24  26
ENDBRANCH   1  24
TORSDOF 7
ENDMDL
MODEL 5
REMARK VINA RESULT:      -8.1      4.594      6.706
REMARK  7 active torsions:
REMARK  status: ('A' for Active; 'I' for Inactive)
REMARK    1  A    between atoms: C7_8  and  N1_9 
REMARK    2  A    between atoms: N1_9  and  C8_10 
REMARK    3  A    between atoms: C11_14  and  C12_15 
REMARK    4  A    between atoms: N3_19  and  C15_20 
REMARK    5  A    between atoms: C15_20  and  C17_22 
REMARK    6  A    between atoms: C18_23  and  C19_24 
REMARK    7  A    between atoms: C19_24  and  N4_25 
ROOT
HETATM    1  C8  UNL     1      25.931   2.483  51.226  1.00  0.00     0.152 A 
HETATM    2  N2  UNL     1      26.712   2.734  50.280  1.00  0.00    -0.265 NA
HETATM    3  C9  UNL     1      26.796   3.853  49.447  1.00  0.00     0.208 A 
HETATM    4  C10 UNL     1      25.669   4.835  49.656  1.00  0.00     0.040 A 
HETATM    5  C11 UNL     1      25.586   5.817  48.832  1.00  0.00     0.058 C 
HETATM    6  N5  UNL     1      24.829   4.513  50.746  1.00  0.00    -0.303 N 
HETATM    7  C22 UNL     1      23.797   5.192  51.261  1.00  0.00     0.214 A 
HETATM    8  N6  UNL     1      23.222   4.582  52.312  1.00  0.00    -0.253 NA
HETATM    9  C23 UNL     1      23.917   3.421  52.508  1.00  0.00     0.151 A 
HETATM   10  C24 UNL     1      24.879   3.440  51.525  1.00  0.00     0.103 A 
ENDROOT
BRANCH   5  11
HETATM   11  C12 UNL     1      24.953   7.011  48.353  1.00  0.00     0.052 A 
HETATM   12  C13 UNL     1      23.775   7.528  48.104  1.00  0.00     0.056 A 
HETATM   13 CL1  UNL     1      22.022   7.462  48.050  1.00  0.00    -0.085 Cl
HETATM   14  C14 UNL     1      24.297   8.796  47.622  1.00  0.00     0.177 A 
HETATM   15  N3  UNL     1      25.565   8.228  47.929  1.00  0.00    -0.367 N 
BRANCH  15  16
HETATM   16  C15 UNL     1      26.788   8.981  47.724  1.00  0.00     0.103 C 
HETATM   17  C16 UNL     1      27.648   8.399  46.637  1.00  0.00     0.037 C 
BRANCH  16  18
HETATM   18  C17 UNL     1      27.536   9.000  48.996  1.00  0.00    -0.004 C 
HETATM   19  C18 UNL     1      28.695   9.564  49.370  1.00  0.00     0.001 C 
BRANCH  19  20
HETATM   20  C19 UNL     1      29.806  10.385  48.891  1.00  0.00     0.298 C 
BRANCH  20  21
HETATM   21  N4  UNL     1      31.016   9.671  48.584  1.00  0.00     0.083 N 
HETATM   22  C20 UNL     1      31.188   8.450  49.307  1.00  0.00     0.309 C 
HETATM   23  C21 UNL     1      31.225   9.441  47.172  1.00  0.00     0.309 C 
ENDBRANCH  20  21
ENDBRANCH  19  20
ENDBRANCH  16  18
ENDBRANCH  15  16
ENDBRANCH   5  11
BRANCH   1  24
HETATM   24  N1  UNL     1      26.066   1.267  51.914  1.00  0.00    -0.339 N 
HETATM   25  H7  UNL     1      25.275   0.582  51.793  1.00  0.00     0.167 HD
BRANCH  24  26
HETATM   26  C7  UNL     1      27.172   0.917  52.728  1.00  0.00     0.042 A 
HETATM   27  C2  UNL     1      27.493  -0.416  52.893  1.00  0.00    -0.035 A 
HETATM   28  C1  UNL     1      26.690  -1.505  52.239  1.00  0.00     0.050 C 
HETATM   29  C3  UNL     1      28.560  -0.824  53.665  1.00  0.00     0.012 A 
HETATM   30  C4  UNL     1      29.374   0.077  54.318  1.00  0.00     0.043 A 
HETATM   31  C5  UNL     1      29.079   1.418  54.172  1.00  0.00     0.118 A 
HETATM   32  F1  UNL     1      29.847   2.344  54.792  1.00  0.00    -0.206 F 
HETATM   33  C6  UNL     1      28.005   1.780  53.392  1.00  0.00     0.072 A 
ENDBRANCH  24  26
ENDBRANCH   1  24
TORSDOF 7
ENDMDL
MODEL 6
REMARK VINA RESULT:      -7.9      2.550      4.078
REMARK  7 active torsions:
REMARK  status: ('A' for Active; 'I' for Inactive)
REMARK    1  A    between atoms: C7_8  and  N1_9 
REMARK    2  A    between atoms: N1_9  and  C8_10 
REMARK    3  A    between atoms: C11_14  and  C12_15 
REMARK    4  A    between atoms: N3_19  and  C15_20 
REMARK    5  A    between atoms: C15_20  and  C17_22 
REMARK    6  A    between atoms: C18_23  and  C19_24 
REMARK    7  A    between atoms: C19_24  and  N4_25 
ROOT
HETATM    1  C8  UNL     1      25.233   1.368  51.942  1.00  0.00     0.152 A 
HETATM    2  N2  UNL     1      26.065   2.139  51.415  1.00  0.00    -0.265 NA
HETATM    3  C9  UNL     1      25.881   3.194  50.517  1.00  0.00     0.208 A 
HETATM    4  C10 UNL     1      24.461   3.308  50.016  1.00  0.00     0.040 A 
HETATM    5  C11 UNL     1      24.236   4.154  49.077  1.00  0.00     0.058 C 
HETATM    6  N5  UNL     1      23.561   2.427  50.657  1.00  0.00    -0.303 N 
HETATM    7  C22 UNL     1      22.234   2.313  50.524  1.00  0.00     0.214 A 
HETATM    8  N6  UNL     1      21.695   1.358  51.301  1.00  0.00    -0.253 NA
HETATM    9  C23 UNL     1      22.732   0.800  51.996  1.00  0.00     0.151 A 
HETATM   10  C24 UNL     1      23.836   1.493  51.559  1.00  0.00     0.103 A 
ENDROOT
BRANCH   5  11
HETATM   11  C12 UNL     1      23.354   4.811  48.156  1.00  0.00     0.052 A 
HETATM   12  C13 UNL     1      22.336   4.588  47.363  1.00  0.00     0.056 A 
HETATM   13 CL1  UNL     1      21.123   3.549  46.635  1.00  0.00    -0.085 Cl
HETATM   14  C14 UNL     1      22.254   5.957  46.880  1.00  0.00     0.177 A 
HETATM   15  N3  UNL     1      23.340   6.185  47.771  1.00  0.00    -0.367 N 
BRANCH  15  16
HETATM   16  C15 UNL     1      23.919   7.507  47.918  1.00  0.00     0.103 C 
HETATM   17  C16 UNL     1      25.367   7.550  47.518  1.00  0.00     0.037 C 
BRANCH  16  18
HETATM   18  C17 UNL     1      23.779   7.918  49.328  1.00  0.00    -0.004 C 
HETATM   19  C18 UNL     1      22.737   7.959  50.174  1.00  0.00     0.001 C 
BRANCH  19  20
HETATM   20  C19 UNL     1      21.305   7.687  50.280  1.00  0.00     0.298 C 
BRANCH  20  21
HETATM   21  N4  UNL     1      20.956   6.445  50.917  1.00  0.00     0.083 N 
HETATM   22  C20 UNL     1      20.245   5.527  50.082  1.00  0.00     0.309 C 
HETATM   23  C21 UNL     1      22.067   5.774  51.552  1.00  0.00     0.309 C 
ENDBRANCH  20  21
ENDBRANCH  19  20
ENDBRANCH  16  18
ENDBRANCH  15  16
ENDBRANCH   5  11
BRANCH   1  24
HETATM   24  N1  UNL     1      25.688   0.380  52.829  1.00  0.00    -0.339 N 
HETATM   25  H7  UNL     1      24.953  -0.278  53.199  1.00  0.00     0.167 HD
BRANCH  24  26
HETATM   26  C7  UNL     1      27.036   0.216  53.233  1.00  0.00     0.042 A 
HETATM   27  C2  UNL     1      27.666  -0.992  53.007  1.00  0.00    -0.035 A 
HETATM   28  C1  UNL     1      26.954  -2.140  52.349  1.00  0.00     0.050 C 
HETATM   29  C3  UNL     1      28.978  -1.214  53.369  1.00  0.00     0.012 A 
HETATM   30  C4  UNL     1      29.741  -0.242  53.980  1.00  0.00     0.043 A 
HETATM   31  C5  UNL     1      29.139   0.977  54.220  1.00  0.00     0.118 A 
HETATM   32  F1  UNL     1      29.843   1.967  54.817  1.00  0.00    -0.206 F 
HETATM   33  C6  UNL     1      27.828   1.156  53.842  1.00  0.00     0.072 A 
ENDBRANCH  24  26
ENDBRANCH   1  24
TORSDOF 7
ENDMDL
MODEL 7
REMARK VINA RESULT:      -7.9      3.587      5.585
REMARK  7 active torsions:
REMARK  status: ('A' for Active; 'I' for Inactive)
REMARK    1  A    between atoms: C7_8  and  N1_9 
REMARK    2  A    between atoms: N1_9  and  C8_10 
REMARK    3  A    between atoms: C11_14  and  C12_15 
REMARK    4  A    between atoms: N3_19  and  C15_20 
REMARK    5  A    between atoms: C15_20  and  C17_22 
REMARK    6  A    between atoms: C18_23  and  C19_24 
REMARK    7  A    between atoms: C19_24  and  N4_25 
ROOT
HETATM    1  C8  UNL     1      25.936   2.584  51.077  1.00  0.00     0.152 A 
HETATM    2  N2  UNL     1      26.634   2.925  50.095  1.00  0.00    -0.265 NA
HETATM    3  C9  UNL     1      26.634   4.106  49.349  1.00  0.00     0.208 A 
HETATM    4  C10 UNL     1      25.511   5.044  49.722  1.00  0.00     0.040 A 
HETATM    5  C11 UNL     1      25.347   6.085  48.987  1.00  0.00     0.058 C 
HETATM    6  N5  UNL     1      24.767   4.621  50.846  1.00  0.00    -0.303 N 
HETATM    7  C22 UNL     1      23.769   5.235  51.493  1.00  0.00     0.214 A 
HETATM    8  N6  UNL     1      23.290   4.533  52.534  1.00  0.00    -0.253 NA
HETATM    9  C23 UNL     1      24.016   3.377  52.583  1.00  0.00     0.151 A 
HETATM   10  C24 UNL     1      24.896   3.492  51.532  1.00  0.00     0.103 A 
ENDROOT
BRANCH   5  11
HETATM   11  C12 UNL     1      24.658   7.298  48.655  1.00  0.00     0.052 A 
HETATM   12  C13 UNL     1      24.840   8.591  48.538  1.00  0.00     0.056 A 
HETATM   13 CL1  UNL     1      25.826  10.040  48.609  1.00  0.00    -0.085 Cl
HETATM   14  C14 UNL     1      23.462   8.876  48.173  1.00  0.00     0.177 A 
HETATM   15  N3  UNL     1      23.294   7.466  48.275  1.00  0.00    -0.367 N 
BRANCH  15  16
HETATM   16  C15 UNL     1      22.011   6.847  47.999  1.00  0.00     0.103 C 
HETATM   17  C16 UNL     1      21.293   6.426  49.251  1.00  0.00     0.037 C 
BRANCH  16  18
HETATM   18  C17 UNL     1      22.242   5.671  47.138  1.00  0.00    -0.004 C 
HETATM   19  C18 UNL     1      22.395   4.362  47.392  1.00  0.00     0.001 C 
BRANCH  19  20
HETATM   20  C19 UNL     1      22.435   3.377  48.471  1.00  0.00     0.298 C 
BRANCH  20  21
HETATM   21  N4  UNL     1      21.247   2.579  48.626  1.00  0.00     0.083 N 
HETATM   22  C20 UNL     1      20.225   2.839  47.661  1.00  0.00     0.309 C 
HETATM   23  C21 UNL     1      21.497   1.158  48.709  1.00  0.00     0.309 C 
ENDBRANCH  20  21
ENDBRANCH  19  20
ENDBRANCH  16  18
ENDBRANCH  15  16
ENDBRANCH   5  11
BRANCH   1  24
HETATM   24  N1  UNL     1      26.144   1.323  51.654  1.00  0.00    -0.339 N 
HETATM   25  H7  UNL     1      25.463   0.570  51.371  1.00  0.00     0.167 HD
BRANCH  24  26
HETATM   26  C7  UNL     1      27.189   1.010  52.559  1.00  0.00     0.042 A 
HETATM   27  C2  UNL     1      27.461  -0.313  52.845  1.00  0.00    -0.035 A 
HETATM   28  C1  UNL     1      26.670  -1.430  52.227  1.00  0.00     0.050 C 
HETATM   29  C3  UNL     1      28.468  -0.684  53.711  1.00  0.00     0.012 A 
HETATM   30  C4  UNL     1      29.266   0.245  54.343  1.00  0.00     0.043 A 
HETATM   31  C5  UNL     1      29.019   1.577  54.078  1.00  0.00     0.118 A 
HETATM   32  F1  UNL     1      29.773   2.530  54.672  1.00  0.00    -0.206 F 
HETATM   33  C6  UNL     1      28.004   1.903  53.207  1.00  0.00     0.072 A 
ENDBRANCH  24  26
ENDBRANCH   1  24
TORSDOF 7
ENDMDL
MODEL 8
REMARK VINA RESULT:      -7.9      5.965      9.012
REMARK  7 active torsions:
REMARK  status: ('A' for Active; 'I' for Inactive)
REMARK    1  A    between atoms: C7_8  and  N1_9 
REMARK    2  A    between atoms: N1_9  and  C8_10 
REMARK    3  A    between atoms: C11_14  and  C12_15 
REMARK    4  A    between atoms: N3_19  and  C15_20 
REMARK    5  A    between atoms: C15_20  and  C17_22 
REMARK    6  A    between atoms: C18_23  and  C19_24 
REMARK    7  A    between atoms: C19_24  and  N4_25 
ROOT
HETATM    1  C8  UNL     1      25.739   4.063  49.848  1.00  0.00     0.152 A 
HETATM    2  N2  UNL     1      26.756   3.939  49.129  1.00  0.00    -0.265 NA
HETATM    3  C9  UNL     1      27.625   4.905  48.614  1.00  0.00     0.208 A 
HETATM    4  C10 UNL     1      27.158   6.318  48.865  1.00  0.00     0.040 A 
HETATM    5  C11 UNL     1      27.818   7.264  48.299  1.00  0.00     0.058 C 
HETATM    6  N5  UNL     1      26.018   6.400  49.696  1.00  0.00    -0.303 N 
HETATM    7  C22 UNL     1      25.391   7.478  50.185  1.00  0.00     0.214 A 
HETATM    8  N6  UNL     1      24.327   7.180  50.951  1.00  0.00    -0.253 NA
HETATM    9  C23 UNL     1      24.242   5.816  50.973  1.00  0.00     0.151 A 
HETATM   10  C24 UNL     1      25.296   5.404  50.193  1.00  0.00     0.103 A 
ENDROOT
BRANCH   5  11
HETATM   11  C12 UNL     1      28.047   8.653  48.024  1.00  0.00     0.052 A 
HETATM   12  C13 UNL     1      27.465   9.826  48.074  1.00  0.00     0.056 A 
HETATM   13 CL1  UNL     1      26.106  10.880  48.424  1.00  0.00    -0.085 Cl
HETATM   14  C14 UNL     1      28.603  10.550  47.531  1.00  0.00     0.177 A 
HETATM   15  N3  UNL     1      29.227   9.271  47.515  1.00  0.00    -0.367 N 
BRANCH  15  16
HETATM   16  C15 UNL     1      30.596   9.116  47.061  1.00  0.00     0.103 C 
HETATM   17  C16 UNL     1      30.745   8.018  46.044  1.00  0.00     0.037 C 
BRANCH  16  18
HETATM   18  C17 UNL     1      31.442   8.826  48.235  1.00  0.00    -0.004 C 
HETATM   19  C18 UNL     1      31.621   7.731  48.989  1.00  0.00     0.001 C 
BRANCH  19  20
HETATM   20  C19 UNL     1      31.199   6.342  49.154  1.00  0.00     0.298 C 
BRANCH  20  21
HETATM   21  N4  UNL     1      32.159   5.350  48.750  1.00  0.00     0.083 N 
HETATM   22  C20 UNL     1      31.842   4.676  47.529  1.00  0.00     0.309 C 
HETATM   23  C21 UNL     1      33.522   5.830  48.708  1.00  0.00     0.309 C 
ENDBRANCH  20  21
ENDBRANCH  19  20
ENDBRANCH  16  18
ENDBRANCH  15  16
ENDBRANCH   5  11
BRANCH   1  24
HETATM   24  N1  UNL     1      25.038   2.911  50.237  1.00  0.00    -0.339 N 
HETATM   25  H7  UNL     1      24.166   2.697  49.686  1.00  0.00     0.167 HD
BRANCH  24  26
HETATM   26  C7  UNL     1      25.427   2.044  51.288  1.00  0.00     0.042 A 
HETATM   27  C2  UNL     1      24.455   1.388  52.017  1.00  0.00    -0.035 A 
HETATM   28  C1  UNL     1      22.993   1.580  51.729  1.00  0.00     0.050 C 
HETATM   29  C3  UNL     1      24.767   0.526  53.047  1.00  0.00     0.012 A 
HETATM   30  C4  UNL     1      26.071   0.265  53.410  1.00  0.00     0.043 A 
HETATM   31  C5  UNL     1      27.066   0.905  52.699  1.00  0.00     0.118 A 
HETATM   32  F1  UNL     1      28.363   0.684  53.015  1.00  0.00    -0.206 F 
HETATM   33  C6  UNL     1      26.710   1.758  51.679  1.00  0.00     0.072 A 
ENDBRANCH  24  26
ENDBRANCH   1  24
TORSDOF 7
ENDMDL
MODEL 9
REMARK VINA RESULT:      -7.9      3.335      7.513
REMARK  7 active torsions:
REMARK  status: ('A' for Active; 'I' for Inactive)
REMARK    1  A    between atoms: C7_8  and  N1_9 
REMARK    2  A    between atoms: N1_9  and  C8_10 
REMARK    3  A    between atoms: C11_14  and  C12_15 
REMARK    4  A    between atoms: N3_19  and  C15_20 
REMARK    5  A    between atoms: C15_20  and  C17_22 
REMARK    6  A    between atoms: C18_23  and  C19_24 
REMARK    7  A    between atoms: C19_24  and  N4_25 
ROOT
HETATM    1  C8  UNL     1      25.225   5.397  50.088  1.00  0.00     0.152 A 
HETATM    2  N2  UNL     1      25.979   4.401  50.026  1.00  0.00    -0.265 NA
HETATM    3  C9  UNL     1      25.797   3.095  50.491  1.00  0.00     0.208 A 
HETATM    4  C10 UNL     1      24.542   2.928  51.313  1.00  0.00     0.040 A 
HETATM    5  C11 UNL     1      24.373   1.799  51.902  1.00  0.00     0.058 C 
HETATM    6  N5  UNL     1      23.719   4.076  51.335  1.00  0.00    -0.303 N 
HETATM    7  C22 UNL     1      22.513   4.255  51.888  1.00  0.00     0.214 A 
HETATM    8  N6  UNL     1      22.017   5.491  51.709  1.00  0.00    -0.253 NA
HETATM    9  C23 UNL     1      22.954   6.180  50.990  1.00  0.00     0.151 A 
HETATM   10  C24 UNL     1      23.962   5.264  50.795  1.00  0.00     0.103 A 
ENDROOT
BRANCH   5  11
HETATM   11  C12 UNL     1      23.616   0.914  52.740  1.00  0.00     0.052 A 
HETATM   12  C13 UNL     1      22.388   0.625  53.094  1.00  0.00     0.056 A 
HETATM   13 CL1  UNL     1      20.650   0.858  53.031  1.00  0.00    -0.085 Cl
HETATM   14  C14 UNL     1      22.772  -0.427  54.021  1.00  0.00     0.177 A 
HETATM   15  N3  UNL     1      24.096  -0.119  53.598  1.00  0.00    -0.367 N 
BRANCH  15  16
HETATM   16  C15 UNL     1      25.234  -0.852  54.119  1.00  0.00     0.103 C 
HETATM   17  C16 UNL     1      25.914  -0.132  55.251  1.00  0.00     0.037 C 
BRANCH  16  18
HETATM   18  C17 UNL     1      26.191  -1.063  53.017  1.00  0.00    -0.004 C 
HETATM   19  C18 UNL     1      27.206  -0.333  52.529  1.00  0.00     0.001 C 
BRANCH  19  20
HETATM   20  C19 UNL     1      27.933   0.923  52.703  1.00  0.00     0.298 C 
BRANCH  20  21
HETATM   21  N4  UNL     1      29.187   0.821  53.401  1.00  0.00     0.083 N 
HETATM   22  C20 UNL     1      29.293   1.653  54.559  1.00  0.00     0.309 C 
HETATM   23  C21 UNL     1      29.572  -0.533  53.730  1.00  0.00     0.309 C 
ENDBRANCH  20  21
ENDBRANCH  19  20
ENDBRANCH  16  18
ENDBRANCH  15  16
ENDBRANCH   5  11
BRANCH   1  24
HETATM   24  N1  UNL     1      25.654   6.611  49.528  1.00  0.00    -0.339 N 
HETATM   25  H7  UNL     1      25.075   7.457  49.770  1.00  0.00     0.167 HD
BRANCH  24  26
HETATM   26  C7  UNL     1      26.789   6.759  48.693  1.00  0.00     0.042 A 
HETATM   27  C2  UNL     1      26.838   7.814  47.803  1.00  0.00    -0.035 A 
HETATM   28  C1  UNL     1      25.713   8.804  47.694  1.00  0.00     0.050 C 
HETATM   29  C3  UNL     1      27.916   8.019  46.968  1.00  0.00     0.012 A 
HETATM   30  C4  UNL     1      29.011   7.182  46.971  1.00  0.00     0.043 A 
HETATM   31  C5  UNL     1      28.991   6.117  47.850  1.00  0.00     0.118 A 
HETATM   32  F1  UNL     1      30.041   5.265  47.893  1.00  0.00    -0.206 F 
HETATM   33  C6  UNL     1      27.896   5.950  48.666  1.00  0.00     0.072 A 
ENDBRANCH  24  26
ENDBRANCH   1  24
TORSDOF 7
ENDMDL
