MODEL 1
REMARK VINA RESULT:      -7.3      0.000      0.000
REMARK  5 active torsions:
REMARK  status: ('A' for Active; 'I' for Inactive)
REMARK    1  A    between atoms: O1_2  and  C2_3 
REMARK       I    between atoms: C2_3  and  N1_5 
REMARK    2  A    between atoms: C4_7  and  N2_8 
REMARK    3  A    between atoms: N2_8  and  C5_9 
REMARK    4  A    between atoms: C9_15  and  O3_16 
REMARK    5  A    between atoms: C11_18  and  O4_19 
ROOT
HETATM    1  C5  UNL     1      26.466   2.396  51.246  1.00  0.00     0.142 A 
HETATM    2  N3  UNL     1      27.608   2.571  51.892  1.00  0.00    -0.224 NA
HETATM    3  C6  UNL     1      27.755   2.199  53.197  1.00  0.00     0.236 A 
HETATM    4  N4  UNL     1      26.701   1.631  53.854  1.00  0.00    -0.241 NA
HETATM    5  C7  UNL     1      25.516   1.444  53.203  1.00  0.00     0.075 A 
HETATM    6  C8  UNL     1      24.462   0.869  53.884  1.00  0.00     0.072 A 
HETATM    7  C9  UNL     1      23.272   0.700  53.175  1.00  0.00     0.103 A 
HETATM    8  C11 UNL     1      23.105   1.071  51.855  1.00  0.00     0.102 A 
HETATM    9  C13 UNL     1      24.193   1.643  51.214  1.00  0.00     0.057 A 
HETATM   10  C14 UNL     1      25.384   1.826  51.884  1.00  0.00     0.042 A 
ENDROOT
BRANCH   1  11
HETATM   11  N2  UNL     1      26.423   2.818  49.900  1.00  0.00    -0.339 N 
HETATM   12  H5  UNL     1      26.346   2.280  49.010  1.00  0.00     0.167 HD
BRANCH  11  13
HETATM   13  C4  UNL     1      26.492   4.208  49.603  1.00  0.00     0.049 A 
HETATM   14  C3  UNL     1      25.613   5.086  50.082  1.00  0.00     0.126 A 
HETATM   15  N1  UNL     1      25.705   6.469  49.771  1.00  0.00    -0.298 N 
HETATM   16  C2  UNL     1      24.745   7.375  50.303  1.00  0.00     0.366 C 
HETATM   17  C17 UNL     1      26.734   6.998  48.935  1.00  0.00     0.161 A 
HETATM   18  O2  UNL     1      24.770   8.611  50.067  1.00  0.00    -0.238 OA
HETATM   19  C16 UNL     1      27.679   6.005  48.428  1.00  0.00    -0.004 A 
HETATM   20  C15 UNL     1      27.563   4.727  48.738  1.00  0.00     0.028 A 
BRANCH  16  21
HETATM   21  O1  UNL     1      23.701   6.973  51.129  1.00  0.00    -0.309 OA
HETATM   22  C1  UNL     1      22.341   7.067  50.735  1.00  0.00     0.215 C 
ENDBRANCH  16  21
ENDBRANCH  11  13
ENDBRANCH   1  11
BRANCH   8  23
HETATM   23  O4  UNL     1      21.880   0.858  51.235  1.00  0.00    -0.353 OA
HETATM   24  C12 UNL     1      21.724   1.328  49.887  1.00  0.00     0.210 C 
ENDBRANCH   8  23
BRANCH   7  25
HETATM   25  O3  UNL     1      22.203   0.129  53.828  1.00  0.00    -0.353 OA
HETATM   26  C10 UNL     1      22.382  -0.964  54.728  1.00  0.00     0.210 C 
ENDBRANCH   7  25
TORSDOF 5
ENDMDL
MODEL 2
REMARK VINA RESULT:      -7.3      3.422      6.050
REMARK  5 active torsions:
REMARK  status: ('A' for Active; 'I' for Inactive)
REMARK    1  A    between atoms: O1_2  and  C2_3 
REMARK       I    between atoms: C2_3  and  N1_5 
REMARK    2  A    between atoms: C4_7  and  N2_8 
REMARK    3  A    between atoms: N2_8  and  C5_9 
REMARK    4  A    between atoms: C9_15  and  O3_16 
REMARK    5  A    between atoms: C11_18  and  O4_19 
ROOT
HETATM    1  C5  UNL     1      25.033   2.569  52.267  1.00  0.00     0.142 A 
HETATM    2  N3  UNL     1      25.564   3.191  51.225  1.00  0.00    -0.224 NA
HETATM    3  C6  UNL     1      24.939   3.211  50.012  1.00  0.00     0.236 A 
HETATM    4  N4  UNL     1      23.739   2.577  49.866  1.00  0.00    -0.241 NA
HETATM    5  C7  UNL     1      23.178   1.931  50.930  1.00  0.00     0.075 A 
HETATM    6  C8  UNL     1      21.964   1.296  50.763  1.00  0.00     0.072 A 
HETATM    7  C9  UNL     1      21.433   0.650  51.879  1.00  0.00     0.103 A 
HETATM    8  C11 UNL     1      22.050   0.619  53.115  1.00  0.00     0.102 A 
HETATM    9  C13 UNL     1      23.268   1.272  53.233  1.00  0.00     0.057 A 
HETATM   10  C14 UNL     1      23.822   1.920  52.150  1.00  0.00     0.042 A 
ENDROOT
BRANCH   1  11
HETATM   11  N2  UNL     1      25.764   2.610  53.475  1.00  0.00    -0.339 N 
HETATM   12  H5  UNL     1      25.579   3.099  54.377  1.00  0.00     0.167 HD
BRANCH  11  13
HETATM   13  C4  UNL     1      26.985   1.886  53.574  1.00  0.00     0.049 A 
HETATM   14  C3  UNL     1      27.044   0.562  53.444  1.00  0.00     0.126 A 
HETATM   15  N1  UNL     1      28.276  -0.136  53.548  1.00  0.00    -0.298 N 
HETATM   16  C2  UNL     1      28.296  -1.552  53.403  1.00  0.00     0.366 C 
HETATM   17  C17 UNL     1      29.515   0.529  53.794  1.00  0.00     0.161 A 
HETATM   18  O2  UNL     1      29.354  -2.231  53.483  1.00  0.00    -0.238 OA
HETATM   19  C16 UNL     1      29.410   1.980  53.931  1.00  0.00    -0.004 A 
HETATM   20  C15 UNL     1      28.247   2.597  53.829  1.00  0.00     0.028 A 
BRANCH  16  21
HETATM   21  O1  UNL     1      27.152  -2.305  53.160  1.00  0.00    -0.309 OA
HETATM   22  C1  UNL     1      26.524  -2.343  51.889  1.00  0.00     0.215 C 
ENDBRANCH  16  21
ENDBRANCH  11  13
ENDBRANCH   1  11
BRANCH   8  23
HETATM   23  O4  UNL     1      21.439  -0.051  54.168  1.00  0.00    -0.353 OA
HETATM   24  C12 UNL     1      22.112  -1.199  54.708  1.00  0.00     0.210 C 
ENDBRANCH   8  23
BRANCH   7  25
HETATM   25  O3  UNL     1      20.223   0.007  51.744  1.00  0.00    -0.353 OA
HETATM   26  C10 UNL     1      19.002   0.739  51.647  1.00  0.00     0.210 C 
ENDBRANCH   7  25
TORSDOF 5
ENDMDL
MODEL 3
REMARK VINA RESULT:      -7.1      3.340      5.676
REMARK  5 active torsions:
REMARK  status: ('A' for Active; 'I' for Inactive)
REMARK    1  A    between atoms: O1_2  and  C2_3 
REMARK       I    between atoms: C2_3  and  N1_5 
REMARK    2  A    between atoms: C4_7  and  N2_8 
REMARK    3  A    between atoms: N2_8  and  C5_9 
REMARK    4  A    between atoms: C9_15  and  O3_16 
REMARK    5  A    between atoms: C11_18  and  O4_19 
ROOT
HETATM    1  C5  UNL     1      24.345   2.573  52.040  1.00  0.00     0.142 A 
HETATM    2  N3  UNL     1      24.711   3.428  51.097  1.00  0.00    -0.224 NA
HETATM    3  C6  UNL     1      25.994   3.471  50.634  1.00  0.00     0.236 A 
HETATM    4  N4  UNL     1      26.923   2.615  51.152  1.00  0.00    -0.241 NA
HETATM    5  C7  UNL     1      26.562   1.728  52.124  1.00  0.00     0.075 A 
HETATM    6  C8  UNL     1      27.515   0.870  52.635  1.00  0.00     0.072 A 
HETATM    7  C9  UNL     1      27.096  -0.016  53.627  1.00  0.00     0.103 A 
HETATM    8  C11 UNL     1      25.803  -0.075  54.109  1.00  0.00     0.102 A 
HETATM    9  C13 UNL     1      24.881   0.806  53.564  1.00  0.00     0.057 A 
HETATM   10  C14 UNL     1      25.260   1.696  52.582  1.00  0.00     0.042 A 
ENDROOT
BRANCH   1  11
HETATM   11  N2  UNL     1      22.993   2.613  52.447  1.00  0.00    -0.339 N 
HETATM   12  H5  UNL     1      22.551   2.902  53.346  1.00  0.00     0.167 HD
BRANCH  11  13
HETATM   13  C4  UNL     1      21.979   2.201  51.537  1.00  0.00     0.049 A 
HETATM   14  C3  UNL     1      20.715   2.602  51.646  1.00  0.00     0.126 A 
HETATM   15  N1  UNL     1      19.723   2.176  50.723  1.00  0.00    -0.298 N 
HETATM   16  C2  UNL     1      18.381   2.627  50.875  1.00  0.00     0.366 C 
HETATM   17  C17 UNL     1      20.015   1.303  49.633  1.00  0.00     0.161 A 
HETATM   18  O2  UNL     1      17.455   2.289  50.093  1.00  0.00    -0.238 OA
HETATM   19  C16 UNL     1      21.413   0.884  49.546  1.00  0.00    -0.004 A 
HETATM   20  C15 UNL     1      22.309   1.300  50.422  1.00  0.00     0.028 A 
BRANCH  16  21
HETATM   21  O1  UNL     1      17.980   3.481  51.898  1.00  0.00    -0.309 OA
HETATM   22  C1  UNL     1      16.749   4.185  51.861  1.00  0.00     0.215 C 
ENDBRANCH  16  21
ENDBRANCH  11  13
ENDBRANCH   1  11
BRANCH   8  23
HETATM   23  O4  UNL     1      25.483  -0.996  55.100  1.00  0.00    -0.353 OA
HETATM   24  C12 UNL     1      24.093  -1.241  55.358  1.00  0.00     0.210 C 
ENDBRANCH   8  23
BRANCH   7  25
HETATM   25  O3  UNL     1      28.025  -0.885  54.157  1.00  0.00    -0.353 OA
HETATM   26  C10 UNL     1      29.228  -1.199  53.457  1.00  0.00     0.210 C 
ENDBRANCH   7  25
TORSDOF 5
ENDMDL
MODEL 4
REMARK VINA RESULT:      -7.0      2.727      4.427
REMARK  5 active torsions:
REMARK  status: ('A' for Active; 'I' for Inactive)
REMARK    1  A    between atoms: O1_2  and  C2_3 
REMARK       I    between atoms: C2_3  and  N1_5 
REMARK    2  A    between atoms: C4_7  and  N2_8 
REMARK    3  A    between atoms: N2_8  and  C5_9 
REMARK    4  A    between atoms: C9_15  and  O3_16 
REMARK    5  A    between atoms: C11_18  and  O4_19 
ROOT
HETATM    1  C5  UNL     1      23.244   2.838  52.667  1.00  0.00     0.142 A 
HETATM    2  N3  UNL     1      22.097   2.397  52.176  1.00  0.00    -0.224 NA
HETATM    3  C6  UNL     1      21.852   1.063  52.023  1.00  0.00     0.236 A 
HETATM    4  N4  UNL     1      22.811   0.160  52.385  1.00  0.00    -0.241 NA
HETATM    5  C7  UNL     1      23.999   0.599  52.892  1.00  0.00     0.075 A 
HETATM    6  C8  UNL     1      24.956  -0.329  53.252  1.00  0.00     0.072 A 
HETATM    7  C9  UNL     1      26.154   0.168  53.765  1.00  0.00     0.103 A 
HETATM    8  C11 UNL     1      26.420   1.514  53.926  1.00  0.00     0.102 A 
HETATM    9  C13 UNL     1      25.427   2.407  53.552  1.00  0.00     0.057 A 
HETATM   10  C14 UNL     1      24.232   1.951  53.040  1.00  0.00     0.042 A 
ENDROOT
BRANCH   1  11
HETATM   11  N2  UNL     1      23.394   4.237  52.782  1.00  0.00    -0.339 N 
HETATM   12  H5  UNL     1      23.573   4.847  53.608  1.00  0.00     0.167 HD
BRANCH  11  13
HETATM   13  C4  UNL     1      23.297   5.046  51.614  1.00  0.00     0.049 A 
HETATM   14  C3  UNL     1      24.354   5.346  50.862  1.00  0.00     0.126 A 
HETATM   15  N1  UNL     1      24.229   6.155  49.702  1.00  0.00    -0.298 N 
HETATM   16  C2  UNL     1      25.384   6.453  48.925  1.00  0.00     0.366 C 
HETATM   17  C17 UNL     1      22.978   6.690  49.273  1.00  0.00     0.161 A 
HETATM   18  O2  UNL     1      25.343   7.162  47.886  1.00  0.00    -0.238 OA
HETATM   19  C16 UNL     1      21.842   6.340  50.123  1.00  0.00    -0.004 A 
HETATM   20  C15 UNL     1      21.994   5.586  51.195  1.00  0.00     0.028 A 
BRANCH  16  21
HETATM   21  O1  UNL     1      26.655   5.985  49.246  1.00  0.00    -0.309 OA
HETATM   22  C1  UNL     1      27.132   4.723  48.806  1.00  0.00     0.215 C 
ENDBRANCH  16  21
ENDBRANCH  11  13
ENDBRANCH   1  11
BRANCH   8  23
HETATM   23  O4  UNL     1      27.645   1.911  54.448  1.00  0.00    -0.353 OA
HETATM   24  C12 UNL     1      28.626   2.422  53.532  1.00  0.00     0.210 C 
ENDBRANCH   8  23
BRANCH   7  25
HETATM   25  O3  UNL     1      27.128  -0.733  54.133  1.00  0.00    -0.353 OA
HETATM   26  C10 UNL     1      28.019  -1.294  53.170  1.00  0.00     0.210 C 
ENDBRANCH   7  25
TORSDOF 5
ENDMDL
MODEL 5
REMARK VINA RESULT:      -6.9      3.000      4.153
REMARK  5 active torsions:
REMARK  status: ('A' for Active; 'I' for Inactive)
REMARK    1  A    between atoms: O1_2  and  C2_3 
REMARK       I    between atoms: C2_3  and  N1_5 
REMARK    2  A    between atoms: C4_7  and  N2_8 
REMARK    3  A    between atoms: N2_8  and  C5_9 
REMARK    4  A    between atoms: C9_15  and  O3_16 
REMARK    5  A    between atoms: C11_18  and  O4_19 
ROOT
HETATM    1  C5  UNL     1      23.442   2.459  52.717  1.00  0.00     0.142 A 
HETATM    2  N3  UNL     1      22.310   1.908  52.308  1.00  0.00    -0.224 NA
HETATM    3  C6  UNL     1      22.139   0.554  52.298  1.00  0.00     0.236 A 
HETATM    4  N4  UNL     1      23.156  -0.253  52.720  1.00  0.00    -0.241 NA
HETATM    5  C7  UNL     1      24.330   0.299  53.145  1.00  0.00     0.075 A 
HETATM    6  C8  UNL     1      25.347  -0.534  53.568  1.00  0.00     0.072 A 
HETATM    7  C9  UNL     1      26.526   0.079  53.992  1.00  0.00     0.103 A 
HETATM    8  C11 UNL     1      26.718   1.447  54.009  1.00  0.00     0.102 A 
HETATM    9  C13 UNL     1      25.667   2.241  53.576  1.00  0.00     0.057 A 
HETATM   10  C14 UNL     1      24.488   1.670  53.149  1.00  0.00     0.042 A 
ENDROOT
BRANCH   1  11
HETATM   11  N2  UNL     1      23.514   3.869  52.686  1.00  0.00    -0.339 N 
HETATM   12  H5  UNL     1      23.503   4.578  53.450  1.00  0.00     0.167 HD
BRANCH  11  13
HETATM   13  C4  UNL     1      23.620   4.533  51.431  1.00  0.00     0.049 A 
HETATM   14  C3  UNL     1      22.840   5.558  51.097  1.00  0.00     0.126 A 
HETATM   15  N1  UNL     1      22.968   6.204  49.838  1.00  0.00    -0.298 N 
HETATM   16  C2  UNL     1      22.113   7.297  49.519  1.00  0.00     0.366 C 
HETATM   17  C17 UNL     1      23.929   5.799  48.865  1.00  0.00     0.161 A 
HETATM   18  O2  UNL     1      22.175   7.912  48.422  1.00  0.00    -0.238 OA
HETATM   19  C16 UNL     1      24.767   4.671  49.267  1.00  0.00    -0.004 A 
HETATM   20  C15 UNL     1      24.621   4.094  50.446  1.00  0.00     0.028 A 
BRANCH  16  21
HETATM   21  O1  UNL     1      21.141   7.778  50.389  1.00  0.00    -0.309 OA
HETATM   22  C1  UNL     1      20.109   8.654  49.965  1.00  0.00     0.215 C 
ENDBRANCH  16  21
ENDBRANCH  11  13
ENDBRANCH   1  11
BRANCH   8  23
HETATM   23  O4  UNL     1      27.931   1.961  54.451  1.00  0.00    -0.353 OA
HETATM   24  C12 UNL     1      28.797   2.559  53.474  1.00  0.00     0.210 C 
ENDBRANCH   8  23
BRANCH   7  25
HETATM   25  O3  UNL     1      27.559  -0.726  54.419  1.00  0.00    -0.353 OA
HETATM   26  C10 UNL     1      28.557  -1.192  53.514  1.00  0.00     0.210 C 
ENDBRANCH   7  25
TORSDOF 5
ENDMDL
MODEL 6
REMARK VINA RESULT:      -6.9      2.977      5.068
REMARK  5 active torsions:
REMARK  status: ('A' for Active; 'I' for Inactive)
REMARK    1  A    between atoms: O1_2  and  C2_3 
REMARK       I    between atoms: C2_3  and  N1_5 
REMARK    2  A    between atoms: C4_7  and  N2_8 
REMARK    3  A    between atoms: N2_8  and  C5_9 
REMARK    4  A    between atoms: C9_15  and  O3_16 
REMARK    5  A    between atoms: C11_18  and  O4_19 
ROOT
HETATM    1  C5  UNL     1      24.374   2.452  51.766  1.00  0.00     0.142 A 
HETATM    2  N3  UNL     1      24.785   3.339  50.872  1.00  0.00    -0.224 NA
HETATM    3  C6  UNL     1      26.104   3.461  50.543  1.00  0.00     0.236 A 
HETATM    4  N4  UNL     1      27.023   2.651  51.147  1.00  0.00    -0.241 NA
HETATM    5  C7  UNL     1      26.616   1.732  52.070  1.00  0.00     0.075 A 
HETATM    6  C8  UNL     1      27.560   0.923  52.670  1.00  0.00     0.072 A 
HETATM    7  C9  UNL     1      27.094   0.000  53.607  1.00  0.00     0.103 A 
HETATM    8  C11 UNL     1      25.763  -0.138  53.953  1.00  0.00     0.102 A 
HETATM    9  C13 UNL     1      24.853   0.697  53.322  1.00  0.00     0.057 A 
HETATM   10  C14 UNL     1      25.278   1.621  52.392  1.00  0.00     0.042 A 
ENDROOT
BRANCH   1  11
HETATM   11  N2  UNL     1      22.988   2.409  52.032  1.00  0.00    -0.339 N 
HETATM   12  H5  UNL     1      22.457   2.408  52.929  1.00  0.00     0.167 HD
BRANCH  11  13
HETATM   13  C4  UNL     1      22.071   2.355  50.944  1.00  0.00     0.049 A 
HETATM   14  C3  UNL     1      21.247   3.359  50.653  1.00  0.00     0.126 A 
HETATM   15  N1  UNL     1      20.342   3.279  49.561  1.00  0.00    -0.298 N 
HETATM   16  C2  UNL     1      19.477   4.374  49.283  1.00  0.00     0.366 C 
HETATM   17  C17 UNL     1      20.261   2.131  48.717  1.00  0.00     0.161 A 
HETATM   18  O2  UNL     1      18.652   4.368  48.332  1.00  0.00    -0.238 OA
HETATM   19  C16 UNL     1      21.180   1.050  49.068  1.00  0.00    -0.004 A 
HETATM   20  C15 UNL     1      22.008   1.159  50.091  1.00  0.00     0.028 A 
BRANCH  16  21
HETATM   21  O1  UNL     1      19.469   5.544  50.037  1.00  0.00    -0.309 OA
HETATM   22  C1  UNL     1      19.977   6.771  49.539  1.00  0.00     0.215 C 
ENDBRANCH  16  21
ENDBRANCH  11  13
ENDBRANCH   1  11
BRANCH   8  23
HETATM   23  O4  UNL     1      25.398  -1.089  54.898  1.00  0.00    -0.353 OA
HETATM   24  C12 UNL     1      24.012  -1.169  55.262  1.00  0.00     0.210 C 
ENDBRANCH   8  23
BRANCH   7  25
HETATM   25  O3  UNL     1      28.012  -0.821  54.222  1.00  0.00    -0.353 OA
HETATM   26  C10 UNL     1      29.411  -0.674  53.987  1.00  0.00     0.210 C 
ENDBRANCH   7  25
TORSDOF 5
ENDMDL
MODEL 7
REMARK VINA RESULT:      -6.9      2.721      7.085
REMARK  5 active torsions:
REMARK  status: ('A' for Active; 'I' for Inactive)
REMARK    1  A    between atoms: O1_2  and  C2_3 
REMARK       I    between atoms: C2_3  and  N1_5 
REMARK    2  A    between atoms: C4_7  and  N2_8 
REMARK    3  A    between atoms: N2_8  and  C5_9 
REMARK    4  A    between atoms: C9_15  and  O3_16 
REMARK    5  A    between atoms: C11_18  and  O4_19 
ROOT
HETATM    1  C5  UNL     1      23.149   3.060  51.208  1.00  0.00     0.142 A 
HETATM    2  N3  UNL     1      22.061   3.081  51.963  1.00  0.00    -0.224 NA
HETATM    3  C6  UNL     1      21.418   4.249  52.254  1.00  0.00     0.236 A 
HETATM    4  N4  UNL     1      21.905   5.424  51.757  1.00  0.00    -0.241 NA
HETATM    5  C7  UNL     1      23.025   5.420  50.978  1.00  0.00     0.075 A 
HETATM    6  C8  UNL     1      23.502   6.618  50.485  1.00  0.00     0.072 A 
HETATM    7  C9  UNL     1      24.650   6.561  49.695  1.00  0.00     0.103 A 
HETATM    8  C11 UNL     1      25.314   5.389  49.389  1.00  0.00     0.102 A 
HETATM    9  C13 UNL     1      24.796   4.212  49.907  1.00  0.00     0.057 A 
HETATM   10  C14 UNL     1      23.664   4.231  50.692  1.00  0.00     0.042 A 
ENDROOT
BRANCH   1  11
HETATM   11  N2  UNL     1      23.736   1.798  50.969  1.00  0.00    -0.339 N 
HETATM   12  H5  UNL     1      23.890   1.264  50.087  1.00  0.00     0.167 HD
BRANCH  11  13
HETATM   13  C4  UNL     1      24.235   1.043  52.068  1.00  0.00     0.049 A 
HETATM   14  C3  UNL     1      25.516   1.070  52.430  1.00  0.00     0.126 A 
HETATM   15  N1  UNL     1      25.988   0.307  53.531  1.00  0.00    -0.298 N 
HETATM   16  C2  UNL     1      27.366   0.363  53.886  1.00  0.00     0.366 C 
HETATM   17  C17 UNL     1      25.130  -0.525  54.310  1.00  0.00     0.161 A 
HETATM   18  O2  UNL     1      27.848  -0.287  54.850  1.00  0.00    -0.238 OA
HETATM   19  C16 UNL     1      23.732  -0.529  53.882  1.00  0.00    -0.004 A 
HETATM   20  C15 UNL     1      23.328   0.193  52.853  1.00  0.00     0.028 A 
BRANCH  16  21
HETATM   21  O1  UNL     1      28.294   1.140  53.201  1.00  0.00    -0.309 OA
HETATM   22  C1  UNL     1      28.732   2.401  53.682  1.00  0.00     0.215 C 
ENDBRANCH  16  21
ENDBRANCH  11  13
ENDBRANCH   1  11
BRANCH   8  23
HETATM   23  O4  UNL     1      26.451   5.436  48.591  1.00  0.00    -0.353 OA
HETATM   24  C12 UNL     1      27.493   4.486  48.858  1.00  0.00     0.210 C 
ENDBRANCH   8  23
BRANCH   7  25
HETATM   25  O3  UNL     1      25.149   7.740  49.189  1.00  0.00    -0.353 OA
HETATM   26  C10 UNL     1      25.294   8.896  50.012  1.00  0.00     0.210 C 
ENDBRANCH   7  25
TORSDOF 5
ENDMDL
MODEL 8
REMARK VINA RESULT:      -6.9      3.630      6.188
REMARK  5 active torsions:
REMARK  status: ('A' for Active; 'I' for Inactive)
REMARK    1  A    between atoms: O1_2  and  C2_3 
REMARK       I    between atoms: C2_3  and  N1_5 
REMARK    2  A    between atoms: C4_7  and  N2_8 
REMARK    3  A    between atoms: N2_8  and  C5_9 
REMARK    4  A    between atoms: C9_15  and  O3_16 
REMARK    5  A    between atoms: C11_18  and  O4_19 
ROOT
HETATM    1  C5  UNL     1      24.488   2.789  52.009  1.00  0.00     0.142 A 
HETATM    2  N3  UNL     1      24.872   3.615  51.048  1.00  0.00    -0.224 NA
HETATM    3  C6  UNL     1      26.122   3.544  50.505  1.00  0.00     0.236 A 
HETATM    4  N4  UNL     1      26.999   2.602  50.961  1.00  0.00    -0.241 NA
HETATM    5  C7  UNL     1      26.618   1.744  51.952  1.00  0.00     0.075 A 
HETATM    6  C8  UNL     1      27.518   0.797  52.399  1.00  0.00     0.072 A 
HETATM    7  C9  UNL     1      27.082  -0.056  53.413  1.00  0.00     0.103 A 
HETATM    8  C11 UNL     1      25.821   0.000  53.975  1.00  0.00     0.102 A 
HETATM    9  C13 UNL     1      24.953   0.967  53.491  1.00  0.00     0.057 A 
HETATM   10  C14 UNL     1      25.350   1.827  52.490  1.00  0.00     0.042 A 
ENDROOT
BRANCH   1  11
HETATM   11  N2  UNL     1      23.174   2.949  52.500  1.00  0.00    -0.339 N 
HETATM   12  H5  UNL     1      22.803   3.469  53.324  1.00  0.00     0.167 HD
BRANCH  11  13
HETATM   13  C4  UNL     1      22.094   2.324  51.815  1.00  0.00     0.049 A 
HETATM   14  C3  UNL     1      21.286   1.445  52.406  1.00  0.00     0.126 A 
HETATM   15  N1  UNL     1      20.215   0.836  51.700  1.00  0.00    -0.298 N 
HETATM   16  C2  UNL     1      19.374  -0.099  52.367  1.00  0.00     0.366 C 
HETATM   17  C17 UNL     1      19.939   1.124  50.330  1.00  0.00     0.161 A 
HETATM   18  O2  UNL     1      18.409  -0.674  51.800  1.00  0.00    -0.238 OA
HETATM   19  C16 UNL     1      20.846   2.092  49.716  1.00  0.00    -0.004 A 
HETATM   20  C15 UNL     1      21.832   2.639  50.403  1.00  0.00     0.028 A 
BRANCH  16  21
HETATM   21  O1  UNL     1      19.547  -0.456  53.701  1.00  0.00    -0.309 OA
HETATM   22  C1  UNL     1      20.465  -1.460  54.105  1.00  0.00     0.215 C 
ENDBRANCH  16  21
ENDBRANCH  11  13
ENDBRANCH   1  11
BRANCH   8  23
HETATM   23  O4  UNL     1      25.480  -0.896  54.981  1.00  0.00    -0.353 OA
HETATM   24  C12 UNL     1      24.088  -1.195  55.164  1.00  0.00     0.210 C 
ENDBRANCH   8  23
BRANCH   7  25
HETATM   25  O3  UNL     1      27.958  -1.010  53.881  1.00  0.00    -0.353 OA
HETATM   26  C10 UNL     1      29.355  -0.743  53.990  1.00  0.00     0.210 C 
ENDBRANCH   7  25
TORSDOF 5
ENDMDL
MODEL 9
REMARK VINA RESULT:      -6.9      3.003      7.472
REMARK  5 active torsions:
REMARK  status: ('A' for Active; 'I' for Inactive)
REMARK    1  A    between atoms: O1_2  and  C2_3 
REMARK       I    between atoms: C2_3  and  N1_5 
REMARK    2  A    between atoms: C4_7  and  N2_8 
REMARK    3  A    between atoms: N2_8  and  C5_9 
REMARK    4  A    between atoms: C9_15  and  O3_16 
REMARK    5  A    between atoms: C11_18  and  O4_19 
ROOT
HETATM    1  C5  UNL     1      21.523   1.998  51.416  1.00  0.00     0.142 A 
HETATM    2  N3  UNL     1      20.264   2.324  51.662  1.00  0.00    -0.224 NA
HETATM    3  C6  UNL     1      19.853   3.625  51.676  1.00  0.00     0.236 A 
HETATM    4  N4  UNL     1      20.760   4.616  51.431  1.00  0.00    -0.241 NA
HETATM    5  C7  UNL     1      22.062   4.298  51.176  1.00  0.00     0.075 A 
HETATM    6  C8  UNL     1      22.964   5.314  50.931  1.00  0.00     0.072 A 
HETATM    7  C9  UNL     1      24.283   4.937  50.676  1.00  0.00     0.103 A 
HETATM    8  C11 UNL     1      24.717   3.625  50.657  1.00  0.00     0.102 A 
HETATM    9  C13 UNL     1      23.774   2.640  50.909  1.00  0.00     0.057 A 
HETATM   10  C14 UNL     1      22.462   2.977  51.165  1.00  0.00     0.042 A 
ENDROOT
BRANCH   1  11
HETATM   11  N2  UNL     1      21.841   0.622  51.426  1.00  0.00    -0.339 N 
HETATM   12  H5  UNL     1      21.849  -0.090  50.665  1.00  0.00     0.167 HD
BRANCH  11  13
HETATM   13  C4  UNL     1      22.229   0.006  52.649  1.00  0.00     0.049 A 
HETATM   14  C3  UNL     1      23.487   0.011  53.083  1.00  0.00     0.126 A 
HETATM   15  N1  UNL     1      23.848  -0.611  54.308  1.00  0.00    -0.298 N 
HETATM   16  C2  UNL     1      25.206  -0.584  54.738  1.00  0.00     0.366 C 
HETATM   17  C17 UNL     1      22.896  -1.271  55.141  1.00  0.00     0.161 A 
HETATM   18  O2  UNL     1      25.591  -1.115  55.812  1.00  0.00    -0.238 OA
HETATM   19  C16 UNL     1      21.526  -1.256  54.631  1.00  0.00    -0.004 A 
HETATM   20  C15 UNL     1      21.227  -0.668  53.488  1.00  0.00     0.028 A 
BRANCH  16  21
HETATM   21  O1  UNL     1      26.219   0.030  54.009  1.00  0.00    -0.309 OA
HETATM   22  C1  UNL     1      27.417  -0.643  53.658  1.00  0.00     0.215 C 
ENDBRANCH  16  21
ENDBRANCH  11  13
ENDBRANCH   1  11
BRANCH   8  23
HETATM   23  O4  UNL     1      26.053   3.351  50.392  1.00  0.00    -0.353 OA
HETATM   24  C12 UNL     1      26.735   2.444  51.271  1.00  0.00     0.210 C 
ENDBRANCH   8  23
BRANCH   7  25
HETATM   25  O3  UNL     1      25.206   5.928  50.428  1.00  0.00    -0.353 OA
HETATM   26  C10 UNL     1      24.809   7.292  50.290  1.00  0.00     0.210 C 
ENDBRANCH   7  25
TORSDOF 5
ENDMDL
