MODEL 1
REMARK VINA RESULT:      -8.2      0.000      0.000
REMARK  3 active torsions:
REMARK  status: ('A' for Active; 'I' for Inactive)
REMARK    1  A    between atoms: C2_2  and  C3_3 
REMARK       I    between atoms: C3_3  and  N1_5 
REMARK    2  A    between atoms: C6_8  and  N2_9 
REMARK    3  A    between atoms: N2_9  and  C7_10 
ROOT
HETATM    1  C3  UNL     1      22.862  -0.858  54.027  1.00  0.00     0.246 C 
HETATM    2  O1  UNL     1      22.334  -1.630  54.858  1.00  0.00    -0.268 OA
HETATM    3  N1  UNL     1      24.194  -0.377  54.154  1.00  0.00    -0.320 N 
HETATM    4  C4  UNL     1      24.789   0.500  53.208  1.00  0.00     0.112 A 
HETATM    5  C5  UNL     1      26.004   0.987  53.262  1.00  0.00     0.054 A 
HETATM    6  C6  UNL     1      26.532   1.834  52.315  1.00  0.00     0.143 A 
HETATM    7  N3  UNL     1      27.787   2.225  52.536  1.00  0.00    -0.223 NA
HETATM    8  C13 UNL     1      28.532   1.858  53.580  1.00  0.00     0.236 A 
HETATM    9  N4  UNL     1      27.991   1.017  54.511  1.00  0.00    -0.241 NA
HETATM   10  C14 UNL     1      26.721   0.577  54.354  1.00  0.00     0.071 A 
HETATM   11  C15 UNL     1      26.309  -0.221  55.296  1.00  0.00     0.026 A 
HETATM   12  C16 UNL     1      24.948  -0.812  55.303  1.00  0.00     0.161 A 
ENDROOT
BRANCH   6  13
HETATM   13  N2  UNL     1      25.760   2.242  51.212  1.00  0.00    -0.340 N 
HETATM   14  H5  UNL     1      25.043   1.642  50.782  1.00  0.00     0.167 HD
BRANCH  13  15
HETATM   15  C7  UNL     1      25.807   3.471  50.519  1.00  0.00     0.035 A 
HETATM   16  C8  UNL     1      26.720   3.728  49.525  1.00  0.00     0.029 A 
HETATM   17  C9  UNL     1      26.810   4.912  48.832  1.00  0.00     0.004 A 
HETATM   18  C10 UNL     1      25.946   5.945  49.119  1.00  0.00     0.019 A 
HETATM   19  C11 UNL     1      25.008   5.748  50.107  1.00  0.00     0.013 A 
HETATM   20 BR1  UNL     1      23.789   7.120  50.555  1.00  0.00    -0.051 Br
HETATM   21  C12 UNL     1      24.973   4.540  50.760  1.00  0.00     0.048 A 
ENDBRANCH  13  15
ENDBRANCH   6  13
BRANCH   1  22
HETATM   22  C2  UNL     1      21.973  -0.505  52.918  1.00  0.00     0.064 C 
HETATM   23  C1  UNL     1      21.079  -0.033  53.775  1.00  0.00     0.017 C 
ENDBRANCH   1  22
TORSDOF 3
ENDMDL
MODEL 2
REMARK VINA RESULT:      -8.0      2.007      3.955
REMARK  3 active torsions:
REMARK  status: ('A' for Active; 'I' for Inactive)
REMARK    1  A    between atoms: C2_2  and  C3_3 
REMARK       I    between atoms: C3_3  and  N1_5 
REMARK    2  A    between atoms: C6_8  and  N2_9 
REMARK    3  A    between atoms: N2_9  and  C7_10 
ROOT
HETATM    1  C3  UNL     1      27.812   0.267  53.994  1.00  0.00     0.246 C 
HETATM    2  O1  UNL     1      27.936  -0.511  54.966  1.00  0.00    -0.268 OA
HETATM    3  N1  UNL     1      26.560   0.549  53.382  1.00  0.00    -0.320 N 
HETATM    4  C4  UNL     1      26.425   1.433  52.278  1.00  0.00     0.112 A 
HETATM    5  C5  UNL     1      25.308   1.735  51.661  1.00  0.00     0.054 A 
HETATM    6  C6  UNL     1      25.234   2.600  50.595  1.00  0.00     0.143 A 
HETATM    7  N3  UNL     1      24.011   2.788  50.098  1.00  0.00    -0.223 NA
HETATM    8  C13 UNL     1      22.900   2.209  50.556  1.00  0.00     0.236 A 
HETATM    9  N4  UNL     1      22.993   1.352  51.615  1.00  0.00    -0.241 NA
HETATM   10  C14 UNL     1      24.203   1.112  52.174  1.00  0.00     0.071 A 
HETATM   11  C15 UNL     1      24.175   0.284  53.178  1.00  0.00     0.026 A 
HETATM   12  C16 UNL     1      25.396  -0.106  53.925  1.00  0.00     0.161 A 
ENDROOT
BRANCH   6  13
HETATM   13  N2  UNL     1      26.395   3.213  50.090  1.00  0.00    -0.340 N 
HETATM   14  H5  UNL     1      27.304   2.732  50.044  1.00  0.00     0.167 HD
BRANCH  13  15
HETATM   15  C7  UNL     1      26.540   4.521  49.576  1.00  0.00     0.035 A 
HETATM   16  C8  UNL     1      27.535   4.865  48.693  1.00  0.00     0.029 A 
HETATM   17  C9  UNL     1      27.722   6.125  48.176  1.00  0.00     0.004 A 
HETATM   18  C10 UNL     1      26.878   7.150  48.540  1.00  0.00     0.019 A 
HETATM   19  C11 UNL     1      25.860   6.867  49.422  1.00  0.00     0.013 A 
HETATM   20 BR1  UNL     1      24.662   8.222  49.966  1.00  0.00    -0.051 Br
HETATM   21  C12 UNL     1      25.730   5.586  49.900  1.00  0.00     0.048 A 
ENDBRANCH  13  15
ENDBRANCH   6  13
BRANCH   1  22
HETATM   22  C2  UNL     1      29.080   0.854  53.556  1.00  0.00     0.064 C 
HETATM   23  C1  UNL     1      29.673  -0.327  53.666  1.00  0.00     0.017 C 
ENDBRANCH   1  22
TORSDOF 3
ENDMDL
MODEL 3
REMARK VINA RESULT:      -8.0      2.359      4.664
REMARK  3 active torsions:
REMARK  status: ('A' for Active; 'I' for Inactive)
REMARK    1  A    between atoms: C2_2  and  C3_3 
REMARK       I    between atoms: C3_3  and  N1_5 
REMARK    2  A    between atoms: C6_8  and  N2_9 
REMARK    3  A    between atoms: N2_9  and  C7_10 
ROOT
HETATM    1  C3  UNL     1      26.604  -0.073  54.227  1.00  0.00     0.246 C 
HETATM    2  O1  UNL     1      27.480  -0.430  55.046  1.00  0.00    -0.268 OA
HETATM    3  N1  UNL     1      25.226  -0.392  54.379  1.00  0.00    -0.320 N 
HETATM    4  C4  UNL     1      24.235   0.014  53.446  1.00  0.00     0.112 A 
HETATM    5  C5  UNL     1      22.953  -0.248  53.517  1.00  0.00     0.054 A 
HETATM    6  C6  UNL     1      22.034   0.172  52.583  1.00  0.00     0.143 A 
HETATM    7  N3  UNL     1      20.773  -0.186  52.823  1.00  0.00    -0.223 NA
HETATM    8  C13 UNL     1      20.366  -0.901  53.874  1.00  0.00     0.236 A 
HETATM    9  N4  UNL     1      21.292  -1.310  54.791  1.00  0.00    -0.241 NA
HETATM   10  C14 UNL     1      22.594  -0.983  54.614  1.00  0.00     0.071 A 
HETATM   11  C15 UNL     1      23.388  -1.421  55.548  1.00  0.00     0.026 A 
HETATM   12  C16 UNL     1      24.850  -1.165  55.537  1.00  0.00     0.161 A 
ENDROOT
BRANCH   6  13
HETATM   13  N2  UNL     1      22.444   0.918  51.463  1.00  0.00    -0.340 N 
HETATM   14  H5  UNL     1      22.427   0.539  50.506  1.00  0.00     0.167 HD
BRANCH  13  15
HETATM   15  C7  UNL     1      22.927   2.244  51.424  1.00  0.00     0.035 A 
HETATM   16  C8  UNL     1      22.336   3.269  52.123  1.00  0.00     0.029 A 
HETATM   17  C9  UNL     1      22.764   4.576  52.107  1.00  0.00     0.004 A 
HETATM   18  C10 UNL     1      23.858   4.933  51.351  1.00  0.00     0.019 A 
HETATM   19  C11 UNL     1      24.493   3.949  50.627  1.00  0.00     0.013 A 
HETATM   20 BR1  UNL     1      26.000   4.363  49.567  1.00  0.00    -0.051 Br
HETATM   21  C12 UNL     1      24.013   2.663  50.688  1.00  0.00     0.048 A 
ENDBRANCH  13  15
ENDBRANCH   6  13
BRANCH   1  22
HETATM   22  C2  UNL     1      27.139   0.702  53.107  1.00  0.00     0.064 C 
HETATM   23  C1  UNL     1      28.374   0.481  53.534  1.00  0.00     0.017 C 
ENDBRANCH   1  22
TORSDOF 3
ENDMDL
MODEL 4
REMARK VINA RESULT:      -7.7      2.558      4.869
REMARK  3 active torsions:
REMARK  status: ('A' for Active; 'I' for Inactive)
REMARK    1  A    between atoms: C2_2  and  C3_3 
REMARK       I    between atoms: C3_3  and  N1_5 
REMARK    2  A    between atoms: C6_8  and  N2_9 
REMARK    3  A    between atoms: N2_9  and  C7_10 
ROOT
HETATM    1  C3  UNL     1      25.087  -0.593  54.215  1.00  0.00     0.246 C 
HETATM    2  O1  UNL     1      25.635  -1.112  55.213  1.00  0.00    -0.268 OA
HETATM    3  N1  UNL     1      23.679  -0.602  54.012  1.00  0.00    -0.320 N 
HETATM    4  C4  UNL     1      23.061  -0.012  52.878  1.00  0.00     0.112 A 
HETATM    5  C5  UNL     1      21.776   0.012  52.622  1.00  0.00     0.054 A 
HETATM    6  C6  UNL     1      21.230   0.600  51.505  1.00  0.00     0.143 A 
HETATM    7  N3  UNL     1      19.901   0.529  51.416  1.00  0.00    -0.223 NA
HETATM    8  C13 UNL     1      19.103  -0.055  52.310  1.00  0.00     0.236 A 
HETATM    9  N4  UNL     1      19.663  -0.634  53.414  1.00  0.00    -0.241 NA
HETATM   10  C14 UNL     1      21.007  -0.602  53.573  1.00  0.00     0.071 A 
HETATM   11  C15 UNL     1      21.432  -1.180  54.660  1.00  0.00     0.026 A 
HETATM   12  C16 UNL     1      22.870  -1.247  55.017  1.00  0.00     0.161 A 
ENDROOT
BRANCH   6  13
HETATM   13  N2  UNL     1      22.054   1.212  50.544  1.00  0.00    -0.340 N 
HETATM   14  H5  UNL     1      22.242   0.793  49.623  1.00  0.00     0.167 HD
BRANCH  13  15
HETATM   15  C7  UNL     1      22.744   2.441  50.639  1.00  0.00     0.035 A 
HETATM   16  C8  UNL     1      22.195   3.556  51.223  1.00  0.00     0.029 A 
HETATM   17  C9  UNL     1      22.824   4.775  51.328  1.00  0.00     0.004 A 
HETATM   18  C10 UNL     1      24.096   4.938  50.827  1.00  0.00     0.019 A 
HETATM   19  C11 UNL     1      24.700   3.855  50.230  1.00  0.00     0.013 A 
HETATM   20 BR1  UNL     1      26.444   4.004  49.520  1.00  0.00    -0.051 Br
HETATM   21  C12 UNL     1      24.015   2.666  50.158  1.00  0.00     0.048 A 
ENDBRANCH  13  15
ENDBRANCH   6  13
BRANCH   1  22
HETATM   22  C2  UNL     1      26.037   0.021  53.286  1.00  0.00     0.064 C 
HETATM   23  C1  UNL     1      26.570  -1.166  53.035  1.00  0.00     0.017 C 
ENDBRANCH   1  22
TORSDOF 3
ENDMDL
MODEL 5
REMARK VINA RESULT:      -7.6      1.983      3.092
REMARK  3 active torsions:
REMARK  status: ('A' for Active; 'I' for Inactive)
REMARK    1  A    between atoms: C2_2  and  C3_3 
REMARK       I    between atoms: C3_3  and  N1_5 
REMARK    2  A    between atoms: C6_8  and  N2_9 
REMARK    3  A    between atoms: N2_9  and  C7_10 
ROOT
HETATM    1  C3  UNL     1      19.871  -0.373  52.902  1.00  0.00     0.246 C 
HETATM    2  O1  UNL     1      18.868  -0.925  53.406  1.00  0.00    -0.268 OA
HETATM    3  N1  UNL     1      21.184  -0.525  53.426  1.00  0.00    -0.320 N 
HETATM    4  C4  UNL     1      22.320   0.105  52.851  1.00  0.00     0.112 A 
HETATM    5  C5  UNL     1      23.555   0.016  53.282  1.00  0.00     0.054 A 
HETATM    6  C6  UNL     1      24.620   0.648  52.684  1.00  0.00     0.143 A 
HETATM    7  N3  UNL     1      25.804   0.438  53.261  1.00  0.00    -0.223 NA
HETATM    8  C13 UNL     1      26.007  -0.317  54.341  1.00  0.00     0.236 A 
HETATM    9  N4  UNL     1      24.937  -0.937  54.922  1.00  0.00    -0.241 NA
HETATM   10  C14 UNL     1      23.703  -0.771  54.391  1.00  0.00     0.071 A 
HETATM   11  C15 UNL     1      22.758  -1.409  55.021  1.00  0.00     0.026 A 
HETATM   12  C16 UNL     1      21.338  -1.357  54.594  1.00  0.00     0.161 A 
ENDROOT
BRANCH   6  13
HETATM   13  N2  UNL     1      24.426   1.458  51.551  1.00  0.00    -0.340 N 
HETATM   14  H5  UNL     1      24.352   1.075  50.599  1.00  0.00     0.167 HD
BRANCH  13  15
HETATM   15  C7  UNL     1      24.303   2.864  51.492  1.00  0.00     0.035 A 
HETATM   16  C8  UNL     1      23.631   3.590  52.445  1.00  0.00     0.029 A 
HETATM   17  C9  UNL     1      23.475   4.956  52.424  1.00  0.00     0.004 A 
HETATM   18  C10 UNL     1      24.014   5.693  51.393  1.00  0.00     0.019 A 
HETATM   19  C11 UNL     1      24.699   5.022  50.406  1.00  0.00     0.013 A 
HETATM   20 BR1  UNL     1      25.465   5.967  48.962  1.00  0.00    -0.051 Br
HETATM   21  C12 UNL     1      24.817   3.656  50.490  1.00  0.00     0.048 A 
ENDBRANCH  13  15
ENDBRANCH   6  13
BRANCH   1  22
HETATM   22  C2  UNL     1      19.556   0.438  51.725  1.00  0.00     0.064 C 
HETATM   23  C1  UNL     1      18.400  -0.196  51.588  1.00  0.00     0.017 C 
ENDBRANCH   1  22
TORSDOF 3
ENDMDL
MODEL 6
REMARK VINA RESULT:      -7.6      1.858      2.194
REMARK  3 active torsions:
REMARK  status: ('A' for Active; 'I' for Inactive)
REMARK    1  A    between atoms: C2_2  and  C3_3 
REMARK       I    between atoms: C3_3  and  N1_5 
REMARK    2  A    between atoms: C6_8  and  N2_9 
REMARK    3  A    between atoms: N2_9  and  C7_10 
ROOT
HETATM    1  C3  UNL     1      21.615   0.717  51.458  1.00  0.00     0.246 C 
HETATM    2  O1  UNL     1      20.680   0.089  52.003  1.00  0.00    -0.268 OA
HETATM    3  N1  UNL     1      22.911   0.828  52.032  1.00  0.00    -0.320 N 
HETATM    4  C4  UNL     1      23.970   1.543  51.410  1.00  0.00     0.112 A 
HETATM    5  C5  UNL     1      25.184   1.692  51.881  1.00  0.00     0.054 A 
HETATM    6  C6  UNL     1      26.174   2.395  51.235  1.00  0.00     0.143 A 
HETATM    7  N3  UNL     1      27.348   2.437  51.866  1.00  0.00    -0.223 NA
HETATM    8  C13 UNL     1      27.608   1.861  53.040  1.00  0.00     0.236 A 
HETATM    9  N4  UNL     1      26.613   1.167  53.668  1.00  0.00    -0.241 NA
HETATM   10  C14 UNL     1      25.393   1.080  53.088  1.00  0.00     0.071 A 
HETATM   11  C15 UNL     1      24.522   0.393  53.770  1.00  0.00     0.026 A 
HETATM   12  C16 UNL     1      23.130   0.180  53.302  1.00  0.00     0.161 A 
ENDROOT
BRANCH   6  13
HETATM   13  N2  UNL     1      25.917   3.020  50.001  1.00  0.00    -0.340 N 
HETATM   14  H5  UNL     1      25.408   2.555  49.237  1.00  0.00     0.167 HD
BRANCH  13  15
HETATM   15  C7  UNL     1      26.279   4.321  49.588  1.00  0.00     0.035 A 
HETATM   16  C8  UNL     1      27.383   4.572  48.810  1.00  0.00     0.029 A 
HETATM   17  C9  UNL     1      27.780   5.821  48.394  1.00  0.00     0.004 A 
HETATM   18  C10 UNL     1      27.051   6.931  48.757  1.00  0.00     0.019 A 
HETATM   19  C11 UNL     1      25.933   6.744  49.538  1.00  0.00     0.013 A 
HETATM   20 BR1  UNL     1      24.885   8.220  50.076  1.00  0.00    -0.051 Br
HETATM   21  C12 UNL     1      25.593   5.469  49.919  1.00  0.00     0.048 A 
ENDBRANCH  13  15
ENDBRANCH   6  13
BRANCH   1  22
HETATM   22  C2  UNL     1      21.241   1.319  50.177  1.00  0.00     0.064 C 
HETATM   23  C1  UNL     1      20.000   0.877  50.323  1.00  0.00     0.017 C 
ENDBRANCH   1  22
TORSDOF 3
ENDMDL
MODEL 7
REMARK VINA RESULT:      -7.5      2.857      3.474
REMARK  3 active torsions:
REMARK  status: ('A' for Active; 'I' for Inactive)
REMARK    1  A    between atoms: C2_2  and  C3_3 
REMARK       I    between atoms: C3_3  and  N1_5 
REMARK    2  A    between atoms: C6_8  and  N2_9 
REMARK    3  A    between atoms: N2_9  and  C7_10 
ROOT
HETATM    1  C3  UNL     1      22.647  -0.913  54.851  1.00  0.00     0.246 C 
HETATM    2  O1  UNL     1      22.672  -1.869  55.659  1.00  0.00    -0.268 OA
HETATM    3  N1  UNL     1      23.820  -0.358  54.272  1.00  0.00    -0.320 N 
HETATM    4  C4  UNL     1      23.787   0.727  53.356  1.00  0.00     0.112 A 
HETATM    5  C5  UNL     1      24.825   1.293  52.788  1.00  0.00     0.054 A 
HETATM    6  C6  UNL     1      24.735   2.343  51.905  1.00  0.00     0.143 A 
HETATM    7  N3  UNL     1      25.898   2.786  51.426  1.00  0.00    -0.223 NA
HETATM    8  C13 UNL     1      27.095   2.290  51.741  1.00  0.00     0.236 A 
HETATM    9  N4  UNL     1      27.165   1.246  52.620  1.00  0.00    -0.241 NA
HETATM   10  C14 UNL     1      26.025   0.742  53.148  1.00  0.00     0.071 A 
HETATM   11  C15 UNL     1      26.208  -0.251  53.970  1.00  0.00     0.026 A 
HETATM   12  C16 UNL     1      25.084  -0.941  54.650  1.00  0.00     0.161 A 
ENDROOT
BRANCH   6  13
HETATM   13  N2  UNL     1      23.483   2.889  51.569  1.00  0.00    -0.340 N 
HETATM   14  H5  UNL     1      23.077   3.696  52.060  1.00  0.00     0.167 HD
BRANCH  13  15
HETATM   15  C7  UNL     1      22.590   2.470  50.558  1.00  0.00     0.035 A 
HETATM   16  C8  UNL     1      22.891   2.555  49.220  1.00  0.00     0.029 A 
HETATM   17  C9  UNL     1      22.050   2.170  48.202  1.00  0.00     0.004 A 
HETATM   18  C10 UNL     1      20.807   1.657  48.494  1.00  0.00     0.019 A 
HETATM   19  C11 UNL     1      20.447   1.547  49.818  1.00  0.00     0.013 A 
HETATM   20 BR1  UNL     1      18.757   0.852  50.295  1.00  0.00    -0.051 Br
HETATM   21  C12 UNL     1      21.335   1.950  50.785  1.00  0.00     0.048 A 
ENDBRANCH  13  15
ENDBRANCH   6  13
BRANCH   1  22
HETATM   22  C2  UNL     1      21.294  -0.430  54.567  1.00  0.00     0.064 C 
HETATM   23  C1  UNL     1      20.922  -1.654  54.222  1.00  0.00     0.017 C 
ENDBRANCH   1  22
TORSDOF 3
ENDMDL
MODEL 8
REMARK VINA RESULT:      -7.4      3.785      7.427
REMARK  3 active torsions:
REMARK  status: ('A' for Active; 'I' for Inactive)
REMARK    1  A    between atoms: C2_2  and  C3_3 
REMARK       I    between atoms: C3_3  and  N1_5 
REMARK    2  A    between atoms: C6_8  and  N2_9 
REMARK    3  A    between atoms: N2_9  and  C7_10 
ROOT
HETATM    1  C3  UNL     1      26.865   5.943  48.885  1.00  0.00     0.246 C 
HETATM    2  O1  UNL     1      27.297   7.017  48.408  1.00  0.00    -0.268 OA
HETATM    3  N1  UNL     1      25.646   5.853  49.612  1.00  0.00    -0.320 N 
HETATM    4  C4  UNL     1      25.161   4.631  50.151  1.00  0.00     0.112 A 
HETATM    5  C5  UNL     1      24.054   4.474  50.834  1.00  0.00     0.054 A 
HETATM    6  C6  UNL     1      23.629   3.265  51.334  1.00  0.00     0.143 A 
HETATM    7  N3  UNL     1      22.476   3.297  52.001  1.00  0.00    -0.223 NA
HETATM    8  C13 UNL     1      21.739   4.390  52.205  1.00  0.00     0.236 A 
HETATM    9  N4  UNL     1      22.176   5.582  51.702  1.00  0.00    -0.241 NA
HETATM   10  C14 UNL     1      23.339   5.628  51.012  1.00  0.00     0.071 A 
HETATM   11  C15 UNL     1      23.659   6.812  50.576  1.00  0.00     0.026 A 
HETATM   12  C16 UNL     1      24.894   7.069  49.796  1.00  0.00     0.161 A 
ENDROOT
BRANCH   6  13
HETATM   13  N2  UNL     1      24.397   2.102  51.139  1.00  0.00    -0.340 N 
HETATM   14  H5  UNL     1      24.605   1.722  50.206  1.00  0.00     0.167 HD
BRANCH  13  15
HETATM   15  C7  UNL     1      24.997   1.277  52.116  1.00  0.00     0.035 A 
HETATM   16  C8  UNL     1      24.278   0.396  52.886  1.00  0.00     0.029 A 
HETATM   17  C9  UNL     1      24.817  -0.418  53.855  1.00  0.00     0.004 A 
HETATM   18  C10 UNL     1      26.170  -0.382  54.109  1.00  0.00     0.019 A 
HETATM   19  C11 UNL     1      26.945   0.482  53.368  1.00  0.00     0.013 A 
HETATM   20 BR1  UNL     1      28.807   0.586  53.661  1.00  0.00    -0.051 Br
HETATM   21  C12 UNL     1      26.341   1.267  52.416  1.00  0.00     0.048 A 
ENDBRANCH  13  15
ENDBRANCH   6  13
BRANCH   1  22
HETATM   22  C2  UNL     1      27.737   4.799  48.616  1.00  0.00     0.064 C 
HETATM   23  C1  UNL     1      28.722   5.619  48.277  1.00  0.00     0.017 C 
ENDBRANCH   1  22
TORSDOF 3
ENDMDL
MODEL 9
REMARK VINA RESULT:      -7.3      2.499      2.884
REMARK  3 active torsions:
REMARK  status: ('A' for Active; 'I' for Inactive)
REMARK    1  A    between atoms: C2_2  and  C3_3 
REMARK       I    between atoms: C3_3  and  N1_5 
REMARK    2  A    between atoms: C6_8  and  N2_9 
REMARK    3  A    between atoms: N2_9  and  C7_10 
ROOT
HETATM    1  C3  UNL     1      21.613  -0.423  54.233  1.00  0.00     0.246 C 
HETATM    2  O1  UNL     1      21.375  -1.353  55.036  1.00  0.00    -0.268 OA
HETATM    3  N1  UNL     1      22.928  -0.079  53.813  1.00  0.00    -0.320 N 
HETATM    4  C4  UNL     1      23.193   0.978  52.902  1.00  0.00     0.112 A 
HETATM    5  C5  UNL     1      24.374   1.354  52.477  1.00  0.00     0.054 A 
HETATM    6  C6  UNL     1      24.574   2.387  51.590  1.00  0.00     0.143 A 
HETATM    7  N3  UNL     1      25.846   2.624  51.269  1.00  0.00    -0.223 NA
HETATM    8  C13 UNL     1      26.894   1.947  51.739  1.00  0.00     0.236 A 
HETATM    9  N4  UNL     1      26.677   0.924  52.619  1.00  0.00    -0.241 NA
HETATM   10  C14 UNL     1      25.410   0.624  52.992  1.00  0.00     0.071 A 
HETATM   11  C15 UNL     1      25.319  -0.368  53.830  1.00  0.00     0.026 A 
HETATM   12  C16 UNL     1      24.018  -0.852  54.355  1.00  0.00     0.161 A 
ENDROOT
BRANCH   6  13
HETATM   13  N2  UNL     1      23.483   3.122  51.091  1.00  0.00    -0.340 N 
HETATM   14  H5  UNL     1      22.921   3.752  51.679  1.00  0.00     0.167 HD
BRANCH  13  15
HETATM   15  C7  UNL     1      22.972   3.143  49.775  1.00  0.00     0.035 A 
HETATM   16  C8  UNL     1      22.513   2.016  49.138  1.00  0.00     0.029 A 
HETATM   17  C9  UNL     1      22.019   1.987  47.855  1.00  0.00     0.004 A 
HETATM   18  C10 UNL     1      21.959   3.146  47.115  1.00  0.00     0.019 A 
HETATM   19  C11 UNL     1      22.405   4.310  47.699  1.00  0.00     0.013 A 
HETATM   20 BR1  UNL     1      22.354   5.938  46.744  1.00  0.00    -0.051 Br
HETATM   21  C12 UNL     1      22.887   4.268  48.984  1.00  0.00     0.048 A 
ENDBRANCH  13  15
ENDBRANCH   6  13
BRANCH   1  22
HETATM   22  C2  UNL     1      20.407   0.267  53.772  1.00  0.00     0.064 C 
HETATM   23  C1  UNL     1      19.832  -0.897  53.509  1.00  0.00     0.017 C 
ENDBRANCH   1  22
TORSDOF 3
ENDMDL
