MODEL 1
REMARK VINA RESULT:     -10.0      0.000      0.000
REMARK  2 active torsions:
REMARK  status: ('A' for Active; 'I' for Inactive)
REMARK    1  A    between atoms: C6_9  and  N3_10 
REMARK    2  A    between atoms: N3_10  and  C7_11 
ROOT
HETATM    1  C1  UNL     1      20.107   2.981  47.333  1.00  0.00     0.000 C 
HETATM    2  O1  UNL     1      21.447   3.385  47.206  1.00  0.00     0.000 OA
HETATM    3  C2  UNL     1      22.334   3.622  48.216  1.00  0.00     0.049 A 
HETATM    4  C3  UNL     1      22.779   2.837  49.175  1.00  0.00     0.054 C 
HETATM    5  C4  UNL     1      23.681   2.853  50.318  1.00  0.00     0.073 A 
HETATM    6  N1  UNL     1      22.887   2.813  51.393  1.00  0.00    -0.241 NA
HETATM    7  C5  UNL     1      23.273   2.804  52.667  1.00  0.00     0.236 A 
HETATM    8  N2  UNL     1      24.588   2.839  52.918  1.00  0.00    -0.224 NA
HETATM    9  C6  UNL     1      25.416   2.880  51.832  1.00  0.00     0.142 A 
HETATM   10  C13 UNL     1      25.042   2.891  50.481  1.00  0.00     0.041 A 
HETATM   11  C14 UNL     1      26.286   2.951  49.731  1.00  0.00     0.041 C 
HETATM   12  C15 UNL     1      26.978   3.886  49.119  1.00  0.00     0.135 C 
HETATM   13  O2  UNL     1      27.570   4.991  48.528  1.00  0.00    -0.362 OA
HETATM   14  C16 UNL     1      26.885   6.229  48.787  1.00  0.00     0.191 C 
HETATM   15  C17 UNL     1      27.402   7.368  47.970  1.00  0.00     0.146 C 
HETATM   16  N4  UNL     1      26.631   8.553  48.298  1.00  0.00    -0.199 NA
HETATM   17  C18 UNL     1      27.026   9.719  47.580  1.00  0.00     0.143 C 
HETATM   18  O3  UNL     1      25.339   8.253  48.267  1.00  0.00    -0.302 OA
HETATM   19  C19 UNL     1      24.774   8.017  47.047  1.00  0.00     0.221 C 
HETATM   20  C20 UNL     1      23.326   7.495  47.132  1.00  0.00     0.214 C 
HETATM   21  O4  UNL     1      23.290   6.312  47.843  1.00  0.00    -0.313 OA
HETATM   22  S1  UNL     1      22.199   5.158  47.272  1.00  0.00     0.030 SA
ENDROOT
BRANCH   9  23
HETATM   23  N3  UNL     1      26.805   2.895  52.235  1.00  0.00    -0.340 N 
HETATM   24  H6  UNL     1      27.351   3.790  52.210  1.00  0.00     0.167 HD
BRANCH  23  25
HETATM   25  C7  UNL     1      27.503   1.740  52.679  1.00  0.00     0.035 A 
HETATM   26  C8  UNL     1      28.702   1.812  53.389  1.00  0.00     0.032 A 
HETATM   27  C9  UNL     1      29.344   0.670  53.797  1.00  0.00     0.046 A 
HETATM   28  C10 UNL     1      28.817  -0.583  53.516  1.00  0.00     0.138 A 
HETATM   29  F1  UNL     1      29.417  -1.714  53.900  1.00  0.00    -0.204 F 
HETATM   30  C11 UNL     1      27.635  -0.702  52.817  1.00  0.00     0.074 A 
HETATM   31 CL1  UNL     1      26.939  -2.244  52.444  1.00  0.00    -0.081 Cl
HETATM   32  C12 UNL     1      27.016   0.483  52.421  1.00  0.00     0.056 A 
ENDBRANCH  23  25
ENDBRANCH   9  23
TORSDOF 2
ENDMDL
MODEL 2
REMARK VINA RESULT:      -9.3      2.779      5.647
REMARK  2 active torsions:
REMARK  status: ('A' for Active; 'I' for Inactive)
REMARK    1  A    between atoms: C6_9  and  N3_10 
REMARK    2  A    between atoms: N3_10  and  C7_11 
ROOT
HETATM    1  C1  UNL     1      22.651   8.477  49.908  1.00  0.00     0.000 C 
HETATM    2  O1  UNL     1      22.155   7.353  50.589  1.00  0.00     0.000 OA
HETATM    3  C2  UNL     1      22.663   6.086  50.564  1.00  0.00     0.049 A 
HETATM    4  C3  UNL     1      23.850   5.625  50.900  1.00  0.00     0.054 C 
HETATM    5  C4  UNL     1      24.601   4.380  50.960  1.00  0.00     0.073 A 
HETATM    6  N1  UNL     1      25.509   4.470  49.983  1.00  0.00    -0.241 NA
HETATM    7  C5  UNL     1      26.426   3.558  49.663  1.00  0.00     0.236 A 
HETATM    8  N2  UNL     1      26.458   2.430  50.383  1.00  0.00    -0.224 NA
HETATM    9  C6  UNL     1      25.537   2.320  51.387  1.00  0.00     0.142 A 
HETATM   10  C13 UNL     1      24.560   3.258  51.747  1.00  0.00     0.041 A 
HETATM   11  C14 UNL     1      23.835   2.661  52.858  1.00  0.00     0.041 C 
HETATM   12  C15 UNL     1      22.693   2.030  53.012  1.00  0.00     0.135 C 
HETATM   13  O2  UNL     1      21.465   1.388  52.989  1.00  0.00    -0.362 OA
HETATM   14  C16 UNL     1      20.912   1.234  51.670  1.00  0.00     0.191 C 
HETATM   15  C17 UNL     1      19.500   0.744  51.678  1.00  0.00     0.146 C 
HETATM   16  N4  UNL     1      19.043   0.644  50.306  1.00  0.00    -0.199 NA
HETATM   17  C18 UNL     1      17.700   0.186  50.173  1.00  0.00     0.143 C 
HETATM   18  O3  UNL     1      19.348   1.765  49.663  1.00  0.00    -0.302 OA
HETATM   19  C19 UNL     1      18.650   2.891  49.991  1.00  0.00     0.221 C 
HETATM   20  C20 UNL     1      19.204   4.169  49.331  1.00  0.00     0.214 C 
HETATM   21  O4  UNL     1      20.517   4.368  49.710  1.00  0.00    -0.313 OA
HETATM   22  S1  UNL     1      20.961   5.976  49.964  1.00  0.00     0.030 SA
ENDROOT
BRANCH   9  23
HETATM   23  N3  UNL     1      25.688   1.069  52.098  1.00  0.00    -0.340 N 
HETATM   24  H6  UNL     1      24.858   0.445  52.248  1.00  0.00     0.167 HD
BRANCH  23  25
HETATM   25  C7  UNL     1      26.926   0.613  52.625  1.00  0.00     0.035 A 
HETATM   26  C8  UNL     1      27.871   1.476  53.179  1.00  0.00     0.032 A 
HETATM   27  C9  UNL     1      29.056   0.991  53.675  1.00  0.00     0.046 A 
HETATM   28  C10 UNL     1      29.341  -0.366  53.639  1.00  0.00     0.138 A 
HETATM   29  F1  UNL     1      30.484  -0.870  54.115  1.00  0.00    -0.204 F 
HETATM   30  C11 UNL     1      28.436  -1.256  53.101  1.00  0.00     0.074 A 
HETATM   31 CL1  UNL     1      28.748  -2.959  53.035  1.00  0.00    -0.081 Cl
HETATM   32  C12 UNL     1      27.246  -0.722  52.608  1.00  0.00     0.056 A 
ENDBRANCH  23  25
ENDBRANCH   9  23
TORSDOF 2
ENDMDL
MODEL 3
REMARK VINA RESULT:      -9.2      4.502      7.288
REMARK  2 active torsions:
REMARK  status: ('A' for Active; 'I' for Inactive)
REMARK    1  A    between atoms: C6_9  and  N3_10 
REMARK    2  A    between atoms: N3_10  and  C7_11 
ROOT
HETATM    1  C1  UNL     1      18.514  -1.340  53.343  1.00  0.00     0.000 C 
HETATM    2  O1  UNL     1      19.575  -0.492  53.700  1.00  0.00     0.000 OA
HETATM    3  C2  UNL     1      20.394   0.201  52.856  1.00  0.00     0.049 A 
HETATM    4  C3  UNL     1      20.121   1.113  51.944  1.00  0.00     0.054 C 
HETATM    5  C4  UNL     1      20.783   1.958  50.961  1.00  0.00     0.073 A 
HETATM    6  N1  UNL     1      20.445   1.446  49.773  1.00  0.00    -0.241 NA
HETATM    7  C5  UNL     1      20.817   1.899  48.577  1.00  0.00     0.236 A 
HETATM    8  N2  UNL     1      21.611   2.977  48.540  1.00  0.00    -0.224 NA
HETATM    9  C6  UNL     1      21.966   3.514  49.745  1.00  0.00     0.142 A 
HETATM   10  C13 UNL     1      21.594   3.062  51.018  1.00  0.00     0.041 A 
HETATM   11  C14 UNL     1      22.241   3.964  51.959  1.00  0.00     0.041 C 
HETATM   12  C15 UNL     1      23.314   3.930  52.716  1.00  0.00     0.135 C 
HETATM   13  O2  UNL     1      24.475   3.721  53.444  1.00  0.00    -0.362 OA
HETATM   14  C16 UNL     1      25.142   2.484  53.136  1.00  0.00     0.191 C 
HETATM   15  C17 UNL     1      26.260   2.171  54.077  1.00  0.00     0.146 C 
HETATM   16  N4  UNL     1      26.844   0.902  53.686  1.00  0.00    -0.199 NA
HETATM   17  C18 UNL     1      27.929   0.483  54.510  1.00  0.00     0.143 C 
HETATM   18  O3  UNL     1      25.874   0.016  53.497  1.00  0.00    -0.302 OA
HETATM   19  C19 UNL     1      25.209  -0.438  54.599  1.00  0.00     0.221 C 
HETATM   20  C20 UNL     1      23.985  -1.311  54.262  1.00  0.00     0.214 C 
HETATM   21  O4  UNL     1      23.085  -0.591  53.500  1.00  0.00    -0.313 OA
HETATM   22  S1  UNL     1      21.458  -0.883  53.836  1.00  0.00     0.030 SA
ENDROOT
BRANCH   9  23
HETATM   23  N3  UNL     1      22.805   4.680  49.569  1.00  0.00    -0.340 N 
HETATM   24  H6  UNL     1      22.383   5.640  49.587  1.00  0.00     0.167 HD
BRANCH  23  25
HETATM   25  C7  UNL     1      24.209   4.611  49.366  1.00  0.00     0.035 A 
HETATM   26  C8  UNL     1      24.946   3.449  49.596  1.00  0.00     0.032 A 
HETATM   27  C9  UNL     1      26.302   3.427  49.388  1.00  0.00     0.046 A 
HETATM   28  C10 UNL     1      26.973   4.558  48.945  1.00  0.00     0.138 A 
HETATM   29  F1  UNL     1      28.293   4.569  48.733  1.00  0.00    -0.204 F 
HETATM   30  C11 UNL     1      26.286   5.728  48.705  1.00  0.00     0.074 A 
HETATM   31 CL1  UNL     1      27.081   7.164  48.150  1.00  0.00    -0.081 Cl
HETATM   32  C12 UNL     1      24.910   5.707  48.929  1.00  0.00     0.056 A 
ENDBRANCH  23  25
ENDBRANCH   9  23
TORSDOF 2
ENDMDL
MODEL 4
REMARK VINA RESULT:      -9.1      4.244      7.019
REMARK  2 active torsions:
REMARK  status: ('A' for Active; 'I' for Inactive)
REMARK    1  A    between atoms: C6_9  and  N3_10 
REMARK    2  A    between atoms: N3_10  and  C7_11 
ROOT
HETATM    1  C1  UNL     1      17.407   1.259  50.684  1.00  0.00     0.000 C 
HETATM    2  O1  UNL     1      18.511   1.675  51.447  1.00  0.00     0.000 OA
HETATM    3  C2  UNL     1      19.681   2.200  50.981  1.00  0.00     0.049 A 
HETATM    4  C3  UNL     1      19.917   3.278  50.259  1.00  0.00     0.054 C 
HETATM    5  C4  UNL     1      21.021   4.015  49.661  1.00  0.00     0.073 A 
HETATM    6  N1  UNL     1      20.902   3.817  48.345  1.00  0.00    -0.241 NA
HETATM    7  C5  UNL     1      21.694   4.308  47.392  1.00  0.00     0.236 A 
HETATM    8  N2  UNL     1      22.718   5.081  47.773  1.00  0.00    -0.224 NA
HETATM    9  C6  UNL     1      22.855   5.295  49.116  1.00  0.00     0.142 A 
HETATM   10  C13 UNL     1      22.042   4.793  50.142  1.00  0.00     0.041 A 
HETATM   11  C14 UNL     1      22.615   5.299  51.379  1.00  0.00     0.041 C 
HETATM   12  C15 UNL     1      23.392   4.823  52.326  1.00  0.00     0.135 C 
HETATM   13  O2  UNL     1      24.211   4.159  53.225  1.00  0.00    -0.362 OA
HETATM   14  C16 UNL     1      24.591   2.837  52.803  1.00  0.00     0.191 C 
HETATM   15  C17 UNL     1      25.286   2.056  53.871  1.00  0.00     0.146 C 
HETATM   16  N4  UNL     1      25.604   0.743  53.344  1.00  0.00    -0.199 NA
HETATM   17  C18 UNL     1      26.272  -0.109  54.271  1.00  0.00     0.143 C 
HETATM   18  O3  UNL     1      24.528   0.239  52.753  1.00  0.00    -0.302 OA
HETATM   19  C19 UNL     1      23.491  -0.148  53.551  1.00  0.00     0.221 C 
HETATM   20  C20 UNL     1      22.225  -0.539  52.766  1.00  0.00     0.214 C 
HETATM   21  O4  UNL     1      21.789   0.529  52.006  1.00  0.00    -0.313 OA
HETATM   22  S1  UNL     1      20.114   0.706  51.902  1.00  0.00     0.030 SA
ENDROOT
BRANCH   9  23
HETATM   23  N3  UNL     1      23.982   6.158  49.394  1.00  0.00    -0.340 N 
HETATM   24  H6  UNL     1      23.832   7.092  49.847  1.00  0.00     0.167 HD
BRANCH  23  25
HETATM   25  C7  UNL     1      25.326   5.814  49.086  1.00  0.00     0.035 A 
HETATM   26  C8  UNL     1      25.868   4.563  49.379  1.00  0.00     0.032 A 
HETATM   27  C9  UNL     1      27.173   4.274  49.065  1.00  0.00     0.046 A 
HETATM   28  C10 UNL     1      27.982   5.217  48.448  1.00  0.00     0.138 A 
HETATM   29  F1  UNL     1      29.256   4.966  48.129  1.00  0.00    -0.204 F 
HETATM   30  C11 UNL     1      27.489   6.466  48.140  1.00  0.00     0.074 A 
HETATM   31 CL1  UNL     1      28.462   7.675  47.370  1.00  0.00    -0.081 Cl
HETATM   32  C12 UNL     1      26.160   6.718  48.477  1.00  0.00     0.056 A 
ENDBRANCH  23  25
ENDBRANCH   9  23
TORSDOF 2
ENDMDL
MODEL 5
REMARK VINA RESULT:      -8.9      2.200      2.541
REMARK  2 active torsions:
REMARK  status: ('A' for Active; 'I' for Inactive)
REMARK    1  A    between atoms: C6_9  and  N3_10 
REMARK    2  A    between atoms: N3_10  and  C7_11 
ROOT
HETATM    1  C1  UNL     1      20.574   6.275  46.178  1.00  0.00     0.000 C 
HETATM    2  O1  UNL     1      21.937   5.952  46.281  1.00  0.00     0.000 OA
HETATM    3  C2  UNL     1      22.661   5.802  47.428  1.00  0.00     0.049 A 
HETATM    4  C3  UNL     1      22.505   4.980  48.447  1.00  0.00     0.054 C 
HETATM    5  C4  UNL     1      23.111   4.642  49.726  1.00  0.00     0.073 A 
HETATM    6  N1  UNL     1      22.253   5.088  50.650  1.00  0.00    -0.241 NA
HETATM    7  C5  UNL     1      22.388   4.994  51.972  1.00  0.00     0.236 A 
HETATM    8  N2  UNL     1      23.489   4.395  52.442  1.00  0.00    -0.224 NA
HETATM    9  C6  UNL     1      24.378   3.933  51.513  1.00  0.00     0.142 A 
HETATM   10  C13 UNL     1      24.266   4.017  50.118  1.00  0.00     0.041 A 
HETATM   11  C14 UNL     1      25.469   3.392  49.591  1.00  0.00     0.041 C 
HETATM   12  C15 UNL     1      26.618   3.810  49.109  1.00  0.00     0.135 C 
HETATM   13  O2  UNL     1      27.765   4.425  48.632  1.00  0.00    -0.362 OA
HETATM   14  C16 UNL     1      27.762   5.857  48.776  1.00  0.00     0.191 C 
HETATM   15  C17 UNL     1      28.895   6.521  48.063  1.00  0.00     0.146 C 
HETATM   16  N4  UNL     1      28.782   7.953  48.260  1.00  0.00    -0.199 NA
HETATM   17  C18 UNL     1      29.810   8.710  47.624  1.00  0.00     0.143 C 
HETATM   18  O3  UNL     1      27.534   8.330  48.008  1.00  0.00    -0.302 OA
HETATM   19  C19 UNL     1      27.117   8.305  46.709  1.00  0.00     0.221 C 
HETATM   20  C20 UNL     1      25.609   8.575  46.544  1.00  0.00     0.214 C 
HETATM   21  O4  UNL     1      24.879   7.627  47.234  1.00  0.00    -0.313 OA
HETATM   22  S1  UNL     1      23.456   7.121  46.481  1.00  0.00     0.030 SA
ENDROOT
BRANCH   9  23
HETATM   23  N3  UNL     1      25.509   3.292  52.147  1.00  0.00    -0.340 N 
HETATM   24  H6  UNL     1      26.467   3.712  52.063  1.00  0.00     0.167 HD
BRANCH  23  25
HETATM   25  C7  UNL     1      25.408   2.093  52.903  1.00  0.00     0.035 A 
HETATM   26  C8  UNL     1      26.368   1.712  53.840  1.00  0.00     0.032 A 
HETATM   27  C9  UNL     1      26.230   0.543  54.547  1.00  0.00     0.046 A 
HETATM   28  C10 UNL     1      25.135  -0.285  54.348  1.00  0.00     0.138 A 
HETATM   29  F1  UNL     1      24.971  -1.428  55.021  1.00  0.00    -0.204 F 
HETATM   30  C11 UNL     1      24.162   0.052  53.432  1.00  0.00     0.074 A 
HETATM   31 CL1  UNL     1      22.776  -0.949  53.151  1.00  0.00    -0.081 Cl
HETATM   32  C12 UNL     1      24.341   1.247  52.736  1.00  0.00     0.056 A 
ENDBRANCH  23  25
ENDBRANCH   9  23
TORSDOF 2
ENDMDL
MODEL 6
REMARK VINA RESULT:      -8.5      2.950      5.960
REMARK  2 active torsions:
REMARK  status: ('A' for Active; 'I' for Inactive)
REMARK    1  A    between atoms: C6_9  and  N3_10 
REMARK    2  A    between atoms: N3_10  and  C7_11 
ROOT
HETATM    1  C1  UNL     1      21.740   7.120  45.813  1.00  0.00     0.000 C 
HETATM    2  O1  UNL     1      21.163   6.601  46.984  1.00  0.00     0.000 OA
HETATM    3  C2  UNL     1      21.745   5.752  47.880  1.00  0.00     0.049 A 
HETATM    4  C3  UNL     1      22.836   5.881  48.609  1.00  0.00     0.054 C 
HETATM    5  C4  UNL     1      23.629   5.155  49.590  1.00  0.00     0.073 A 
HETATM    6  N1  UNL     1      24.749   4.808  48.948  1.00  0.00    -0.241 NA
HETATM    7  C5  UNL     1      25.778   4.129  49.454  1.00  0.00     0.236 A 
HETATM    8  N2  UNL     1      25.700   3.746  50.734  1.00  0.00    -0.224 NA
HETATM    9  C6  UNL     1      24.562   4.092  51.407  1.00  0.00     0.142 A 
HETATM   10  C13 UNL     1      23.463   4.803  50.905  1.00  0.00     0.041 A 
HETATM   11  C14 UNL     1      22.520   4.897  52.008  1.00  0.00     0.041 C 
HETATM   12  C15 UNL     1      21.423   4.271  52.370  1.00  0.00     0.135 C 
HETATM   13  O2  UNL     1      20.289   3.506  52.595  1.00  0.00    -0.362 OA
HETATM   14  C16 UNL     1      20.105   2.440  51.646  1.00  0.00     0.191 C 
HETATM   15  C17 UNL     1      18.776   1.769  51.767  1.00  0.00     0.146 C 
HETATM   16  N4  UNL     1      18.694   0.731  50.757  1.00  0.00    -0.199 NA
HETATM   17  C18 UNL     1      17.465   0.010  50.763  1.00  0.00     0.143 C 
HETATM   18  O3  UNL     1      19.077   1.231  49.588  1.00  0.00    -0.302 OA
HETATM   19  C19 UNL     1      18.243   2.123  48.979  1.00  0.00     0.221 C 
HETATM   20  C20 UNL     1      18.859   2.784  47.730  1.00  0.00     0.214 C 
HETATM   21  O4  UNL     1      20.014   3.460  48.072  1.00  0.00    -0.313 OA
HETATM   22  S1  UNL     1      20.267   4.917  47.259  1.00  0.00     0.030 SA
ENDROOT
BRANCH   9  23
HETATM   23  N3  UNL     1      24.610   3.639  52.780  1.00  0.00    -0.340 N 
HETATM   24  H6  UNL     1      24.463   4.320  53.565  1.00  0.00     0.167 HD
BRANCH  23  25
HETATM   25  C7  UNL     1      24.850   2.289  53.151  1.00  0.00     0.035 A 
HETATM   26  C8  UNL     1      23.927   1.270  52.918  1.00  0.00     0.032 A 
HETATM   27  C9  UNL     1      24.200  -0.022  53.294  1.00  0.00     0.046 A 
HETATM   28  C10 UNL     1      25.399  -0.345  53.914  1.00  0.00     0.138 A 
HETATM   29  F1  UNL     1      25.696  -1.592  54.292  1.00  0.00    -0.204 F 
HETATM   30  C11 UNL     1      26.341   0.630  54.164  1.00  0.00     0.074 A 
HETATM   31 CL1  UNL     1      27.852   0.274  54.933  1.00  0.00    -0.081 Cl
HETATM   32  C12 UNL     1      26.023   1.928  53.766  1.00  0.00     0.056 A 
ENDBRANCH  23  25
ENDBRANCH   9  23
TORSDOF 2
ENDMDL
MODEL 7
REMARK VINA RESULT:      -8.5      1.943      2.360
REMARK  2 active torsions:
REMARK  status: ('A' for Active; 'I' for Inactive)
REMARK    1  A    between atoms: C6_9  and  N3_10 
REMARK    2  A    between atoms: N3_10  and  C7_11 
ROOT
HETATM    1  C1  UNL     1      20.557   5.461  44.973  1.00  0.00     0.000 C 
HETATM    2  O1  UNL     1      21.891   5.631  45.379  1.00  0.00     0.000 OA
HETATM    3  C2  UNL     1      22.377   5.567  46.653  1.00  0.00     0.049 A 
HETATM    4  C3  UNL     1      22.349   4.593  47.540  1.00  0.00     0.054 C 
HETATM    5  C4  UNL     1      22.774   4.293  48.900  1.00  0.00     0.073 A 
HETATM    6  N1  UNL     1      21.648   4.253  49.619  1.00  0.00    -0.241 NA
HETATM    7  C5  UNL     1      21.545   4.004  50.923  1.00  0.00     0.236 A 
HETATM    8  N2  UNL     1      22.675   3.768  51.601  1.00  0.00    -0.224 NA
HETATM    9  C6  UNL     1      23.837   3.805  50.883  1.00  0.00     0.142 A 
HETATM   10  C13 UNL     1      23.979   4.064  49.513  1.00  0.00     0.041 A 
HETATM   11  C14 UNL     1      25.408   3.999  49.247  1.00  0.00     0.041 C 
HETATM   12  C15 UNL     1      26.381   4.868  49.090  1.00  0.00     0.135 C 
HETATM   13  O2  UNL     1      27.275   5.918  48.951  1.00  0.00    -0.362 OA
HETATM   14  C16 UNL     1      26.698   7.213  49.195  1.00  0.00     0.191 C 
HETATM   15  C17 UNL     1      27.608   8.340  48.828  1.00  0.00     0.146 C 
HETATM   16  N4  UNL     1      26.921   9.589  49.097  1.00  0.00    -0.199 NA
HETATM   17  C18 UNL     1      27.685  10.751  48.786  1.00  0.00     0.143 C 
HETATM   18  O3  UNL     1      25.700   9.533  48.579  1.00  0.00    -0.302 OA
HETATM   19  C19 UNL     1      25.587   9.569  47.220  1.00  0.00     0.221 C 
HETATM   20  C20 UNL     1      24.155   9.308  46.715  1.00  0.00     0.214 C 
HETATM   21  O4  UNL     1      23.722   8.066  47.136  1.00  0.00    -0.313 OA
HETATM   22  S1  UNL     1      22.778   7.215  46.027  1.00  0.00     0.030 SA
ENDROOT
BRANCH   9  23
HETATM   23  N3  UNL     1      24.979   3.516  51.723  1.00  0.00    -0.340 N 
HETATM   24  H6  UNL     1      25.575   4.297  52.090  1.00  0.00     0.167 HD
BRANCH  23  25
HETATM   25  C7  UNL     1      25.361   2.199  52.098  1.00  0.00     0.035 A 
HETATM   26  C8  UNL     1      26.558   1.616  51.682  1.00  0.00     0.032 A 
HETATM   27  C9  UNL     1      26.886   0.341  52.068  1.00  0.00     0.046 A 
HETATM   28  C10 UNL     1      26.038  -0.398  52.880  1.00  0.00     0.138 A 
HETATM   29  F1  UNL     1      26.329  -1.642  53.274  1.00  0.00    -0.204 F 
HETATM   30  C11 UNL     1      24.845   0.137  53.315  1.00  0.00     0.074 A 
HETATM   31 CL1  UNL     1      23.755  -0.747  54.331  1.00  0.00    -0.081 Cl
HETATM   32  C12 UNL     1      24.551   1.435  52.900  1.00  0.00     0.056 A 
ENDBRANCH  23  25
ENDBRANCH   9  23
TORSDOF 2
ENDMDL
MODEL 8
REMARK VINA RESULT:      -8.4      3.098      5.725
REMARK  2 active torsions:
REMARK  status: ('A' for Active; 'I' for Inactive)
REMARK    1  A    between atoms: C6_9  and  N3_10 
REMARK    2  A    between atoms: N3_10  and  C7_11 
ROOT
HETATM    1  C1  UNL     1      24.876   8.109  45.913  1.00  0.00     0.000 C 
HETATM    2  O1  UNL     1      23.901   7.744  46.856  1.00  0.00     0.000 OA
HETATM    3  C2  UNL     1      23.930   6.665  47.692  1.00  0.00     0.049 A 
HETATM    4  C3  UNL     1      24.798   6.316  48.620  1.00  0.00     0.054 C 
HETATM    5  C4  UNL     1      25.042   5.264  49.598  1.00  0.00     0.073 A 
HETATM    6  N1  UNL     1      26.089   4.582  49.124  1.00  0.00    -0.241 NA
HETATM    7  C5  UNL     1      26.674   3.528  49.692  1.00  0.00     0.236 A 
HETATM    8  N2  UNL     1      26.175   3.093  50.856  1.00  0.00    -0.224 NA
HETATM    9  C6  UNL     1      25.103   3.779  51.355  1.00  0.00     0.142 A 
HETATM   10  C13 UNL     1      24.465   4.888  50.784  1.00  0.00     0.041 A 
HETATM   11  C14 UNL     1      23.384   5.232  51.694  1.00  0.00     0.041 C 
HETATM   12  C15 UNL     1      22.087   5.031  51.740  1.00  0.00     0.135 C 
HETATM   13  O2  UNL     1      20.739   4.728  51.623  1.00  0.00    -0.362 OA
HETATM   14  C16 UNL     1      20.424   3.893  50.495  1.00  0.00     0.191 C 
HETATM   15  C17 UNL     1      18.955   3.758  50.257  1.00  0.00     0.146 C 
HETATM   16  N4  UNL     1      18.756   2.916  49.093  1.00  0.00    -0.199 NA
HETATM   17  C18 UNL     1      17.387   2.707  48.753  1.00  0.00     0.143 C 
HETATM   18  O3  UNL     1      19.547   3.335  48.112  1.00  0.00    -0.302 OA
HETATM   19  C19 UNL     1      19.238   4.523  47.515  1.00  0.00     0.221 C 
HETATM   20  C20 UNL     1      20.315   5.012  46.528  1.00  0.00     0.214 C 
HETATM   21  O4  UNL     1      21.519   5.176  47.182  1.00  0.00    -0.313 OA
HETATM   22  S1  UNL     1      22.441   6.498  46.681  1.00  0.00     0.030 SA
ENDROOT
BRANCH   9  23
HETATM   23  N3  UNL     1      24.673   3.225  52.620  1.00  0.00    -0.340 N 
HETATM   24  H6  UNL     1      24.781   3.781  53.503  1.00  0.00     0.167 HD
BRANCH  23  25
HETATM   25  C7  UNL     1      24.093   1.934  52.753  1.00  0.00     0.035 A 
HETATM   26  C8  UNL     1      24.728   0.890  53.426  1.00  0.00     0.032 A 
HETATM   27  C9  UNL     1      24.131  -0.342  53.529  1.00  0.00     0.046 A 
HETATM   28  C10 UNL     1      22.884  -0.578  52.967  1.00  0.00     0.138 A 
HETATM   29  F1  UNL     1      22.276  -1.766  53.050  1.00  0.00    -0.204 F 
HETATM   30  C11 UNL     1      22.220   0.424  52.293  1.00  0.00     0.074 A 
HETATM   31 CL1  UNL     1      20.662   0.176  51.577  1.00  0.00    -0.081 Cl
HETATM   32  C12 UNL     1      22.862   1.659  52.212  1.00  0.00     0.056 A 
ENDBRANCH  23  25
ENDBRANCH   9  23
TORSDOF 2
ENDMDL
MODEL 9
REMARK VINA RESULT:      -8.2      4.735      7.430
REMARK  2 active torsions:
REMARK  status: ('A' for Active; 'I' for Inactive)
REMARK    1  A    between atoms: C6_9  and  N3_10 
REMARK    2  A    between atoms: N3_10  and  C7_11 
ROOT
HETATM    1  C1  UNL     1      21.477  -1.107  54.503  1.00  0.00     0.000 C 
HETATM    2  O1  UNL     1      21.179  -0.718  53.186  1.00  0.00     0.000 OA
HETATM    3  C2  UNL     1      21.426   0.495  52.612  1.00  0.00     0.049 A 
HETATM    4  C3  UNL     1      22.555   1.151  52.431  1.00  0.00     0.054 C 
HETATM    5  C4  UNL     1      23.058   2.399  51.874  1.00  0.00     0.073 A 
HETATM    6  N1  UNL     1      23.431   3.128  52.930  1.00  0.00    -0.241 NA
HETATM    7  C5  UNL     1      23.960   4.351  52.906  1.00  0.00     0.236 A 
HETATM    8  N2  UNL     1      24.143   4.924  51.710  1.00  0.00    -0.224 NA
HETATM    9  C6  UNL     1      23.767   4.193  50.618  1.00  0.00     0.142 A 
HETATM   10  C13 UNL     1      23.208   2.908  50.610  1.00  0.00     0.041 A 
HETATM   11  C14 UNL     1      22.981   2.588  49.210  1.00  0.00     0.041 C 
HETATM   12  C15 UNL     1      21.951   2.590  48.394  1.00  0.00     0.135 C 
HETATM   13  O2  UNL     1      20.763   2.652  47.683  1.00  0.00    -0.362 OA
HETATM   14  C16 UNL     1      19.660   3.189  48.434  1.00  0.00     0.191 C 
HETATM   15  C17 UNL     1      18.347   3.046  47.734  1.00  0.00     0.146 C 
HETATM   16  N4  UNL     1      17.312   3.601  48.585  1.00  0.00    -0.199 NA
HETATM   17  C18 UNL     1      16.001   3.524  48.031  1.00  0.00     0.143 C 
HETATM   18  O3  UNL     1      17.459   3.124  49.815  1.00  0.00    -0.302 OA
HETATM   19  C19 UNL     1      17.159   1.809  50.023  1.00  0.00     0.221 C 
HETATM   20  C20 UNL     1      17.540   1.307  51.429  1.00  0.00     0.214 C 
HETATM   21  O4  UNL     1      18.897   1.463  51.637  1.00  0.00    -0.313 OA
HETATM   22  S1  UNL     1      19.641   0.228  52.512  1.00  0.00     0.030 SA
ENDROOT
BRANCH   9  23
HETATM   23  N3  UNL     1      24.034   4.912  49.391  1.00  0.00    -0.340 N 
HETATM   24  H6  UNL     1      23.246   5.161  48.744  1.00  0.00     0.167 HD
BRANCH  23  25
HETATM   25  C7  UNL     1      25.334   5.320  48.990  1.00  0.00     0.035 A 
HETATM   26  C8  UNL     1      26.444   4.479  49.072  1.00  0.00     0.032 A 
HETATM   27  C9  UNL     1      27.684   4.916  48.673  1.00  0.00     0.046 A 
HETATM   28  C10 UNL     1      27.862   6.200  48.181  1.00  0.00     0.138 A 
HETATM   29  F1  UNL     1      29.055   6.655  47.784  1.00  0.00    -0.204 F 
HETATM   30  C11 UNL     1      26.793   7.065  48.082  1.00  0.00     0.074 A 
HETATM   31 CL1  UNL     1      26.967   8.678  47.472  1.00  0.00    -0.081 Cl
HETATM   32  C12 UNL     1      25.553   6.582  48.497  1.00  0.00     0.056 A 
ENDBRANCH  23  25
ENDBRANCH   9  23
TORSDOF 2
ENDMDL
