MODEL 1
REMARK VINA RESULT:      -8.9      0.000      0.000
REMARK  10 active torsions:
REMARK  status: ('A' for Active; 'I' for Inactive)
REMARK    1  A    between atoms: C5_5  and  C6_6 
REMARK    2  A    between atoms: C6_6  and  N1_7 
REMARK    3  A    between atoms: C8_9  and  C9_10 
REMARK    4  A    between atoms: C9_10  and  C10_11 
REMARK    5  A    between atoms: C10_11  and  N2_12 
REMARK    6  A    between atoms: C13_15  and  O1_16 
REMARK    7  A    between atoms: O1_16  and  C14_17 
REMARK    8  A    between atoms: C14_17  and  C15_18 
REMARK    9  A    between atoms: C15_18  and  C16_19 
REMARK   10  A    between atoms: C19_22  and  O2_23 
ROOT
HETATM    1  N1  UNL     1      23.586   4.135  50.150  1.00  0.00    -0.351 N 
HETATM    2  C7  UNL     1      22.792   3.538  49.218  1.00  0.00     0.099 A 
HETATM    3  C8  UNL     1      22.529   2.264  49.658  1.00  0.00    -0.028 A 
HETATM    4  C11 UNL     1      23.155   2.053  50.868  1.00  0.00     0.001 A 
HETATM    5  C12 UNL     1      23.271   1.009  51.791  1.00  0.00     0.051 A 
HETATM    6  C13 UNL     1      24.024   1.168  52.960  1.00  0.00     0.069 A 
HETATM    7  C21 UNL     1      24.662   2.365  53.208  1.00  0.00     0.039 A 
HETATM    8  C22 UNL     1      24.542   3.389  52.293  1.00  0.00     0.033 A 
HETATM    9  C23 UNL     1      23.805   3.253  51.136  1.00  0.00     0.045 A 
ENDROOT
BRANCH   6  10
HETATM   10  O1  UNL     1      23.973  -0.009  53.692  1.00  0.00    -0.351 OA
BRANCH  10  11
HETATM   11  C14 UNL     1      25.120  -0.561  54.309  1.00  0.00     0.180 C 
BRANCH  11  12
HETATM   12  C15 UNL     1      26.073  -0.915  53.191  1.00  0.00     0.061 C 
BRANCH  12  13
HETATM   13  C16 UNL     1      27.462  -0.513  53.433  1.00  0.00    -0.072 A 
HETATM   14  C17 UNL     1      28.637  -1.080  53.257  1.00  0.00     0.006 A 
HETATM   15  C18 UNL     1      29.651  -0.135  53.708  1.00  0.00     0.032 A 
HETATM   16  C19 UNL     1      29.078   0.978  54.143  1.00  0.00     0.047 A 
HETATM   17  C20 UNL     1      27.624   0.863  54.018  1.00  0.00     0.098 A 
BRANCH  16  18
HETATM   18  O2  UNL     1      29.653   2.135  54.659  1.00  0.00    -0.365 OA
HETATM   19  H22 UNL     1      29.078   2.898  54.991  1.00  0.00     0.217 HD
ENDBRANCH  16  18
ENDBRANCH  12  13
ENDBRANCH  11  12
ENDBRANCH  10  11
ENDBRANCH   6  10
BRANCH   3  20
HETATM   20  C9  UNL     1      21.700   1.232  48.967  1.00  0.00     0.070 C 
BRANCH  20  21
HETATM   21  C10 UNL     1      20.379   1.885  48.581  1.00  0.00     0.271 C 
BRANCH  21  22
HETATM   22  N2  UNL     1      19.317   1.241  49.351  1.00  0.00     0.078 N 
HETATM   23  H13 UNL     1      19.126   1.828  50.190  1.00  0.00     0.312 HD
HETATM   24  H14 UNL     1      18.439   1.180  48.801  1.00  0.00     0.312 HD
ENDBRANCH  21  22
ENDBRANCH  20  21
ENDBRANCH   3  20
BRANCH   1  25
HETATM   25  C6  UNL     1      24.049   5.501  49.984  1.00  0.00     0.167 C 
BRANCH  25  26
HETATM   26  C5  UNL     1      25.427   5.580  49.438  1.00  0.00    -0.040 A 
HETATM   27  C4  UNL     1      26.259   4.473  49.280  1.00  0.00     0.009 A 
HETATM   28  C3  UNL     1      27.547   4.630  48.756  1.00  0.00     0.007 A 
HETATM   29  C2  UNL     1      28.002   5.886  48.396  1.00  0.00    -0.062 A 
HETATM   30  C1  UNL     1      29.372   6.041  47.843  1.00  0.00     0.048 C 
HETATM   31  C25 UNL     1      27.174   6.976  48.556  1.00  0.00     0.007 A 
HETATM   32  C24 UNL     1      25.883   6.843  49.075  1.00  0.00     0.009 A 
ENDBRANCH  25  26
ENDBRANCH   1  25
TORSDOF 10
ENDMDL
MODEL 2
REMARK VINA RESULT:      -8.5      2.236      6.055
REMARK  10 active torsions:
REMARK  status: ('A' for Active; 'I' for Inactive)
REMARK    1  A    between atoms: C5_5  and  C6_6 
REMARK    2  A    between atoms: C6_6  and  N1_7 
REMARK    3  A    between atoms: C8_9  and  C9_10 
REMARK    4  A    between atoms: C9_10  and  C10_11 
REMARK    5  A    between atoms: C10_11  and  N2_12 
REMARK    6  A    between atoms: C13_15  and  O1_16 
REMARK    7  A    between atoms: O1_16  and  C14_17 
REMARK    8  A    between atoms: C14_17  and  C15_18 
REMARK    9  A    between atoms: C15_18  and  C16_19 
REMARK   10  A    between atoms: C19_22  and  O2_23 
ROOT
HETATM    1  N1  UNL     1      23.331   0.298  53.177  1.00  0.00    -0.351 N 
HETATM    2  C7  UNL     1      22.379  -0.252  52.374  1.00  0.00     0.099 A 
HETATM    3  C8  UNL     1      21.870   0.756  51.592  1.00  0.00    -0.028 A 
HETATM    4  C11 UNL     1      22.500   1.944  51.899  1.00  0.00     0.001 A 
HETATM    5  C12 UNL     1      22.435   3.274  51.475  1.00  0.00     0.051 A 
HETATM    6  C13 UNL     1      23.267   4.247  52.042  1.00  0.00     0.069 A 
HETATM    7  C21 UNL     1      24.160   3.894  53.031  1.00  0.00     0.039 A 
HETATM    8  C22 UNL     1      24.217   2.579  53.443  1.00  0.00     0.033 A 
HETATM    9  C23 UNL     1      23.407   1.607  52.898  1.00  0.00     0.045 A 
ENDROOT
BRANCH   6  10
HETATM   10  O1  UNL     1      23.001   5.470  51.445  1.00  0.00    -0.351 OA
BRANCH  10  11
HETATM   11  C14 UNL     1      24.030   6.381  51.107  1.00  0.00     0.180 C 
BRANCH  11  12
HETATM   12  C15 UNL     1      24.319   6.169  49.639  1.00  0.00     0.061 C 
BRANCH  12  13
HETATM   13  C16 UNL     1      25.533   5.392  49.370  1.00  0.00    -0.072 A 
HETATM   14  C17 UNL     1      25.884   4.133  49.527  1.00  0.00     0.006 A 
HETATM   15  C18 UNL     1      27.256   3.999  49.054  1.00  0.00     0.032 A 
HETATM   16  C19 UNL     1      27.707   5.168  48.621  1.00  0.00     0.047 A 
HETATM   17  C20 UNL     1      26.664   6.184  48.774  1.00  0.00     0.098 A 
BRANCH  16  18
HETATM   18  O2  UNL     1      28.948   5.504  48.089  1.00  0.00    -0.365 OA
HETATM   19  H22 UNL     1      29.052   6.304  47.479  1.00  0.00     0.217 HD
ENDBRANCH  16  18
ENDBRANCH  12  13
ENDBRANCH  11  12
ENDBRANCH  10  11
ENDBRANCH   6  10
BRANCH   3  20
HETATM   20  C9  UNL     1      20.801   0.633  50.557  1.00  0.00     0.070 C 
BRANCH  20  21
HETATM   21  C10 UNL     1      21.441   0.896  49.200  1.00  0.00     0.271 C 
BRANCH  21  22
HETATM   22  N2  UNL     1      20.511   1.702  48.413  1.00  0.00     0.078 N 
HETATM   23  H13 UNL     1      21.068   2.376  47.846  1.00  0.00     0.312 HD
HETATM   24  H14 UNL     1      19.966   1.112  47.756  1.00  0.00     0.312 HD
ENDBRANCH  21  22
ENDBRANCH  20  21
ENDBRANCH   3  20
BRANCH   1  25
HETATM   25  C6  UNL     1      24.069  -0.509  54.134  1.00  0.00     0.167 C 
BRANCH  25  26
HETATM   26  C5  UNL     1      25.536  -0.473  53.908  1.00  0.00    -0.040 A 
HETATM   27  C4  UNL     1      26.155  -1.007  52.779  1.00  0.00     0.009 A 
HETATM   28  C3  UNL     1      27.545  -0.933  52.639  1.00  0.00     0.007 A 
HETATM   29  C2  UNL     1      28.311  -0.330  53.620  1.00  0.00    -0.062 A 
HETATM   30  C1  UNL     1      29.787  -0.258  53.462  1.00  0.00     0.048 C 
HETATM   31  C25 UNL     1      27.692   0.195  54.733  1.00  0.00     0.007 A 
HETATM   32  C24 UNL     1      26.305   0.134  54.895  1.00  0.00     0.009 A 
ENDBRANCH  25  26
ENDBRANCH   1  25
TORSDOF 10
ENDMDL
MODEL 3
REMARK VINA RESULT:      -8.3      3.446      6.400
REMARK  10 active torsions:
REMARK  status: ('A' for Active; 'I' for Inactive)
REMARK    1  A    between atoms: C5_5  and  C6_6 
REMARK    2  A    between atoms: C6_6  and  N1_7 
REMARK    3  A    between atoms: C8_9  and  C9_10 
REMARK    4  A    between atoms: C9_10  and  C10_11 
REMARK    5  A    between atoms: C10_11  and  N2_12 
REMARK    6  A    between atoms: C13_15  and  O1_16 
REMARK    7  A    between atoms: O1_16  and  C14_17 
REMARK    8  A    between atoms: C14_17  and  C15_18 
REMARK    9  A    between atoms: C15_18  and  C16_19 
REMARK   10  A    between atoms: C19_22  and  O2_23 
ROOT
HETATM    1  N1  UNL     1      25.178   2.818  50.458  1.00  0.00    -0.351 N 
HETATM    2  C7  UNL     1      26.469   2.593  50.831  1.00  0.00     0.099 A 
HETATM    3  C8  UNL     1      26.443   1.728  51.896  1.00  0.00    -0.028 A 
HETATM    4  C11 UNL     1      25.137   1.404  52.199  1.00  0.00     0.001 A 
HETATM    5  C12 UNL     1      24.472   0.605  53.134  1.00  0.00     0.051 A 
HETATM    6  C13 UNL     1      23.075   0.518  53.137  1.00  0.00     0.069 A 
HETATM    7  C21 UNL     1      22.342   1.227  52.208  1.00  0.00     0.039 A 
HETATM    8  C22 UNL     1      23.006   2.011  51.289  1.00  0.00     0.033 A 
HETATM    9  C23 UNL     1      24.381   2.111  51.270  1.00  0.00     0.045 A 
ENDROOT
BRANCH   6  10
HETATM   10  O1  UNL     1      22.678  -0.333  54.157  1.00  0.00    -0.351 OA
BRANCH  10  11
HETATM   11  C14 UNL     1      21.374  -0.295  54.703  1.00  0.00     0.180 C 
BRANCH  11  12
HETATM   12  C15 UNL     1      20.654  -1.509  54.165  1.00  0.00     0.061 C 
BRANCH  12  13
HETATM   13  C16 UNL     1      19.403  -1.206  53.461  1.00  0.00    -0.072 A 
HETATM   14  C17 UNL     1      19.017  -0.277  52.613  1.00  0.00     0.006 A 
HETATM   15  C18 UNL     1      17.622  -0.538  52.282  1.00  0.00     0.032 A 
HETATM   16  C19 UNL     1      17.192  -1.612  52.929  1.00  0.00     0.047 A 
HETATM   17  C20 UNL     1      18.274  -2.156  53.751  1.00  0.00     0.098 A 
BRANCH  16  18
HETATM   18  O2  UNL     1      15.941  -2.221  52.915  1.00  0.00    -0.365 OA
HETATM   19  H22 UNL     1      15.549  -2.622  53.757  1.00  0.00     0.217 HD
ENDBRANCH  16  18
ENDBRANCH  12  13
ENDBRANCH  11  12
ENDBRANCH  10  11
ENDBRANCH   6  10
BRANCH   3  20
HETATM   20  C9  UNL     1      27.619   1.193  52.645  1.00  0.00     0.070 C 
BRANCH  20  21
HETATM   21  C10 UNL     1      27.902   2.147  53.799  1.00  0.00     0.271 C 
BRANCH  21  22
HETATM   22  N2  UNL     1      29.305   2.548  53.717  1.00  0.00     0.078 N 
HETATM   23  H13 UNL     1      29.405   3.207  52.916  1.00  0.00     0.312 HD
HETATM   24  H14 UNL     1      29.604   3.047  54.576  1.00  0.00     0.312 HD
ENDBRANCH  21  22
ENDBRANCH  20  21
ENDBRANCH   3  20
BRANCH   1  25
HETATM   25  C6  UNL     1      24.856   3.699  49.348  1.00  0.00     0.167 C 
BRANCH  25  26
HETATM   26  C5  UNL     1      25.304   5.096  49.573  1.00  0.00    -0.040 A 
HETATM   27  C4  UNL     1      24.710   5.958  50.492  1.00  0.00     0.009 A 
HETATM   28  C3  UNL     1      25.193   7.263  50.646  1.00  0.00     0.007 A 
HETATM   29  C2  UNL     1      26.261   7.703  49.885  1.00  0.00    -0.062 A 
HETATM   30  C1  UNL     1      26.764   9.091  50.055  1.00  0.00     0.048 C 
HETATM   31  C25 UNL     1      26.842   6.845  48.977  1.00  0.00     0.007 A 
HETATM   32  C24 UNL     1      26.379   5.537  48.807  1.00  0.00     0.009 A 
ENDBRANCH  25  26
ENDBRANCH   1  25
TORSDOF 10
ENDMDL
MODEL 4
REMARK VINA RESULT:      -8.2      2.568      6.703
REMARK  10 active torsions:
REMARK  status: ('A' for Active; 'I' for Inactive)
REMARK    1  A    between atoms: C5_5  and  C6_6 
REMARK    2  A    between atoms: C6_6  and  N1_7 
REMARK    3  A    between atoms: C8_9  and  C9_10 
REMARK    4  A    between atoms: C9_10  and  C10_11 
REMARK    5  A    between atoms: C10_11  and  N2_12 
REMARK    6  A    between atoms: C13_15  and  O1_16 
REMARK    7  A    between atoms: O1_16  and  C14_17 
REMARK    8  A    between atoms: C14_17  and  C15_18 
REMARK    9  A    between atoms: C15_18  and  C16_19 
REMARK   10  A    between atoms: C19_22  and  O2_23 
ROOT
HETATM    1  N1  UNL     1      23.529   0.158  53.132  1.00  0.00    -0.351 N 
HETATM    2  C7  UNL     1      22.308  -0.286  52.723  1.00  0.00     0.099 A 
HETATM    3  C8  UNL     1      21.907   0.517  51.684  1.00  0.00    -0.028 A 
HETATM    4  C11 UNL     1      22.873   1.468  51.434  1.00  0.00     0.001 A 
HETATM    5  C12 UNL     1      23.054   2.531  50.544  1.00  0.00     0.051 A 
HETATM    6  C13 UNL     1      24.215   3.312  50.589  1.00  0.00     0.069 A 
HETATM    7  C21 UNL     1      25.193   3.034  51.521  1.00  0.00     0.039 A 
HETATM    8  C22 UNL     1      25.006   1.984  52.394  1.00  0.00     0.033 A 
HETATM    9  C23 UNL     1      23.870   1.204  52.366  1.00  0.00     0.045 A 
ENDROOT
BRANCH   6  10
HETATM   10  O1  UNL     1      24.140   4.288  49.606  1.00  0.00    -0.351 OA
BRANCH  10  11
HETATM   11  C14 UNL     1      24.551   5.622  49.839  1.00  0.00     0.180 C 
BRANCH  11  12
HETATM   12  C15 UNL     1      25.304   6.055  48.602  1.00  0.00     0.061 C 
BRANCH  12  13
HETATM   13  C16 UNL     1      26.321   7.082  48.844  1.00  0.00    -0.072 A 
HETATM   14  C17 UNL     1      27.376   7.518  48.188  1.00  0.00     0.006 A 
HETATM   15  C18 UNL     1      27.979   8.579  48.984  1.00  0.00     0.032 A 
HETATM   16  C19 UNL     1      27.285   8.767  50.098  1.00  0.00     0.047 A 
HETATM   17  C20 UNL     1      26.155   7.837  50.134  1.00  0.00     0.098 A 
BRANCH  16  18
HETATM   18  O2  UNL     1      27.494   9.666  51.139  1.00  0.00    -0.365 OA
HETATM   19  H22 UNL     1      26.813  10.383  51.350  1.00  0.00     0.217 HD
ENDBRANCH  16  18
ENDBRANCH  12  13
ENDBRANCH  11  12
ENDBRANCH  10  11
ENDBRANCH   6  10
BRANCH   3  20
HETATM   20  C9  UNL     1      20.632   0.414  50.914  1.00  0.00     0.070 C 
BRANCH  20  21
HETATM   21  C10 UNL     1      19.494   0.794  51.855  1.00  0.00     0.271 C 
BRANCH  21  22
HETATM   22  N2  UNL     1      18.587  -0.348  51.945  1.00  0.00     0.078 N 
HETATM   23  H13 UNL     1      19.160  -1.218  51.924  1.00  0.00     0.312 HD
HETATM   24  H14 UNL     1      18.061  -0.339  52.839  1.00  0.00     0.312 HD
ENDBRANCH  21  22
ENDBRANCH  20  21
ENDBRANCH   3  20
BRANCH   1  25
HETATM   25  C6  UNL     1      24.238  -0.483  54.227  1.00  0.00     0.167 C 
BRANCH  25  26
HETATM   26  C5  UNL     1      25.702  -0.561  53.997  1.00  0.00    -0.040 A 
HETATM   27  C4  UNL     1      26.284  -1.310  52.976  1.00  0.00     0.009 A 
HETATM   28  C3  UNL     1      27.675  -1.332  52.825  1.00  0.00     0.007 A 
HETATM   29  C2  UNL     1      28.479  -0.611  53.690  1.00  0.00    -0.062 A 
HETATM   30  C1  UNL     1      29.955  -0.643  53.522  1.00  0.00     0.048 C 
HETATM   31  C25 UNL     1      27.897   0.125  54.698  1.00  0.00     0.007 A 
HETATM   32  C24 UNL     1      26.510   0.164  54.867  1.00  0.00     0.009 A 
ENDBRANCH  25  26
ENDBRANCH   1  25
TORSDOF 10
ENDMDL
MODEL 5
REMARK VINA RESULT:      -8.1      4.097      8.628
REMARK  10 active torsions:
REMARK  status: ('A' for Active; 'I' for Inactive)
REMARK    1  A    between atoms: C5_5  and  C6_6 
REMARK    2  A    between atoms: C6_6  and  N1_7 
REMARK    3  A    between atoms: C8_9  and  C9_10 
REMARK    4  A    between atoms: C9_10  and  C10_11 
REMARK    5  A    between atoms: C10_11  and  N2_12 
REMARK    6  A    between atoms: C13_15  and  O1_16 
REMARK    7  A    between atoms: O1_16  and  C14_17 
REMARK    8  A    between atoms: C14_17  and  C15_18 
REMARK    9  A    between atoms: C15_18  and  C16_19 
REMARK   10  A    between atoms: C19_22  and  O2_23 
ROOT
HETATM    1  N1  UNL     1      23.497   0.484  53.454  1.00  0.00    -0.351 N 
HETATM    2  C7  UNL     1      24.160   1.579  52.989  1.00  0.00     0.099 A 
HETATM    3  C8  UNL     1      23.242   2.371  52.344  1.00  0.00    -0.028 A 
HETATM    4  C11 UNL     1      21.998   1.778  52.399  1.00  0.00     0.001 A 
HETATM    5  C12 UNL     1      20.706   2.069  51.950  1.00  0.00     0.051 A 
HETATM    6  C13 UNL     1      19.646   1.193  52.206  1.00  0.00     0.069 A 
HETATM    7  C21 UNL     1      19.873   0.027  52.908  1.00  0.00     0.039 A 
HETATM    8  C22 UNL     1      21.150  -0.251  53.347  1.00  0.00     0.033 A 
HETATM    9  C23 UNL     1      22.208   0.598  53.105  1.00  0.00     0.045 A 
ENDROOT
BRANCH   6  10
HETATM   10  O1  UNL     1      18.485   1.716  51.657  1.00  0.00    -0.351 OA
BRANCH  10  11
HETATM   11  C14 UNL     1      18.476   2.939  50.945  1.00  0.00     0.180 C 
BRANCH  11  12
HETATM   12  C15 UNL     1      17.075   3.102  50.402  1.00  0.00     0.061 C 
BRANCH  12  13
HETATM   13  C16 UNL     1      16.026   3.091  51.426  1.00  0.00    -0.072 A 
HETATM   14  C17 UNL     1      15.027   2.287  51.724  1.00  0.00     0.006 A 
HETATM   15  C18 UNL     1      14.341   2.851  52.879  1.00  0.00     0.032 A 
HETATM   16  C19 UNL     1      14.932   3.975  53.259  1.00  0.00     0.047 A 
HETATM   17  C20 UNL     1      16.068   4.254  52.378  1.00  0.00     0.098 A 
BRANCH  16  18
HETATM   18  O2  UNL     1      14.620   4.839  54.304  1.00  0.00    -0.365 OA
HETATM   19  H22 UNL     1      14.302   4.482  55.196  1.00  0.00     0.217 HD
ENDBRANCH  16  18
ENDBRANCH  12  13
ENDBRANCH  11  12
ENDBRANCH  10  11
ENDBRANCH   6  10
BRANCH   3  20
HETATM   20  C9  UNL     1      23.503   3.677  51.670  1.00  0.00     0.070 C 
BRANCH  20  21
HETATM   21  C10 UNL     1      23.185   4.782  52.669  1.00  0.00     0.271 C 
BRANCH  21  22
HETATM   22  N2  UNL     1      24.060   5.916  52.380  1.00  0.00     0.078 N 
HETATM   23  H13 UNL     1      23.590   6.782  52.717  1.00  0.00     0.312 HD
HETATM   24  H14 UNL     1      24.963   5.831  52.884  1.00  0.00     0.312 HD
ENDBRANCH  21  22
ENDBRANCH  20  21
ENDBRANCH   3  20
BRANCH   1  25
HETATM   25  C6  UNL     1      24.188  -0.560  54.191  1.00  0.00     0.167 C 
BRANCH  25  26
HETATM   26  C5  UNL     1      25.656  -0.541  53.976  1.00  0.00    -0.040 A 
HETATM   27  C4  UNL     1      26.283  -1.131  52.880  1.00  0.00     0.009 A 
HETATM   28  C3  UNL     1      27.675  -1.069  52.748  1.00  0.00     0.007 A 
HETATM   29  C2  UNL     1      28.435  -0.423  53.707  1.00  0.00    -0.062 A 
HETATM   30  C1  UNL     1      29.912  -0.365  53.558  1.00  0.00     0.048 C 
HETATM   31  C25 UNL     1      27.808   0.157  54.788  1.00  0.00     0.007 A 
HETATM   32  C24 UNL     1      26.420   0.109  54.940  1.00  0.00     0.009 A 
ENDBRANCH  25  26
ENDBRANCH   1  25
TORSDOF 10
ENDMDL
MODEL 6
REMARK VINA RESULT:      -8.1      4.558      8.344
REMARK  10 active torsions:
REMARK  status: ('A' for Active; 'I' for Inactive)
REMARK    1  A    between atoms: C5_5  and  C6_6 
REMARK    2  A    between atoms: C6_6  and  N1_7 
REMARK    3  A    between atoms: C8_9  and  C9_10 
REMARK    4  A    between atoms: C9_10  and  C10_11 
REMARK    5  A    between atoms: C10_11  and  N2_12 
REMARK    6  A    between atoms: C13_15  and  O1_16 
REMARK    7  A    between atoms: O1_16  and  C14_17 
REMARK    8  A    between atoms: C14_17  and  C15_18 
REMARK    9  A    between atoms: C15_18  and  C16_19 
REMARK   10  A    between atoms: C19_22  and  O2_23 
ROOT
HETATM    1  N1  UNL     1      23.757   0.127  53.583  1.00  0.00    -0.351 N 
HETATM    2  C7  UNL     1      24.317   1.059  52.762  1.00  0.00     0.099 A 
HETATM    3  C8  UNL     1      23.309   1.589  51.995  1.00  0.00    -0.028 A 
HETATM    4  C11 UNL     1      22.111   0.994  52.329  1.00  0.00     0.001 A 
HETATM    5  C12 UNL     1      20.775   1.090  51.928  1.00  0.00     0.051 A 
HETATM    6  C13 UNL     1      19.791   0.290  52.520  1.00  0.00     0.069 A 
HETATM    7  C21 UNL     1      20.138  -0.606  53.509  1.00  0.00     0.039 A 
HETATM    8  C22 UNL     1      21.458  -0.694  53.898  1.00  0.00     0.033 A 
HETATM    9  C23 UNL     1      22.442   0.085  53.328  1.00  0.00     0.045 A 
ENDROOT
BRANCH   6  10
HETATM   10  O1  UNL     1      18.564   0.584  51.943  1.00  0.00    -0.351 OA
BRANCH  10  11
HETATM   11  C14 UNL     1      17.709  -0.425  51.441  1.00  0.00     0.180 C 
BRANCH  11  12
HETATM   12  C15 UNL     1      16.762  -0.775  52.566  1.00  0.00     0.061 C 
BRANCH  12  13
HETATM   13  C16 UNL     1      16.754  -2.196  52.927  1.00  0.00    -0.072 A 
HETATM   14  C17 UNL     1      17.563  -2.988  53.599  1.00  0.00     0.006 A 
HETATM   15  C18 UNL     1      16.972  -4.320  53.599  1.00  0.00     0.032 A 
HETATM   16  C19 UNL     1      15.826  -4.313  52.934  1.00  0.00     0.047 A 
HETATM   17  C20 UNL     1      15.559  -2.963  52.431  1.00  0.00     0.098 A 
BRANCH  16  18
HETATM   18  O2  UNL     1      14.933  -5.349  52.682  1.00  0.00    -0.365 OA
HETATM   19  H22 UNL     1      15.263  -6.265  52.408  1.00  0.00     0.217 HD
ENDBRANCH  16  18
ENDBRANCH  12  13
ENDBRANCH  11  12
ENDBRANCH  10  11
ENDBRANCH   6  10
BRANCH   3  20
HETATM   20  C9  UNL     1      23.441   2.646  50.949  1.00  0.00     0.070 C 
BRANCH  20  21
HETATM   21  C10 UNL     1      24.898   3.092  50.926  1.00  0.00     0.271 C 
BRANCH  21  22
HETATM   22  N2  UNL     1      24.920   4.552  50.964  1.00  0.00     0.078 N 
HETATM   23  H13 UNL     1      24.925   4.901  49.982  1.00  0.00     0.312 HD
HETATM   24  H14 UNL     1      24.072   4.929  51.428  1.00  0.00     0.312 HD
ENDBRANCH  21  22
ENDBRANCH  20  21
ENDBRANCH   3  20
BRANCH   1  25
HETATM   25  C6  UNL     1      24.561  -0.625  54.530  1.00  0.00     0.167 C 
BRANCH  25  26
HETATM   26  C5  UNL     1      26.009  -0.605  54.200  1.00  0.00    -0.040 A 
HETATM   27  C4  UNL     1      26.565  -1.300  53.127  1.00  0.00     0.009 A 
HETATM   28  C3  UNL     1      27.941  -1.230  52.882  1.00  0.00     0.007 A 
HETATM   29  C2  UNL     1      28.755  -0.471  53.703  1.00  0.00    -0.062 A 
HETATM   30  C1  UNL     1      30.215  -0.405  53.434  1.00  0.00     0.048 C 
HETATM   31  C25 UNL     1      28.198   0.212  54.762  1.00  0.00     0.007 A 
HETATM   32  C24 UNL     1      26.827   0.158  55.026  1.00  0.00     0.009 A 
ENDBRANCH  25  26
ENDBRANCH   1  25
TORSDOF 10
ENDMDL
MODEL 7
REMARK VINA RESULT:      -8.0      2.635      5.031
REMARK  10 active torsions:
REMARK  status: ('A' for Active; 'I' for Inactive)
REMARK    1  A    between atoms: C5_5  and  C6_6 
REMARK    2  A    between atoms: C6_6  and  N1_7 
REMARK    3  A    between atoms: C8_9  and  C9_10 
REMARK    4  A    between atoms: C9_10  and  C10_11 
REMARK    5  A    between atoms: C10_11  and  N2_12 
REMARK    6  A    between atoms: C13_15  and  O1_16 
REMARK    7  A    between atoms: O1_16  and  C14_17 
REMARK    8  A    between atoms: C14_17  and  C15_18 
REMARK    9  A    between atoms: C15_18  and  C16_19 
REMARK   10  A    between atoms: C19_22  and  O2_23 
ROOT
HETATM    1  N1  UNL     1      26.045   3.000  50.380  1.00  0.00    -0.351 N 
HETATM    2  C7  UNL     1      26.722   2.659  51.511  1.00  0.00     0.099 A 
HETATM    3  C8  UNL     1      25.793   2.481  52.507  1.00  0.00    -0.028 A 
HETATM    4  C11 UNL     1      24.528   2.709  52.007  1.00  0.00     0.001 A 
HETATM    5  C12 UNL     1      23.218   2.690  52.494  1.00  0.00     0.051 A 
HETATM    6  C13 UNL     1      22.138   2.988  51.655  1.00  0.00     0.069 A 
HETATM    7  C21 UNL     1      22.365   3.305  50.333  1.00  0.00     0.039 A 
HETATM    8  C22 UNL     1      23.660   3.321  49.860  1.00  0.00     0.033 A 
HETATM    9  C23 UNL     1      24.737   3.031  50.670  1.00  0.00     0.045 A 
ENDROOT
BRANCH   6  10
HETATM   10  O1  UNL     1      20.962   2.897  52.384  1.00  0.00    -0.351 OA
BRANCH  10  11
HETATM   11  C14 UNL     1      20.000   1.890  52.136  1.00  0.00     0.180 C 
BRANCH  11  12
HETATM   12  C15 UNL     1      19.938   1.046  53.388  1.00  0.00     0.061 C 
BRANCH  12  13
HETATM   13  C16 UNL     1      21.043   0.092  53.527  1.00  0.00    -0.072 A 
HETATM   14  C17 UNL     1      21.856  -0.517  52.689  1.00  0.00     0.006 A 
HETATM   15  C18 UNL     1      22.749  -1.356  53.476  1.00  0.00     0.032 A 
HETATM   16  C19 UNL     1      22.466  -1.242  54.766  1.00  0.00     0.047 A 
HETATM   17  C20 UNL     1      21.350  -0.311  54.943  1.00  0.00     0.098 A 
BRANCH  16  18
HETATM   18  O2  UNL     1      23.056  -1.854  55.867  1.00  0.00    -0.365 OA
HETATM   19  H22 UNL     1      24.010  -2.189  55.827  1.00  0.00     0.217 HD
ENDBRANCH  16  18
ENDBRANCH  12  13
ENDBRANCH  11  12
ENDBRANCH  10  11
ENDBRANCH   6  10
BRANCH   3  20
HETATM   20  C9  UNL     1      26.063   2.101  53.925  1.00  0.00     0.070 C 
BRANCH  20  21
HETATM   21  C10 UNL     1      26.572   0.665  53.929  1.00  0.00     0.271 C 
BRANCH  21  22
HETATM   22  N2  UNL     1      27.526   0.530  55.027  1.00  0.00     0.078 N 
HETATM   23  H13 UNL     1      27.399  -0.413  55.451  1.00  0.00     0.312 HD
HETATM   24  H14 UNL     1      28.504   0.592  54.685  1.00  0.00     0.312 HD
ENDBRANCH  21  22
ENDBRANCH  20  21
ENDBRANCH   3  20
BRANCH   1  25
HETATM   25  C6  UNL     1      26.742   3.260  49.132  1.00  0.00     0.167 C 
BRANCH  25  26
HETATM   26  C5  UNL     1      27.052   4.699  48.935  1.00  0.00    -0.040 A 
HETATM   27  C4  UNL     1      26.159   5.728  49.230  1.00  0.00     0.009 A 
HETATM   28  C3  UNL     1      26.527   7.060  49.017  1.00  0.00     0.007 A 
HETATM   29  C2  UNL     1      27.779   7.363  48.511  1.00  0.00    -0.062 A 
HETATM   30  C1  UNL     1      28.158   8.782  48.286  1.00  0.00     0.048 C 
HETATM   31  C25 UNL     1      28.655   6.341  48.220  1.00  0.00     0.007 A 
HETATM   32  C24 UNL     1      28.311   5.002  48.427  1.00  0.00     0.009 A 
ENDBRANCH  25  26
ENDBRANCH   1  25
TORSDOF 10
ENDMDL
MODEL 8
REMARK VINA RESULT:      -8.0      3.460      5.738
REMARK  10 active torsions:
REMARK  status: ('A' for Active; 'I' for Inactive)
REMARK    1  A    between atoms: C5_5  and  C6_6 
REMARK    2  A    between atoms: C6_6  and  N1_7 
REMARK    3  A    between atoms: C8_9  and  C9_10 
REMARK    4  A    between atoms: C9_10  and  C10_11 
REMARK    5  A    between atoms: C10_11  and  N2_12 
REMARK    6  A    between atoms: C13_15  and  O1_16 
REMARK    7  A    between atoms: O1_16  and  C14_17 
REMARK    8  A    between atoms: C14_17  and  C15_18 
REMARK    9  A    between atoms: C15_18  and  C16_19 
REMARK   10  A    between atoms: C19_22  and  O2_23 
ROOT
HETATM    1  N1  UNL     1      26.111   7.099  48.059  1.00  0.00    -0.351 N 
HETATM    2  C7  UNL     1      27.427   7.190  47.723  1.00  0.00     0.099 A 
HETATM    3  C8  UNL     1      28.043   6.044  48.162  1.00  0.00    -0.028 A 
HETATM    4  C11 UNL     1      27.118   5.227  48.776  1.00  0.00     0.001 A 
HETATM    5  C12 UNL     1      27.115   3.977  49.404  1.00  0.00     0.051 A 
HETATM    6  C13 UNL     1      25.933   3.444  49.930  1.00  0.00     0.069 A 
HETATM    7  C21 UNL     1      24.756   4.156  49.833  1.00  0.00     0.039 A 
HETATM    8  C22 UNL     1      24.768   5.388  49.212  1.00  0.00     0.033 A 
HETATM    9  C23 UNL     1      25.921   5.930  48.687  1.00  0.00     0.045 A 
ENDROOT
BRANCH   6  10
HETATM   10  O1  UNL     1      26.208   2.206  50.491  1.00  0.00    -0.351 OA
BRANCH  10  11
HETATM   11  C14 UNL     1      26.569   2.060  51.851  1.00  0.00     0.180 C 
BRANCH  11  12
HETATM   12  C15 UNL     1      26.198   0.647  52.238  1.00  0.00     0.061 C 
BRANCH  12  13
HETATM   13  C16 UNL     1      27.323  -0.162  52.718  1.00  0.00    -0.072 A 
HETATM   14  C17 UNL     1      28.509   0.104  53.224  1.00  0.00     0.006 A 
HETATM   15  C18 UNL     1      29.162  -1.168  53.501  1.00  0.00     0.032 A 
HETATM   16  C19 UNL     1      28.368  -2.174  53.164  1.00  0.00     0.047 A 
HETATM   17  C20 UNL     1      27.112  -1.648  52.627  1.00  0.00     0.098 A 
BRANCH  16  18
HETATM   18  O2  UNL     1      28.578  -3.546  53.253  1.00  0.00    -0.365 OA
HETATM   19  H22 UNL     1      29.389  -3.976  52.829  1.00  0.00     0.217 HD
ENDBRANCH  16  18
ENDBRANCH  12  13
ENDBRANCH  11  12
ENDBRANCH  10  11
ENDBRANCH   6  10
BRANCH   3  20
HETATM   20  C9  UNL     1      29.488   5.693  48.020  1.00  0.00     0.070 C 
BRANCH  20  21
HETATM   21  C10 UNL     1      30.297   6.797  48.690  1.00  0.00     0.271 C 
BRANCH  21  22
HETATM   22  N2  UNL     1      31.095   6.187  49.751  1.00  0.00     0.078 N 
HETATM   23  H13 UNL     1      32.052   6.599  49.713  1.00  0.00     0.312 HD
HETATM   24  H14 UNL     1      30.698   6.397  50.687  1.00  0.00     0.312 HD
ENDBRANCH  21  22
ENDBRANCH  20  21
ENDBRANCH   3  20
BRANCH   1  25
HETATM   25  C6  UNL     1      25.173   8.160  47.734  1.00  0.00     0.167 C 
BRANCH  25  26
HETATM   26  C5  UNL     1      24.510   7.961  46.421  1.00  0.00    -0.040 A 
HETATM   27  C4  UNL     1      23.297   7.292  46.262  1.00  0.00     0.009 A 
HETATM   28  C3  UNL     1      22.737   7.146  44.989  1.00  0.00     0.007 A 
HETATM   29  C2  UNL     1      23.385   7.663  43.881  1.00  0.00    -0.062 A 
HETATM   30  C1  UNL     1      22.781   7.501  42.533  1.00  0.00     0.048 C 
HETATM   31  C25 UNL     1      24.584   8.322  44.045  1.00  0.00     0.007 A 
HETATM   32  C24 UNL     1      25.162   8.481  45.308  1.00  0.00     0.009 A 
ENDBRANCH  25  26
ENDBRANCH   1  25
TORSDOF 10
ENDMDL
MODEL 9
REMARK VINA RESULT:      -7.8      2.957      5.154
REMARK  10 active torsions:
REMARK  status: ('A' for Active; 'I' for Inactive)
REMARK    1  A    between atoms: C5_5  and  C6_6 
REMARK    2  A    between atoms: C6_6  and  N1_7 
REMARK    3  A    between atoms: C8_9  and  C9_10 
REMARK    4  A    between atoms: C9_10  and  C10_11 
REMARK    5  A    between atoms: C10_11  and  N2_12 
REMARK    6  A    between atoms: C13_15  and  O1_16 
REMARK    7  A    between atoms: O1_16  and  C14_17 
REMARK    8  A    between atoms: C14_17  and  C15_18 
REMARK    9  A    between atoms: C15_18  and  C16_19 
REMARK   10  A    between atoms: C19_22  and  O2_23 
ROOT
HETATM    1  N1  UNL     1      24.535   5.773  48.748  1.00  0.00    -0.351 N 
HETATM    2  C7  UNL     1      25.756   6.190  48.310  1.00  0.00     0.099 A 
HETATM    3  C8  UNL     1      26.689   5.312  48.803  1.00  0.00    -0.028 A 
HETATM    4  C11 UNL     1      26.062   4.340  49.552  1.00  0.00     0.001 A 
HETATM    5  C12 UNL     1      26.440   3.212  50.286  1.00  0.00     0.051 A 
HETATM    6  C13 UNL     1      25.483   2.431  50.943  1.00  0.00     0.069 A 
HETATM    7  C21 UNL     1      24.149   2.774  50.869  1.00  0.00     0.039 A 
HETATM    8  C22 UNL     1      23.785   3.888  50.142  1.00  0.00     0.033 A 
HETATM    9  C23 UNL     1      24.712   4.670  49.489  1.00  0.00     0.045 A 
ENDROOT
BRANCH   6  10
HETATM   10  O1  UNL     1      26.121   1.383  51.589  1.00  0.00    -0.351 OA
BRANCH  10  11
HETATM   11  C14 UNL     1      25.782   0.994  52.906  1.00  0.00     0.180 C 
BRANCH  11  12
HETATM   12  C15 UNL     1      27.030   1.182  53.738  1.00  0.00     0.061 C 
BRANCH  12  13
HETATM   13  C16 UNL     1      28.030   0.122  53.572  1.00  0.00    -0.072 A 
HETATM   14  C17 UNL     1      29.345   0.072  53.608  1.00  0.00     0.006 A 
HETATM   15  C18 UNL     1      29.738  -1.309  53.359  1.00  0.00     0.032 A 
HETATM   16  C19 UNL     1      28.664  -2.065  53.179  1.00  0.00     0.047 A 
HETATM   17  C20 UNL     1      27.459  -1.241  53.293  1.00  0.00     0.098 A 
BRANCH  16  18
HETATM   18  O2  UNL     1      28.565  -3.428  52.917  1.00  0.00    -0.365 OA
HETATM   19  H22 UNL     1      27.703  -3.928  53.085  1.00  0.00     0.217 HD
ENDBRANCH  16  18
ENDBRANCH  12  13
ENDBRANCH  11  12
ENDBRANCH  10  11
ENDBRANCH   6  10
BRANCH   3  20
HETATM   20  C9  UNL     1      28.166   5.363  48.588  1.00  0.00     0.070 C 
BRANCH  20  21
HETATM   21  C10 UNL     1      28.536   6.805  48.267  1.00  0.00     0.271 C 
BRANCH  21  22
HETATM   22  N2  UNL     1      29.746   7.136  49.016  1.00  0.00     0.078 N 
HETATM   23  H13 UNL     1      29.568   8.016  49.544  1.00  0.00     0.312 HD
HETATM   24  H14 UNL     1      29.975   6.395  49.705  1.00  0.00     0.312 HD
ENDBRANCH  21  22
ENDBRANCH  20  21
ENDBRANCH   3  20
BRANCH   1  25
HETATM   25  C6  UNL     1      23.322   6.492  48.399  1.00  0.00     0.167 C 
BRANCH  25  26
HETATM   26  C5  UNL     1      22.659   5.950  47.186  1.00  0.00    -0.040 A 
HETATM   27  C4  UNL     1      21.998   4.724  47.152  1.00  0.00     0.009 A 
HETATM   28  C3  UNL     1      21.397   4.282  45.968  1.00  0.00     0.007 A 
HETATM   29  C2  UNL     1      21.457   5.061  44.826  1.00  0.00    -0.062 A 
HETATM   30  C1  UNL     1      20.817   4.582  43.574  1.00  0.00     0.048 C 
HETATM   31  C25 UNL     1      22.113   6.272  44.868  1.00  0.00     0.007 A 
HETATM   32  C24 UNL     1      22.719   6.734  46.039  1.00  0.00     0.009 A 
ENDBRANCH  25  26
ENDBRANCH   1  25
TORSDOF 10
ENDMDL
