MODEL 1
REMARK VINA RESULT:      -9.3      0.000      0.000
REMARK  5 active torsions:
REMARK  status: ('A' for Active; 'I' for Inactive)
REMARK    1  A    between atoms: C1_2  and  C2_3 
REMARK    2  A    between atoms: C3_5  and  N1_6 
REMARK    3  A    between atoms: N1_6  and  C4_7 
REMARK    4  A    between atoms: N3_14  and  C10_15 
REMARK    5  A    between atoms: C10_15  and  C11_16 
ROOT
HETATM    1  C4  UNL     1      21.809   1.099  50.409  1.00  0.00     0.723 A 
HETATM    2  N2  UNL     1      21.432   1.201  49.194  1.00  0.00    -0.102 NA
HETATM    3  C5  UNL     1      21.926   1.925  48.059  1.00  0.00     0.197 A 
HETATM    4  C6  UNL     1      23.128   2.713  48.401  1.00  0.00     0.011 A 
HETATM    5  C7  UNL     1      23.974   3.040  49.364  1.00  0.00     0.010 A 
HETATM    6  C8  UNL     1      25.066   3.866  49.321  1.00  0.00     0.032 A 
HETATM    7  C9  UNL     1      25.545   3.810  50.636  1.00  0.00     0.094 A 
HETATM    8  N3  UNL     1      24.764   2.991  51.387  1.00  0.00    -0.336 N 
HETATM    9  C21 UNL     1      23.775   2.498  50.616  1.00  0.00     0.159 A 
HETATM   10  N4  UNL     1      22.896   1.689  51.105  1.00  0.00    -0.044 NA
ENDROOT
BRANCH   8  11
HETATM   11  C10 UNL     1      24.992   2.716  52.802  1.00  0.00     0.168 C 
BRANCH  11  12
HETATM   12  C11 UNL     1      26.139   1.825  52.992  1.00  0.00    -0.039 A 
HETATM   13  C12 UNL     1      27.378   2.231  53.438  1.00  0.00     0.010 A 
HETATM   14  C13 UNL     1      28.476   1.417  53.627  1.00  0.00     0.013 A 
HETATM   15  C14 UNL     1      28.255   0.071  53.322  1.00  0.00    -0.026 A 
HETATM   16  C15 UNL     1      29.344  -0.780  53.501  1.00  0.00     0.012 A 
HETATM   17  C19 UNL     1      27.045  -0.419  52.870  1.00  0.00    -0.025 A 
HETATM   18  C16 UNL     1      29.179  -2.131  53.213  1.00  0.00     0.001 A 
HETATM   19  C17 UNL     1      27.951  -2.594  52.760  1.00  0.00     0.001 A 
HETATM   20  C18 UNL     1      26.870  -1.755  52.582  1.00  0.00     0.012 A 
HETATM   21  C20 UNL     1      26.013   0.484  52.717  1.00  0.00     0.021 A 
ENDBRANCH  11  12
ENDBRANCH   8  11
BRANCH   1  22
HETATM   22  N1  UNL     1      20.993   0.236  51.221  1.00  0.00    -0.197 N 
HETATM   23  H3  UNL     1      20.102  -0.145  50.801  1.00  0.00     0.183 HD
BRANCH  22  24
HETATM   24  C3  UNL     1      21.350  -0.112  52.553  1.00  0.00     0.128 C 
HETATM   25  C2  UNL     1      20.799  -0.577  53.664  1.00  0.00     0.064 C 
HETATM   26 BR1  UNL     1      18.951  -0.804  53.181  1.00  0.00    -0.046 Br
BRANCH  25  27
HETATM   27  C1  UNL     1      21.423  -0.855  54.947  1.00  0.00     0.279 C 
HETATM   28  O1  UNL     1      21.782  -2.070  55.001  1.00  0.00    -0.301 OA
ENDBRANCH  25  27
ENDBRANCH  22  24
ENDBRANCH   1  22
TORSDOF 5
ENDMDL
MODEL 2
REMARK VINA RESULT:      -8.8      3.351      6.968
REMARK  5 active torsions:
REMARK  status: ('A' for Active; 'I' for Inactive)
REMARK    1  A    between atoms: C1_2  and  C2_3 
REMARK    2  A    between atoms: C3_5  and  N1_6 
REMARK    3  A    between atoms: N1_6  and  C4_7 
REMARK    4  A    between atoms: N3_14  and  C10_15 
REMARK    5  A    between atoms: C10_15  and  C11_16 
ROOT
HETATM    1  C4  UNL     1      25.148  -0.518  53.607  1.00  0.00     0.723 A 
HETATM    2  N2  UNL     1      25.256  -1.032  54.771  1.00  0.00    -0.102 NA
HETATM    3  C5  UNL     1      24.310  -1.417  55.776  1.00  0.00     0.197 A 
HETATM    4  C6  UNL     1      22.923  -1.148  55.347  1.00  0.00     0.011 A 
HETATM    5  C7  UNL     1      22.159  -0.677  54.374  1.00  0.00     0.010 A 
HETATM    6  C8  UNL     1      20.795  -0.569  54.312  1.00  0.00     0.032 A 
HETATM    7  C9  UNL     1      20.589  -0.004  53.048  1.00  0.00     0.094 A 
HETATM    8  N3  UNL     1      21.778   0.198  52.423  1.00  0.00    -0.336 N 
HETATM    9  C21 UNL     1      22.775  -0.214  53.232  1.00  0.00     0.159 A 
HETATM   10  N4  UNL     1      24.008  -0.124  52.859  1.00  0.00    -0.044 NA
ENDROOT
BRANCH   8  11
HETATM   11  C10 UNL     1      21.913   0.775  51.089  1.00  0.00     0.168 C 
BRANCH  11  12
HETATM   12  C11 UNL     1      22.425   2.146  51.153  1.00  0.00    -0.039 A 
HETATM   13  C12 UNL     1      21.914   3.134  51.967  1.00  0.00     0.010 A 
HETATM   14  C13 UNL     1      22.373   4.431  52.049  1.00  0.00     0.013 A 
HETATM   15  C14 UNL     1      23.454   4.715  51.210  1.00  0.00    -0.026 A 
HETATM   16  C15 UNL     1      23.943   6.020  51.268  1.00  0.00     0.012 A 
HETATM   17  C19 UNL     1      24.026   3.786  50.364  1.00  0.00    -0.025 A 
HETATM   18  C16 UNL     1      25.019   6.355  50.453  1.00  0.00     0.001 A 
HETATM   19  C17 UNL     1      25.573   5.400  49.613  1.00  0.00     0.001 A 
HETATM   20  C18 UNL     1      25.092   4.108  49.552  1.00  0.00     0.012 A 
HETATM   21  C20 UNL     1      23.487   2.515  50.362  1.00  0.00     0.021 A 
ENDBRANCH  11  12
ENDBRANCH   8  11
BRANCH   1  22
HETATM   22  N1  UNL     1      26.397  -0.296  52.930  1.00  0.00    -0.197 N 
HETATM   23  H3  UNL     1      26.692  -0.989  52.190  1.00  0.00     0.183 HD
BRANCH  22  24
HETATM   24  C3  UNL     1      27.233   0.817  53.226  1.00  0.00     0.128 C 
HETATM   25  C2  UNL     1      28.482   1.085  53.575  1.00  0.00     0.064 C 
HETATM   26 BR1  UNL     1      29.298  -0.654  53.673  1.00  0.00    -0.046 Br
BRANCH  25  27
HETATM   27  C1  UNL     1      29.105   2.374  53.826  1.00  0.00     0.279 C 
HETATM   28  O1  UNL     1      29.620   2.388  54.985  1.00  0.00    -0.301 OA
ENDBRANCH  25  27
ENDBRANCH  22  24
ENDBRANCH   1  22
TORSDOF 5
ENDMDL
MODEL 3
REMARK VINA RESULT:      -8.7      3.615      7.137
REMARK  5 active torsions:
REMARK  status: ('A' for Active; 'I' for Inactive)
REMARK    1  A    between atoms: C1_2  and  C2_3 
REMARK    2  A    between atoms: C3_5  and  N1_6 
REMARK    3  A    between atoms: N1_6  and  C4_7 
REMARK    4  A    between atoms: N3_14  and  C10_15 
REMARK    5  A    between atoms: C10_15  and  C11_16 
ROOT
HETATM    1  C4  UNL     1      24.989  -0.610  54.695  1.00  0.00     0.723 A 
HETATM    2  N2  UNL     1      24.230  -1.311  55.445  1.00  0.00    -0.102 NA
HETATM    3  C5  UNL     1      22.830  -1.619  55.427  1.00  0.00     0.197 A 
HETATM    4  C6  UNL     1      22.147  -0.974  54.288  1.00  0.00     0.011 A 
HETATM    5  C7  UNL     1      22.301  -0.195  53.230  1.00  0.00     0.010 A 
HETATM    6  C8  UNL     1      21.371   0.234  52.320  1.00  0.00     0.032 A 
HETATM    7  C9  UNL     1      22.133   1.021  51.448  1.00  0.00     0.094 A 
HETATM    8  N3  UNL     1      23.432   1.038  51.844  1.00  0.00    -0.336 N 
HETATM    9  C21 UNL     1      23.563   0.287  52.956  1.00  0.00     0.159 A 
HETATM   10  N4  UNL     1      24.712   0.147  53.527  1.00  0.00    -0.044 NA
ENDROOT
BRANCH   8  11
HETATM   11  C10 UNL     1      24.489   1.769  51.151  1.00  0.00     0.168 C 
BRANCH  11  12
HETATM   12  C11 UNL     1      24.191   3.202  51.090  1.00  0.00    -0.039 A 
HETATM   13  C12 UNL     1      23.803   3.965  52.171  1.00  0.00     0.010 A 
HETATM   14  C13 UNL     1      23.517   5.314  52.146  1.00  0.00     0.013 A 
HETATM   15  C14 UNL     1      23.647   5.909  50.888  1.00  0.00    -0.026 A 
HETATM   16  C15 UNL     1      23.364   7.272  50.827  1.00  0.00     0.012 A 
HETATM   17  C19 UNL     1      24.029   5.218  49.755  1.00  0.00    -0.025 A 
HETATM   18  C16 UNL     1      23.478   7.914  49.599  1.00  0.00     0.001 A 
HETATM   19  C17 UNL     1      23.864   7.193  48.477  1.00  0.00     0.001 A 
HETATM   20  C18 UNL     1      24.145   5.843  48.533  1.00  0.00     0.012 A 
HETATM   21  C20 UNL     1      24.293   3.870  49.894  1.00  0.00     0.021 A 
ENDBRANCH  11  12
ENDBRANCH   8  11
BRANCH   1  22
HETATM   22  N1  UNL     1      26.369  -0.580  55.099  1.00  0.00    -0.197 N 
HETATM   23  H3  UNL     1      26.740  -1.391  55.664  1.00  0.00     0.183 HD
BRANCH  22  24
HETATM   24  C3  UNL     1      27.234   0.498  54.762  1.00  0.00     0.128 C 
HETATM   25  C2  UNL     1      28.346   0.734  54.083  1.00  0.00     0.064 C 
HETATM   26 BR1  UNL     1      28.823  -0.999  53.397  1.00  0.00    -0.046 Br
BRANCH  25  27
HETATM   27  C1  UNL     1      29.051   1.991  53.890  1.00  0.00     0.279 C 
HETATM   28  O1  UNL     1      29.586   2.360  54.979  1.00  0.00    -0.301 OA
ENDBRANCH  25  27
ENDBRANCH  22  24
ENDBRANCH   1  22
TORSDOF 5
ENDMDL
MODEL 4
REMARK VINA RESULT:      -8.5      3.222      4.641
REMARK  5 active torsions:
REMARK  status: ('A' for Active; 'I' for Inactive)
REMARK    1  A    between atoms: C1_2  and  C2_3 
REMARK    2  A    between atoms: C3_5  and  N1_6 
REMARK    3  A    between atoms: N1_6  and  C4_7 
REMARK    4  A    between atoms: N3_14  and  C10_15 
REMARK    5  A    between atoms: C10_15  and  C11_16 
ROOT
HETATM    1  C4  UNL     1      22.993   2.753  49.311  1.00  0.00     0.723 A 
HETATM    2  N2  UNL     1      22.038   2.172  48.695  1.00  0.00    -0.102 NA
HETATM    3  C5  UNL     1      21.134   1.114  49.040  1.00  0.00     0.197 A 
HETATM    4  C6  UNL     1      21.388   0.609  50.405  1.00  0.00     0.011 A 
HETATM    5  C7  UNL     1      22.137   0.735  51.487  1.00  0.00     0.010 A 
HETATM    6  C8  UNL     1      22.089   0.040  52.667  1.00  0.00     0.032 A 
HETATM    7  C9  UNL     1      23.121   0.625  53.411  1.00  0.00     0.094 A 
HETATM    8  N3  UNL     1      23.725   1.603  52.688  1.00  0.00    -0.336 N 
HETATM    9  C21 UNL     1      23.130   1.692  51.482  1.00  0.00     0.159 A 
HETATM   10  N4  UNL     1      23.529   2.555  50.610  1.00  0.00    -0.044 NA
ENDROOT
BRANCH   8  11
HETATM   11  C10 UNL     1      24.842   2.408  53.176  1.00  0.00     0.168 C 
BRANCH  11  12
HETATM   12  C11 UNL     1      26.065   1.608  53.284  1.00  0.00    -0.039 A 
HETATM   13  C12 UNL     1      27.288   2.102  53.684  1.00  0.00     0.010 A 
HETATM   14  C13 UNL     1      28.455   1.376  53.796  1.00  0.00     0.013 A 
HETATM   15  C14 UNL     1      28.329   0.025  53.459  1.00  0.00    -0.026 A 
HETATM   16  C15 UNL     1      29.491  -0.738  53.561  1.00  0.00     0.012 A 
HETATM   17  C19 UNL     1      27.142  -0.550  53.049  1.00  0.00    -0.025 A 
HETATM   18  C16 UNL     1      29.421  -2.089  53.239  1.00  0.00     0.001 A 
HETATM   19  C17 UNL     1      28.214  -2.639  52.829  1.00  0.00     0.001 A 
HETATM   20  C18 UNL     1      27.061  -1.887  52.727  1.00  0.00     0.012 A 
HETATM   21  C20 UNL     1      26.034   0.270  52.973  1.00  0.00     0.021 A 
ENDBRANCH  11  12
ENDBRANCH   8  11
BRANCH   1  22
HETATM   22  N1  UNL     1      23.647   3.793  48.561  1.00  0.00    -0.197 N 
HETATM   23  H3  UNL     1      23.929   3.585  47.565  1.00  0.00     0.183 HD
BRANCH  22  24
HETATM   24  C3  UNL     1      23.918   5.073  49.118  1.00  0.00     0.128 C 
HETATM   25  C2  UNL     1      24.939   5.801  49.541  1.00  0.00     0.064 C 
HETATM   26 BR1  UNL     1      26.454   4.650  49.255  1.00  0.00    -0.046 Br
BRANCH  25  27
HETATM   27  C1  UNL     1      24.938   7.147  50.092  1.00  0.00     0.279 C 
HETATM   28  O1  UNL     1      26.125   7.510  50.352  1.00  0.00    -0.301 OA
ENDBRANCH  25  27
ENDBRANCH  22  24
ENDBRANCH   1  22
TORSDOF 5
ENDMDL
MODEL 5
REMARK VINA RESULT:      -8.5      3.478      5.373
REMARK  5 active torsions:
REMARK  status: ('A' for Active; 'I' for Inactive)
REMARK    1  A    between atoms: C1_2  and  C2_3 
REMARK    2  A    between atoms: C3_5  and  N1_6 
REMARK    3  A    between atoms: N1_6  and  C4_7 
REMARK    4  A    between atoms: N3_14  and  C10_15 
REMARK    5  A    between atoms: C10_15  and  C11_16 
ROOT
HETATM    1  C4  UNL     1      24.050   3.956  50.077  1.00  0.00     0.723 A 
HETATM    2  N2  UNL     1      23.595   4.072  48.890  1.00  0.00    -0.102 NA
HETATM    3  C5  UNL     1      22.640   3.332  48.118  1.00  0.00     0.197 A 
HETATM    4  C6  UNL     1      22.082   2.201  48.886  1.00  0.00     0.011 A 
HETATM    5  C7  UNL     1      22.099   1.560  50.043  1.00  0.00     0.010 A 
HETATM    6  C8  UNL     1      21.392   0.456  50.440  1.00  0.00     0.032 A 
HETATM    7  C9  UNL     1      21.839   0.259  51.752  1.00  0.00     0.094 A 
HETATM    8  N3  UNL     1      22.755   1.205  52.084  1.00  0.00    -0.336 N 
HETATM    9  C21 UNL     1      22.936   2.030  51.033  1.00  0.00     0.159 A 
HETATM   10  N4  UNL     1      23.765   3.017  51.103  1.00  0.00    -0.044 NA
ENDROOT
BRANCH   8  11
HETATM   11  C10 UNL     1      23.418   1.281  53.382  1.00  0.00     0.168 C 
BRANCH  11  12
HETATM   12  C11 UNL     1      24.742   0.656  53.340  1.00  0.00    -0.039 A 
HETATM   13  C12 UNL     1      24.969  -0.672  53.048  1.00  0.00     0.010 A 
HETATM   14  C13 UNL     1      26.201  -1.290  53.000  1.00  0.00     0.013 A 
HETATM   15  C14 UNL     1      27.280  -0.447  53.282  1.00  0.00    -0.026 A 
HETATM   16  C15 UNL     1      28.541  -1.040  53.242  1.00  0.00     0.012 A 
HETATM   17  C19 UNL     1      27.141   0.894  53.584  1.00  0.00    -0.025 A 
HETATM   18  C16 UNL     1      29.650  -0.245  53.514  1.00  0.00     0.001 A 
HETATM   19  C17 UNL     1      29.479   1.099  53.815  1.00  0.00     0.001 A 
HETATM   20  C18 UNL     1      28.233   1.690  53.854  1.00  0.00     0.012 A 
HETATM   21  C20 UNL     1      25.861   1.409  53.603  1.00  0.00     0.021 A 
ENDBRANCH  11  12
ENDBRANCH   8  11
BRANCH   1  22
HETATM   22  N1  UNL     1      25.022   4.949  50.447  1.00  0.00    -0.197 N 
HETATM   23  H3  UNL     1      24.822   5.552  51.291  1.00  0.00     0.183 HD
BRANCH  22  24
HETATM   24  C3  UNL     1      26.229   5.138  49.718  1.00  0.00     0.128 C 
HETATM   25  C2  UNL     1      26.752   5.950  48.812  1.00  0.00     0.064 C 
HETATM   26 BR1  UNL     1      25.337   7.208  48.474  1.00  0.00    -0.046 Br
BRANCH  25  27
HETATM   27  C1  UNL     1      28.074   5.915  48.207  1.00  0.00     0.279 C 
HETATM   28  O1  UNL     1      28.644   4.814  48.473  1.00  0.00    -0.301 OA
ENDBRANCH  25  27
ENDBRANCH  22  24
ENDBRANCH   1  22
TORSDOF 5
ENDMDL
MODEL 6
REMARK VINA RESULT:      -8.2      2.981      5.691
REMARK  5 active torsions:
REMARK  status: ('A' for Active; 'I' for Inactive)
REMARK    1  A    between atoms: C1_2  and  C2_3 
REMARK    2  A    between atoms: C3_5  and  N1_6 
REMARK    3  A    between atoms: N1_6  and  C4_7 
REMARK    4  A    between atoms: N3_14  and  C10_15 
REMARK    5  A    between atoms: C10_15  and  C11_16 
ROOT
HETATM    1  C4  UNL     1      22.522   1.965  51.122  1.00  0.00     0.723 A 
HETATM    2  N2  UNL     1      21.869   0.943  50.722  1.00  0.00    -0.102 NA
HETATM    3  C5  UNL     1      21.245   0.589  49.481  1.00  0.00     0.197 A 
HETATM    4  C6  UNL     1      21.408   1.652  48.469  1.00  0.00     0.011 A 
HETATM    5  C7  UNL     1      21.916   2.849  48.224  1.00  0.00     0.010 A 
HETATM    6  C8  UNL     1      21.872   3.596  47.077  1.00  0.00     0.032 A 
HETATM    7  C9  UNL     1      22.577   4.752  47.435  1.00  0.00     0.094 A 
HETATM    8  N3  UNL     1      22.999   4.664  48.723  1.00  0.00    -0.336 N 
HETATM    9  C21 UNL     1      22.598   3.485  49.239  1.00  0.00     0.159 A 
HETATM   10  N4  UNL     1      22.881   3.167  50.457  1.00  0.00    -0.044 NA
ENDROOT
BRANCH   8  11
HETATM   11  C10 UNL     1      23.763   5.705  49.405  1.00  0.00     0.168 C 
BRANCH  11  12
HETATM   12  C11 UNL     1      25.188   5.619  49.078  1.00  0.00    -0.039 A 
HETATM   13  C12 UNL     1      25.974   4.507  49.297  1.00  0.00     0.010 A 
HETATM   14  C13 UNL     1      27.316   4.395  49.000  1.00  0.00     0.013 A 
HETATM   15  C14 UNL     1      27.878   5.540  48.430  1.00  0.00    -0.026 A 
HETATM   16  C15 UNL     1      29.234   5.461  48.118  1.00  0.00     0.012 A 
HETATM   17  C19 UNL     1      27.164   6.695  48.177  1.00  0.00    -0.025 A 
HETATM   18  C16 UNL     1      29.844   6.573  47.547  1.00  0.00     0.001 A 
HETATM   19  C17 UNL     1      29.100   7.720  47.305  1.00  0.00     0.001 A 
HETATM   20  C18 UNL     1      27.758   7.802  47.612  1.00  0.00     0.012 A 
HETATM   21  C20 UNL     1      25.825   6.698  48.514  1.00  0.00     0.021 A 
ENDBRANCH  11  12
ENDBRANCH   8  11
BRANCH   1  22
HETATM   22  N1  UNL     1      22.978   1.891  52.484  1.00  0.00    -0.197 N 
HETATM   23  H3  UNL     1      22.475   2.472  53.209  1.00  0.00     0.183 HD
BRANCH  22  24
HETATM   24  C3  UNL     1      24.070   1.068  52.875  1.00  0.00     0.128 C 
HETATM   25  C2  UNL     1      24.309  -0.078  53.493  1.00  0.00     0.064 C 
HETATM   26 BR1  UNL     1      22.550  -0.715  53.941  1.00  0.00    -0.046 Br
BRANCH  25  27
HETATM   27  C1  UNL     1      25.584  -0.719  53.773  1.00  0.00     0.279 C 
HETATM   28  O1  UNL     1      25.725  -0.873  55.024  1.00  0.00    -0.301 OA
ENDBRANCH  25  27
ENDBRANCH  22  24
ENDBRANCH   1  22
TORSDOF 5
ENDMDL
MODEL 7
REMARK VINA RESULT:      -8.2      2.937      4.525
REMARK  5 active torsions:
REMARK  status: ('A' for Active; 'I' for Inactive)
REMARK    1  A    between atoms: C1_2  and  C2_3 
REMARK    2  A    between atoms: C3_5  and  N1_6 
REMARK    3  A    between atoms: N1_6  and  C4_7 
REMARK    4  A    between atoms: N3_14  and  C10_15 
REMARK    5  A    between atoms: C10_15  and  C11_16 
ROOT
HETATM    1  C4  UNL     1      20.154   0.927  50.415  1.00  0.00     0.723 A 
HETATM    2  N2  UNL     1      19.099   0.443  50.946  1.00  0.00    -0.102 NA
HETATM    3  C5  UNL     1      18.819  -0.183  52.205  1.00  0.00     0.197 A 
HETATM    4  C6  UNL     1      20.031  -0.275  53.045  1.00  0.00     0.011 A 
HETATM    5  C7  UNL     1      21.324  -0.006  53.119  1.00  0.00     0.010 A 
HETATM    6  C8  UNL     1      22.209  -0.253  54.134  1.00  0.00     0.032 A 
HETATM    7  C9  UNL     1      23.410   0.255  53.625  1.00  0.00     0.094 A 
HETATM    8  N3  UNL     1      23.216   0.765  52.382  1.00  0.00    -0.336 N 
HETATM    9  C21 UNL     1      21.921   0.614  52.041  1.00  0.00     0.159 A 
HETATM   10  N4  UNL     1      21.486   1.023  50.897  1.00  0.00    -0.044 NA
ENDROOT
BRANCH   8  11
HETATM   11  C10 UNL     1      24.270   1.371  51.573  1.00  0.00     0.168 C 
BRANCH  11  12
HETATM   12  C11 UNL     1      25.591   1.136  52.160  1.00  0.00    -0.039 A 
HETATM   13  C12 UNL     1      26.388   2.117  52.710  1.00  0.00     0.010 A 
HETATM   14  C13 UNL     1      27.634   1.927  53.270  1.00  0.00     0.013 A 
HETATM   15  C14 UNL     1      28.080   0.603  53.249  1.00  0.00    -0.026 A 
HETATM   16  C15 UNL     1      29.337   0.376  53.807  1.00  0.00     0.012 A 
HETATM   17  C19 UNL     1      27.346  -0.440  52.717  1.00  0.00    -0.025 A 
HETATM   18  C16 UNL     1      29.829  -0.925  53.812  1.00  0.00     0.001 A 
HETATM   19  C17 UNL     1      29.069  -1.953  53.270  1.00  0.00     0.001 A 
HETATM   20  C18 UNL     1      27.824  -1.732  52.718  1.00  0.00     0.012 A 
HETATM   21  C20 UNL     1      26.110  -0.137  52.183  1.00  0.00     0.021 A 
ENDBRANCH  11  12
ENDBRANCH   8  11
BRANCH   1  22
HETATM   22  N1  UNL     1      19.968   1.471  49.097  1.00  0.00    -0.197 N 
HETATM   23  H3  UNL     1      19.627   0.825  48.335  1.00  0.00     0.183 HD
BRANCH  22  24
HETATM   24  C3  UNL     1      20.227   2.838  48.797  1.00  0.00     0.128 C 
HETATM   25  C2  UNL     1      21.132   3.591  48.191  1.00  0.00     0.064 C 
HETATM   26 BR1  UNL     1      22.433   2.314  47.576  1.00  0.00    -0.046 Br
BRANCH  25  27
HETATM   27  C1  UNL     1      21.155   5.035  48.021  1.00  0.00     0.279 C 
HETATM   28  O1  UNL     1      22.133   5.369  47.287  1.00  0.00    -0.301 OA
ENDBRANCH  25  27
ENDBRANCH  22  24
ENDBRANCH   1  22
TORSDOF 5
ENDMDL
MODEL 8
REMARK VINA RESULT:      -8.1      3.350      7.485
REMARK  5 active torsions:
REMARK  status: ('A' for Active; 'I' for Inactive)
REMARK    1  A    between atoms: C1_2  and  C2_3 
REMARK    2  A    between atoms: C3_5  and  N1_6 
REMARK    3  A    between atoms: N1_6  and  C4_7 
REMARK    4  A    between atoms: N3_14  and  C10_15 
REMARK    5  A    between atoms: C10_15  and  C11_16 
ROOT
HETATM    1  C4  UNL     1      24.520  -0.210  53.571  1.00  0.00     0.723 A 
HETATM    2  N2  UNL     1      23.865  -0.962  54.368  1.00  0.00    -0.102 NA
HETATM    3  C5  UNL     1      22.491  -1.022  54.770  1.00  0.00     0.197 A 
HETATM    4  C6  UNL     1      21.686   0.023  54.106  1.00  0.00     0.011 A 
HETATM    5  C7  UNL     1      21.711   1.036  53.256  1.00  0.00     0.010 A 
HETATM    6  C8  UNL     1      20.691   1.850  52.840  1.00  0.00     0.032 A 
HETATM    7  C9  UNL     1      21.334   2.719  51.950  1.00  0.00     0.094 A 
HETATM    8  N3  UNL     1      22.654   2.412  51.865  1.00  0.00    -0.336 N 
HETATM    9  C21 UNL     1      22.915   1.364  52.672  1.00  0.00     0.159 A 
HETATM   10  N4  UNL     1      24.109   0.884  52.765  1.00  0.00    -0.044 NA
ENDROOT
BRANCH   8  11
HETATM   11  C10 UNL     1      23.607   3.129  51.023  1.00  0.00     0.168 C 
BRANCH  11  12
HETATM   12  C11 UNL     1      23.117   3.246  49.647  1.00  0.00    -0.039 A 
HETATM   13  C12 UNL     1      22.644   2.192  48.894  1.00  0.00     0.010 A 
HETATM   14  C13 UNL     1      22.177   2.270  47.599  1.00  0.00     0.013 A 
HETATM   15  C14 UNL     1      22.209   3.555  47.051  1.00  0.00    -0.026 A 
HETATM   16  C15 UNL     1      21.743   3.670  45.742  1.00  0.00     0.012 A 
HETATM   17  C19 UNL     1      22.667   4.664  47.735  1.00  0.00    -0.025 A 
HETATM   18  C16 UNL     1      21.753   4.927  45.148  1.00  0.00     0.001 A 
HETATM   19  C17 UNL     1      22.219   6.024  45.860  1.00  0.00     0.001 A 
HETATM   20  C18 UNL     1      22.680   5.915  47.156  1.00  0.00     0.012 A 
HETATM   21  C20 UNL     1      23.112   4.472  49.027  1.00  0.00     0.021 A 
ENDBRANCH  11  12
ENDBRANCH   8  11
BRANCH   1  22
HETATM   22  N1  UNL     1      25.921  -0.519  53.468  1.00  0.00    -0.197 N 
HETATM   23  H3  UNL     1      26.195  -1.478  53.119  1.00  0.00     0.183 HD
BRANCH  22  24
HETATM   24  C3  UNL     1      26.933   0.418  53.818  1.00  0.00     0.128 C 
HETATM   25  C2  UNL     1      28.251   0.505  53.902  1.00  0.00     0.064 C 
HETATM   26 BR1  UNL     1      28.848  -1.239  53.352  1.00  0.00    -0.046 Br
BRANCH  25  27
HETATM   27  C1  UNL     1      29.069   1.637  54.308  1.00  0.00     0.279 C 
HETATM   28  O1  UNL     1      28.421   2.716  54.158  1.00  0.00    -0.301 OA
ENDBRANCH  25  27
ENDBRANCH  22  24
ENDBRANCH   1  22
TORSDOF 5
ENDMDL
MODEL 9
REMARK VINA RESULT:      -8.0      5.568      7.818
REMARK  5 active torsions:
REMARK  status: ('A' for Active; 'I' for Inactive)
REMARK    1  A    between atoms: C1_2  and  C2_3 
REMARK    2  A    between atoms: C3_5  and  N1_6 
REMARK    3  A    between atoms: N1_6  and  C4_7 
REMARK    4  A    between atoms: N3_14  and  C10_15 
REMARK    5  A    between atoms: C10_15  and  C11_16 
ROOT
HETATM    1  C4  UNL     1      27.669   7.082  48.517  1.00  0.00     0.723 A 
HETATM    2  N2  UNL     1      27.930   8.264  48.920  1.00  0.00    -0.102 NA
HETATM    3  C5  UNL     1      27.295   9.160  49.842  1.00  0.00     0.197 A 
HETATM    4  C6  UNL     1      26.082   8.558  50.433  1.00  0.00     0.011 A 
HETATM    5  C7  UNL     1      25.307   7.487  50.466  1.00  0.00     0.010 A 
HETATM    6  C8  UNL     1      24.167   7.258  51.190  1.00  0.00     0.032 A 
HETATM    7  C9  UNL     1      23.810   5.962  50.800  1.00  0.00     0.094 A 
HETATM    8  N3  UNL     1      24.703   5.479  49.898  1.00  0.00    -0.336 N 
HETATM    9  C21 UNL     1      25.648   6.414  49.671  1.00  0.00     0.159 A 
HETATM   10  N4  UNL     1      26.614   6.190  48.846  1.00  0.00    -0.044 NA
ENDROOT
BRANCH   8  11
HETATM   11  C10 UNL     1      24.618   4.154  49.291  1.00  0.00     0.168 C 
BRANCH  11  12
HETATM   12  C11 UNL     1      25.020   3.111  50.236  1.00  0.00    -0.039 A 
HETATM   13  C12 UNL     1      26.327   2.772  50.518  1.00  0.00     0.010 A 
HETATM   14  C13 UNL     1      26.736   1.796  51.402  1.00  0.00     0.013 A 
HETATM   15  C14 UNL     1      25.692   1.121  52.040  1.00  0.00    -0.026 A 
HETATM   16  C15 UNL     1      26.072   0.127  52.941  1.00  0.00     0.012 A 
HETATM   17  C19 UNL     1      24.357   1.396  51.816  1.00  0.00    -0.025 A 
HETATM   18  C16 UNL     1      25.072  -0.576  53.604  1.00  0.00     0.001 A 
HETATM   19  C17 UNL     1      23.738  -0.278  53.358  1.00  0.00     0.001 A 
HETATM   20  C18 UNL     1      23.359   0.706  52.468  1.00  0.00     0.012 A 
HETATM   21  C20 UNL     1      24.060   2.395  50.910  1.00  0.00     0.021 A 
ENDBRANCH  11  12
ENDBRANCH   8  11
BRANCH   1  22
HETATM   22  N1  UNL     1      28.604   6.554  47.560  1.00  0.00    -0.197 N 
HETATM   23  H3  UNL     1      28.317   6.529  46.544  1.00  0.00     0.183 HD
BRANCH  22  24
HETATM   24  C3  UNL     1      29.888   6.072  47.940  1.00  0.00     0.128 C 
HETATM   25  C2  UNL     1      31.161   6.432  47.898  1.00  0.00     0.064 C 
HETATM   26 BR1  UNL     1      31.109   8.150  47.034  1.00  0.00    -0.046 Br
BRANCH  25  27
HETATM   27  C1  UNL     1      32.331   5.716  48.382  1.00  0.00     0.279 C 
HETATM   28  O1  UNL     1      31.999   4.556  48.770  1.00  0.00    -0.301 OA
ENDBRANCH  25  27
ENDBRANCH  22  24
ENDBRANCH   1  22
TORSDOF 5
ENDMDL
