MODEL 1
REMARK VINA RESULT:      -7.1      0.000      0.000
REMARK  7 active torsions:
REMARK  status: ('A' for Active; 'I' for Inactive)
REMARK    1  A    between atoms: C1_2  and  C2_3 
REMARK    2  A    between atoms: C3_4  and  C4_5 
REMARK    3  A    between atoms: C4_5  and  O1_6 
REMARK    4  A    between atoms: O1_6  and  C5_7 
REMARK    5  A    between atoms: C7_9  and  N1_10 
REMARK    6  A    between atoms: N1_10  and  C8_11 
REMARK    7  A    between atoms: C8_11  and  C9_12 
ROOT
HETATM    1  C5  UNL     1      26.817  -0.006  53.473  1.00  0.00     0.169 A 
HETATM    2  C6  UNL     1      26.345   1.041  52.674  1.00  0.00     0.108 A 
HETATM    3  C7  UNL     1      27.160   2.104  52.340  1.00  0.00     0.129 A 
HETATM    4  N2  UNL     1      28.426   2.107  52.803  1.00  0.00    -0.225 NA
HETATM    5  C15 UNL     1      28.903   1.111  53.571  1.00  0.00     0.238 A 
HETATM    6  N3  UNL     1      28.082   0.091  53.879  1.00  0.00    -0.218 NA
ENDROOT
BRANCH   3   7
HETATM    7  N1  UNL     1      26.671   3.169  51.524  1.00  0.00    -0.370 N 
HETATM    8  H8  UNL     1      26.469   4.087  51.978  1.00  0.00     0.161 HD
BRANCH   7   9
HETATM    9  C8  UNL     1      26.482   2.912  50.110  1.00  0.00     0.160 C 
BRANCH   9  10
HETATM   10  C9  UNL     1      26.398   4.251  49.442  1.00  0.00    -0.041 A 
HETATM   11  C10 UNL     1      27.599   4.692  48.915  1.00  0.00     0.009 A 
HETATM   12  C11 UNL     1      27.610   5.918  48.282  1.00  0.00     0.001 A 
HETATM   13  C12 UNL     1      26.476   6.677  48.177  1.00  0.00     0.000 A 
HETATM   14  C13 UNL     1      25.265   6.235  48.708  1.00  0.00     0.001 A 
HETATM   15  C14 UNL     1      25.250   5.009  49.341  1.00  0.00     0.009 A 
ENDBRANCH   9  10
ENDBRANCH   7   9
ENDBRANCH   3   7
BRANCH   1  16
HETATM   16  O1  UNL     1      25.991  -1.092  53.817  1.00  0.00    -0.331 OA
BRANCH  16  17
HETATM   17  C4  UNL     1      25.101  -0.898  54.910  1.00  0.00     0.204 C 
BRANCH  17  18
HETATM   18  C3  UNL     1      23.717  -0.823  54.404  1.00  0.00    -0.002 C 
HETATM   19  C2  UNL     1      22.503  -0.946  54.975  1.00  0.00     0.002 C 
BRANCH  19  20
HETATM   20  C1  UNL     1      21.150  -0.850  54.358  1.00  0.00     0.249 C 
HETATM   21  F1  UNL     1      20.512   0.288  54.854  1.00  0.00    -0.251 F 
ENDBRANCH  19  20
ENDBRANCH  17  18
ENDBRANCH  16  17
ENDBRANCH   1  16
TORSDOF 7
ENDMDL
MODEL 2
REMARK VINA RESULT:      -7.1      2.921      6.846
REMARK  7 active torsions:
REMARK  status: ('A' for Active; 'I' for Inactive)
REMARK    1  A    between atoms: C1_2  and  C2_3 
REMARK    2  A    between atoms: C3_4  and  C4_5 
REMARK    3  A    between atoms: C4_5  and  O1_6 
REMARK    4  A    between atoms: O1_6  and  C5_7 
REMARK    5  A    between atoms: C7_9  and  N1_10 
REMARK    6  A    between atoms: N1_10  and  C8_11 
REMARK    7  A    between atoms: C8_11  and  C9_12 
ROOT
HETATM    1  C5  UNL     1      27.760   1.713  52.922  1.00  0.00     0.169 A 
HETATM    2  C6  UNL     1      26.630   0.960  53.260  1.00  0.00     0.108 A 
HETATM    3  C7  UNL     1      26.665   0.051  54.298  1.00  0.00     0.129 A 
HETATM    4  N2  UNL     1      27.819  -0.092  54.982  1.00  0.00    -0.225 NA
HETATM    5  C15 UNL     1      28.918   0.621  54.676  1.00  0.00     0.238 A 
HETATM    6  N3  UNL     1      28.850   1.497  53.658  1.00  0.00    -0.218 NA
ENDROOT
BRANCH   3   7
HETATM    7  N1  UNL     1      25.508  -0.713  54.638  1.00  0.00    -0.370 N 
HETATM    8  H8  UNL     1      25.295  -0.867  55.648  1.00  0.00     0.161 HD
BRANCH   7   9
HETATM    9  C8  UNL     1      24.694  -1.233  53.557  1.00  0.00     0.160 C 
BRANCH   9  10
HETATM   10  C9  UNL     1      23.354  -0.571  53.677  1.00  0.00    -0.041 A 
HETATM   11  C10 UNL     1      22.555  -1.098  54.675  1.00  0.00     0.009 A 
HETATM   12  C11 UNL     1      21.304  -0.545  54.853  1.00  0.00     0.001 A 
HETATM   13  C12 UNL     1      20.862   0.489  54.072  1.00  0.00     0.000 A 
HETATM   14  C13 UNL     1      21.667   1.021  53.065  1.00  0.00     0.001 A 
HETATM   15  C14 UNL     1      22.919   0.470  52.884  1.00  0.00     0.009 A 
ENDBRANCH   9  10
ENDBRANCH   7   9
ENDBRANCH   3   7
BRANCH   1  16
HETATM   16  O1  UNL     1      27.731   2.640  51.864  1.00  0.00    -0.331 OA
BRANCH  16  17
HETATM   17  C4  UNL     1      26.593   2.602  51.011  1.00  0.00     0.204 C 
BRANCH  17  18
HETATM   18  C3  UNL     1      26.613   3.778  50.120  1.00  0.00    -0.002 C 
HETATM   19  C2  UNL     1      25.668   4.626  49.667  1.00  0.00     0.002 C 
BRANCH  19  20
HETATM   20  C1  UNL     1      25.803   5.798  48.756  1.00  0.00     0.249 C 
HETATM   21  F1  UNL     1      27.059   5.751  48.150  1.00  0.00    -0.251 F 
ENDBRANCH  19  20
ENDBRANCH  17  18
ENDBRANCH  16  17
ENDBRANCH   1  16
TORSDOF 7
ENDMDL
MODEL 3
REMARK VINA RESULT:      -7.1      3.113      6.389
REMARK  7 active torsions:
REMARK  status: ('A' for Active; 'I' for Inactive)
REMARK    1  A    between atoms: C1_2  and  C2_3 
REMARK    2  A    between atoms: C3_4  and  C4_5 
REMARK    3  A    between atoms: C4_5  and  O1_6 
REMARK    4  A    between atoms: O1_6  and  C5_7 
REMARK    5  A    between atoms: C7_9  and  N1_10 
REMARK    6  A    between atoms: N1_10  and  C8_11 
REMARK    7  A    between atoms: C8_11  and  C9_12 
ROOT
HETATM    1  C5  UNL     1      27.161   2.174  53.303  1.00  0.00     0.169 A 
HETATM    2  C6  UNL     1      25.783   2.237  53.540  1.00  0.00     0.108 A 
HETATM    3  C7  UNL     1      24.901   2.559  52.529  1.00  0.00     0.129 A 
HETATM    4  N2  UNL     1      25.402   2.810  51.302  1.00  0.00    -0.225 NA
HETATM    5  C15 UNL     1      26.722   2.754  51.049  1.00  0.00     0.238 A 
HETATM    6  N3  UNL     1      27.554   2.438  52.058  1.00  0.00    -0.218 NA
ENDROOT
BRANCH   3   7
HETATM    7  N1  UNL     1      23.497   2.621  52.778  1.00  0.00    -0.370 N 
HETATM    8  H8  UNL     1      23.157   3.248  53.541  1.00  0.00     0.161 HD
BRANCH   7   9
HETATM    9  C8  UNL     1      22.622   1.808  51.957  1.00  0.00     0.160 C 
BRANCH   9  10
HETATM   10  C9  UNL     1      22.050   0.755  52.859  1.00  0.00    -0.041 A 
HETATM   11  C10 UNL     1      22.898  -0.316  53.080  1.00  0.00     0.009 A 
HETATM   12  C11 UNL     1      22.448  -1.330  53.900  1.00  0.00     0.001 A 
HETATM   13  C12 UNL     1      21.208  -1.285  54.476  1.00  0.00     0.000 A 
HETATM   14  C13 UNL     1      20.352  -0.207  54.253  1.00  0.00     0.001 A 
HETATM   15  C14 UNL     1      20.799   0.810  53.434  1.00  0.00     0.009 A 
ENDBRANCH   9  10
ENDBRANCH   7   9
ENDBRANCH   3   7
BRANCH   1  16
HETATM   16  O1  UNL     1      28.065   1.847  54.330  1.00  0.00    -0.331 OA
BRANCH  16  17
HETATM   17  C4  UNL     1      29.203   1.077  53.961  1.00  0.00     0.204 C 
BRANCH  17  18
HETATM   18  C3  UNL     1      28.769  -0.279  53.574  1.00  0.00    -0.002 C 
HETATM   19  C2  UNL     1      29.385  -1.476  53.507  1.00  0.00     0.002 C 
BRANCH  19  20
HETATM   20  C1  UNL     1      28.841  -2.802  53.096  1.00  0.00     0.249 C 
HETATM   21  F1  UNL     1      27.510  -2.638  52.708  1.00  0.00    -0.251 F 
ENDBRANCH  19  20
ENDBRANCH  17  18
ENDBRANCH  16  17
ENDBRANCH   1  16
TORSDOF 7
ENDMDL
MODEL 4
REMARK VINA RESULT:      -7.1      2.549      6.054
REMARK  7 active torsions:
REMARK  status: ('A' for Active; 'I' for Inactive)
REMARK    1  A    between atoms: C1_2  and  C2_3 
REMARK    2  A    between atoms: C3_4  and  C4_5 
REMARK    3  A    between atoms: C4_5  and  O1_6 
REMARK    4  A    between atoms: O1_6  and  C5_7 
REMARK    5  A    between atoms: C7_9  and  N1_10 
REMARK    6  A    between atoms: N1_10  and  C8_11 
REMARK    7  A    between atoms: C8_11  and  C9_12 
ROOT
HETATM    1  C5  UNL     1      27.693   2.096  52.627  1.00  0.00     0.169 A 
HETATM    2  C6  UNL     1      26.720   1.231  53.140  1.00  0.00     0.108 A 
HETATM    3  C7  UNL     1      26.954   0.498  54.285  1.00  0.00     0.129 A 
HETATM    4  N2  UNL     1      28.146   0.636  54.899  1.00  0.00    -0.225 NA
HETATM    5  C15 UNL     1      29.096   1.462  54.425  1.00  0.00     0.238 A 
HETATM    6  N3  UNL     1      28.836   2.162  53.307  1.00  0.00    -0.218 NA
ENDROOT
BRANCH   3   7
HETATM    7  N1  UNL     1      25.956  -0.383  54.803  1.00  0.00    -0.370 N 
HETATM    8  H8  UNL     1      25.828  -0.431  55.838  1.00  0.00     0.161 HD
BRANCH   7   9
HETATM    9  C8  UNL     1      25.178  -1.161  53.860  1.00  0.00     0.160 C 
BRANCH   9  10
HETATM   10  C9  UNL     1      23.761  -0.687  53.984  1.00  0.00    -0.041 A 
HETATM   11  C10 UNL     1      23.400   0.256  53.037  1.00  0.00     0.009 A 
HETATM   12  C11 UNL     1      22.111   0.745  53.080  1.00  0.00     0.001 A 
HETATM   13  C12 UNL     1      21.216   0.319  54.024  1.00  0.00     0.000 A 
HETATM   14  C13 UNL     1      21.579  -0.630  54.979  1.00  0.00     0.001 A 
HETATM   15  C14 UNL     1      22.867  -1.122  54.939  1.00  0.00     0.009 A 
ENDBRANCH   9  10
ENDBRANCH   7   9
ENDBRANCH   3   7
BRANCH   1  16
HETATM   16  O1  UNL     1      27.461   2.847  51.459  1.00  0.00    -0.331 OA
BRANCH  16  17
HETATM   17  C4  UNL     1      26.297   2.520  50.708  1.00  0.00     0.204 C 
BRANCH  17  18
HETATM   18  C3  UNL     1      25.272   3.559  50.921  1.00  0.00    -0.002 C 
HETATM   19  C2  UNL     1      24.109   3.603  51.601  1.00  0.00     0.002 C 
BRANCH  19  20
HETATM   20  C1  UNL     1      23.138   4.724  51.749  1.00  0.00     0.249 C 
HETATM   21  F1  UNL     1      22.086   4.299  52.562  1.00  0.00    -0.251 F 
ENDBRANCH  19  20
ENDBRANCH  17  18
ENDBRANCH  16  17
ENDBRANCH   1  16
TORSDOF 7
ENDMDL
MODEL 5
REMARK VINA RESULT:      -7.0      2.449      6.159
REMARK  7 active torsions:
REMARK  status: ('A' for Active; 'I' for Inactive)
REMARK    1  A    between atoms: C1_2  and  C2_3 
REMARK    2  A    between atoms: C3_4  and  C4_5 
REMARK    3  A    between atoms: C4_5  and  O1_6 
REMARK    4  A    between atoms: O1_6  and  C5_7 
REMARK    5  A    between atoms: C7_9  and  N1_10 
REMARK    6  A    between atoms: N1_10  and  C8_11 
REMARK    7  A    between atoms: C8_11  and  C9_12 
ROOT
HETATM    1  C5  UNL     1      27.228   2.267  51.916  1.00  0.00     0.169 A 
HETATM    2  C6  UNL     1      26.324   1.382  52.515  1.00  0.00     0.108 A 
HETATM    3  C7  UNL     1      26.572   0.849  53.763  1.00  0.00     0.129 A 
HETATM    4  N2  UNL     1      27.710   1.204  54.394  1.00  0.00    -0.225 NA
HETATM    5  C15 UNL     1      28.594   2.052  53.839  1.00  0.00     0.238 A 
HETATM    6  N3  UNL     1      28.322   2.553  52.620  1.00  0.00    -0.218 NA
ENDROOT
BRANCH   3   7
HETATM    7  N1  UNL     1      25.645  -0.052  54.369  1.00  0.00    -0.370 N 
HETATM    8  H8  UNL     1      25.590  -0.079  55.411  1.00  0.00     0.161 HD
BRANCH   7   9
HETATM    9  C8  UNL     1      24.834  -0.881  53.499  1.00  0.00     0.160 C 
BRANCH   9  10
HETATM   10  C9  UNL     1      23.423  -0.394  53.643  1.00  0.00    -0.041 A 
HETATM   11  C10 UNL     1      22.714  -1.018  54.654  1.00  0.00     0.009 A 
HETATM   12  C11 UNL     1      21.406  -0.628  54.854  1.00  0.00     0.001 A 
HETATM   13  C12 UNL     1      20.824   0.341  54.083  1.00  0.00     0.000 A 
HETATM   14  C13 UNL     1      21.536   0.971  53.063  1.00  0.00     0.001 A 
HETATM   15  C14 UNL     1      22.845   0.584  52.860  1.00  0.00     0.009 A 
ENDBRANCH   9  10
ENDBRANCH   7   9
ENDBRANCH   3   7
BRANCH   1  16
HETATM   16  O1  UNL     1      26.981   2.813  50.643  1.00  0.00    -0.331 OA
BRANCH  16  17
HETATM   17  C4  UNL     1      25.896   3.728  50.538  1.00  0.00     0.204 C 
BRANCH  17  18
HETATM   18  C3  UNL     1      24.776   3.077  49.832  1.00  0.00    -0.002 C 
HETATM   19  C2  UNL     1      23.435   3.156  49.930  1.00  0.00     0.002 C 
BRANCH  19  20
HETATM   20  C1  UNL     1      22.382   2.441  49.153  1.00  0.00     0.249 C 
HETATM   21  F1  UNL     1      22.303   1.126  49.613  1.00  0.00    -0.251 F 
ENDBRANCH  19  20
ENDBRANCH  17  18
ENDBRANCH  16  17
ENDBRANCH   1  16
TORSDOF 7
ENDMDL
MODEL 6
REMARK VINA RESULT:      -6.9      3.148      5.372
REMARK  7 active torsions:
REMARK  status: ('A' for Active; 'I' for Inactive)
REMARK    1  A    between atoms: C1_2  and  C2_3 
REMARK    2  A    between atoms: C3_4  and  C4_5 
REMARK    3  A    between atoms: C4_5  and  O1_6 
REMARK    4  A    between atoms: O1_6  and  C5_7 
REMARK    5  A    between atoms: C7_9  and  N1_10 
REMARK    6  A    between atoms: N1_10  and  C8_11 
REMARK    7  A    between atoms: C8_11  and  C9_12 
ROOT
HETATM    1  C5  UNL     1      21.933   2.033  52.281  1.00  0.00     0.169 A 
HETATM    2  C6  UNL     1      23.332   2.033  52.292  1.00  0.00     0.108 A 
HETATM    3  C7  UNL     1      24.043   3.215  52.278  1.00  0.00     0.129 A 
HETATM    4  N2  UNL     1      23.354   4.374  52.254  1.00  0.00    -0.225 NA
HETATM    5  C15 UNL     1      22.009   4.399  52.244  1.00  0.00     0.238 A 
HETATM    6  N3  UNL     1      21.347   3.229  52.258  1.00  0.00    -0.218 NA
ENDROOT
BRANCH   3   7
HETATM    7  N1  UNL     1      25.471   3.208  52.289  1.00  0.00    -0.370 N 
HETATM    8  H8  UNL     1      25.963   3.805  52.990  1.00  0.00     0.161 HD
BRANCH   7   9
HETATM    9  C8  UNL     1      26.156   2.370  51.325  1.00  0.00     0.160 C 
BRANCH   9  10
HETATM   10  C9  UNL     1      26.848   1.297  52.110  1.00  0.00    -0.041 A 
HETATM   11  C10 UNL     1      27.861   1.764  52.929  1.00  0.00     0.009 A 
HETATM   12  C11 UNL     1      28.550   0.840  53.687  1.00  0.00     0.001 A 
HETATM   13  C12 UNL     1      28.248  -0.494  53.635  1.00  0.00     0.000 A 
HETATM   14  C13 UNL     1      27.229  -0.967  52.809  1.00  0.00     0.001 A 
HETATM   15  C14 UNL     1      26.537  -0.045  52.050  1.00  0.00     0.009 A 
ENDBRANCH   9  10
ENDBRANCH   7   9
ENDBRANCH   3   7
BRANCH   1  16
HETATM   16  O1  UNL     1      21.202   0.830  52.296  1.00  0.00    -0.331 OA
BRANCH  16  17
HETATM   17  C4  UNL     1      20.494   0.525  53.491  1.00  0.00     0.204 C 
BRANCH  17  18
HETATM   18  C3  UNL     1      21.432  -0.029  54.486  1.00  0.00    -0.002 C 
HETATM   19  C2  UNL     1      22.397  -0.969  54.441  1.00  0.00     0.002 C 
BRANCH  19  20
HETATM   20  C1  UNL     1      23.297  -1.457  55.524  1.00  0.00     0.249 C 
HETATM   21  F1  UNL     1      24.610  -1.107  55.206  1.00  0.00    -0.251 F 
ENDBRANCH  19  20
ENDBRANCH  17  18
ENDBRANCH  16  17
ENDBRANCH   1  16
TORSDOF 7
ENDMDL
MODEL 7
REMARK VINA RESULT:      -6.9      3.195      4.307
REMARK  7 active torsions:
REMARK  status: ('A' for Active; 'I' for Inactive)
REMARK    1  A    between atoms: C1_2  and  C2_3 
REMARK    2  A    between atoms: C3_4  and  C4_5 
REMARK    3  A    between atoms: C4_5  and  O1_6 
REMARK    4  A    between atoms: O1_6  and  C5_7 
REMARK    5  A    between atoms: C7_9  and  N1_10 
REMARK    6  A    between atoms: N1_10  and  C8_11 
REMARK    7  A    between atoms: C8_11  and  C9_12 
ROOT
HETATM    1  C5  UNL     1      24.728   1.148  53.143  1.00  0.00     0.169 A 
HETATM    2  C6  UNL     1      25.287   2.201  52.411  1.00  0.00     0.108 A 
HETATM    3  C7  UNL     1      24.487   3.120  51.763  1.00  0.00     0.129 A 
HETATM    4  N2  UNL     1      23.149   2.978  51.855  1.00  0.00    -0.225 NA
HETATM    5  C15 UNL     1      22.589   1.975  52.554  1.00  0.00     0.238 A 
HETATM    6  N3  UNL     1      23.397   1.096  53.173  1.00  0.00    -0.218 NA
ENDROOT
BRANCH   3   7
HETATM    7  N1  UNL     1      25.064   4.193  51.018  1.00  0.00    -0.370 N 
HETATM    8  H8  UNL     1      25.527   4.967  51.543  1.00  0.00     0.161 HD
BRANCH   7   9
HETATM    9  C8  UNL     1      24.972   4.145  49.572  1.00  0.00     0.160 C 
BRANCH   9  10
HETATM   10  C9  UNL     1      26.053   5.042  49.048  1.00  0.00    -0.041 A 
HETATM   11  C10 UNL     1      27.286   4.426  48.929  1.00  0.00     0.009 A 
HETATM   12  C11 UNL     1      28.336   5.182  48.452  1.00  0.00     0.001 A 
HETATM   13  C12 UNL     1      28.172   6.497  48.108  1.00  0.00     0.000 A 
HETATM   14  C13 UNL     1      26.930   7.119  48.228  1.00  0.00     0.001 A 
HETATM   15  C14 UNL     1      25.876   6.366  48.704  1.00  0.00     0.009 A 
ENDBRANCH   9  10
ENDBRANCH   7   9
ENDBRANCH   3   7
BRANCH   1  16
HETATM   16  O1  UNL     1      25.539   0.207  53.805  1.00  0.00    -0.331 OA
BRANCH  16  17
HETATM   17  C4  UNL     1      26.013  -0.887  53.030  1.00  0.00     0.204 C 
BRANCH  17  18
HETATM   18  C3  UNL     1      27.485  -0.828  52.951  1.00  0.00    -0.002 C 
HETATM   19  C2  UNL     1      28.443  -0.274  53.721  1.00  0.00     0.002 C 
BRANCH  19  20
HETATM   20  C1  UNL     1      29.923  -0.276  53.543  1.00  0.00     0.249 C 
HETATM   21  F1  UNL     1      30.426  -1.498  53.993  1.00  0.00    -0.251 F 
ENDBRANCH  19  20
ENDBRANCH  17  18
ENDBRANCH  16  17
ENDBRANCH   1  16
TORSDOF 7
ENDMDL
MODEL 8
REMARK VINA RESULT:      -6.8      2.412      5.489
REMARK  7 active torsions:
REMARK  status: ('A' for Active; 'I' for Inactive)
REMARK    1  A    between atoms: C1_2  and  C2_3 
REMARK    2  A    between atoms: C3_4  and  C4_5 
REMARK    3  A    between atoms: C4_5  and  O1_6 
REMARK    4  A    between atoms: O1_6  and  C5_7 
REMARK    5  A    between atoms: C7_9  and  N1_10 
REMARK    6  A    between atoms: N1_10  and  C8_11 
REMARK    7  A    between atoms: C8_11  and  C9_12 
ROOT
HETATM    1  C5  UNL     1      23.522   2.059  50.810  1.00  0.00     0.169 A 
HETATM    2  C6  UNL     1      24.629   1.988  51.664  1.00  0.00     0.108 A 
HETATM    3  C7  UNL     1      25.778   2.707  51.400  1.00  0.00     0.129 A 
HETATM    4  N2  UNL     1      25.806   3.481  50.296  1.00  0.00    -0.225 NA
HETATM    5  C15 UNL     1      24.755   3.565  49.461  1.00  0.00     0.238 A 
HETATM    6  N3  UNL     1      23.651   2.851  49.747  1.00  0.00    -0.218 NA
ENDROOT
BRANCH   3   7
HETATM    7  N1  UNL     1      26.902   2.630  52.276  1.00  0.00    -0.370 N 
HETATM    8  H8  UNL     1      27.786   3.106  51.988  1.00  0.00     0.161 HD
BRANCH   7   9
HETATM    9  C8  UNL     1      26.752   1.894  53.515  1.00  0.00     0.160 C 
BRANCH   9  10
HETATM   10  C9  UNL     1      27.706   0.740  53.443  1.00  0.00    -0.041 A 
HETATM   11  C10 UNL     1      27.105  -0.467  53.136  1.00  0.00     0.009 A 
HETATM   12  C11 UNL     1      27.913  -1.582  53.050  1.00  0.00     0.001 A 
HETATM   13  C12 UNL     1      29.263  -1.503  53.260  1.00  0.00     0.000 A 
HETATM   14  C13 UNL     1      29.871  -0.286  53.570  1.00  0.00     0.001 A 
HETATM   15  C14 UNL     1      29.065   0.831  53.657  1.00  0.00     0.009 A 
ENDBRANCH   9  10
ENDBRANCH   7   9
ENDBRANCH   3   7
BRANCH   1  16
HETATM   16  O1  UNL     1      22.349   1.329  51.073  1.00  0.00    -0.331 OA
BRANCH  16  17
HETATM   17  C4  UNL     1      21.698   1.588  52.312  1.00  0.00     0.204 C 
BRANCH  17  18
HETATM   18  C3  UNL     1      21.639   0.343  53.101  1.00  0.00    -0.002 C 
HETATM   19  C2  UNL     1      22.368  -0.157  54.118  1.00  0.00     0.002 C 
BRANCH  19  20
HETATM   20  C1  UNL     1      22.216  -1.447  54.851  1.00  0.00     0.249 C 
HETATM   21  F1  UNL     1      20.942  -1.957  54.598  1.00  0.00    -0.251 F 
ENDBRANCH  19  20
ENDBRANCH  17  18
ENDBRANCH  16  17
ENDBRANCH   1  16
TORSDOF 7
ENDMDL
MODEL 9
REMARK VINA RESULT:      -6.8      1.614      2.101
REMARK  7 active torsions:
REMARK  status: ('A' for Active; 'I' for Inactive)
REMARK    1  A    between atoms: C1_2  and  C2_3 
REMARK    2  A    between atoms: C3_4  and  C4_5 
REMARK    3  A    between atoms: C4_5  and  O1_6 
REMARK    4  A    between atoms: O1_6  and  C5_7 
REMARK    5  A    between atoms: C7_9  and  N1_10 
REMARK    6  A    between atoms: N1_10  and  C8_11 
REMARK    7  A    between atoms: C8_11  and  C9_12 
ROOT
HETATM    1  C5  UNL     1      24.545  -0.307  53.761  1.00  0.00     0.169 A 
HETATM    2  C6  UNL     1      24.760   0.791  52.921  1.00  0.00     0.108 A 
HETATM    3  C7  UNL     1      25.898   1.564  53.037  1.00  0.00     0.129 A 
HETATM    4  N2  UNL     1      26.801   1.232  53.982  1.00  0.00    -0.225 NA
HETATM    5  C15 UNL     1      26.617   0.180  54.800  1.00  0.00     0.238 A 
HETATM    6  N3  UNL     1      25.497  -0.551  54.662  1.00  0.00    -0.218 NA
ENDROOT
BRANCH   3   7
HETATM    7  N1  UNL     1      26.110   2.683  52.176  1.00  0.00    -0.370 N 
HETATM    8  H8  UNL     1      27.033   3.170  52.216  1.00  0.00     0.161 HD
BRANCH   7   9
HETATM    9  C8  UNL     1      25.029   3.079  51.295  1.00  0.00     0.160 C 
BRANCH   9  10
HETATM   10  C9  UNL     1      25.596   4.108  50.364  1.00  0.00    -0.041 A 
HETATM   11  C10 UNL     1      26.736   3.696  49.696  1.00  0.00     0.009 A 
HETATM   12  C11 UNL     1      27.321   4.585  48.819  1.00  0.00     0.001 A 
HETATM   13  C12 UNL     1      26.799   5.832  48.611  1.00  0.00     0.000 A 
HETATM   14  C13 UNL     1      25.651   6.250  49.284  1.00  0.00     0.001 A 
HETATM   15  C14 UNL     1      25.062   5.363  50.162  1.00  0.00     0.009 A 
ENDBRANCH   9  10
ENDBRANCH   7   9
ENDBRANCH   3   7
BRANCH   1  16
HETATM   16  O1  UNL     1      23.387  -1.098  53.649  1.00  0.00    -0.331 OA
BRANCH  16  17
HETATM   17  C4  UNL     1      22.543  -1.164  54.793  1.00  0.00     0.204 C 
BRANCH  17  18
HETATM   18  C3  UNL     1      21.151  -1.389  54.359  1.00  0.00    -0.002 C 
HETATM   19  C2  UNL     1      20.251  -0.651  53.680  1.00  0.00     0.002 C 
BRANCH  19  20
HETATM   20  C1  UNL     1      18.850  -0.984  53.293  1.00  0.00     0.249 C 
HETATM   21  F1  UNL     1      18.522  -2.229  53.829  1.00  0.00    -0.251 F 
ENDBRANCH  19  20
ENDBRANCH  17  18
ENDBRANCH  16  17
ENDBRANCH   1  16
TORSDOF 7
ENDMDL
