MODEL 1
REMARK VINA RESULT:      -7.0      0.000      0.000
REMARK  4 active torsions:
REMARK  status: ('A' for Active; 'I' for Inactive)
REMARK    1  A    between atoms: O1_2  and  C2_3 
REMARK    2  A    between atoms: C7_10  and  N3_11 
REMARK    3  A    between atoms: N3_11  and  C8_12 
REMARK    4  A    between atoms: C9_13  and  C10_14 
ROOT
HETATM    1  C2  UNL     1      27.288  -0.336  53.449  1.00  0.00     0.067 C 
HETATM    2  C3  UNL     1      27.085   0.281  52.295  1.00  0.00     0.013 C 
HETATM    3  C4  UNL     1      25.711   0.604  51.754  1.00  0.00     0.073 C 
HETATM    4  C5  UNL     1      24.763   0.696  52.887  1.00  0.00     0.112 C 
HETATM    5  N1  UNL     1      25.294   2.113  53.390  1.00  0.00    -0.365 N 
HETATM    6  C6  UNL     1      24.487   3.307  53.223  1.00  0.00     0.206 C 
HETATM    7  N2  UNL     1      23.239   3.492  52.842  1.00  0.00    -0.226 NA
HETATM    8  C7  UNL     1      22.588   2.231  52.515  1.00  0.00     0.136 C 
HETATM    9  C12 UNL     1      23.396   1.157  52.606  1.00  0.00     0.025 C 
HETATM   10  C13 UNL     1      22.881  -0.212  52.844  1.00  0.00     0.216 C 
HETATM   11  O2  UNL     1      23.411  -0.210  54.271  1.00  0.00    -0.348 OA
HETATM   12  C14 UNL     1      24.812  -0.226  53.982  1.00  0.00     0.082 C 
HETATM   13  C15 UNL     1      26.079  -0.609  54.263  1.00  0.00     0.071 C 
HETATM   14  H7  UNL     1      26.218   2.199  53.842  1.00  0.00     0.161 HD
ENDROOT
BRANCH   8  15
HETATM   15  N3  UNL     1      21.247   2.127  52.136  1.00  0.00    -0.350 N 
HETATM   16  H9  UNL     1      20.645   2.317  52.967  1.00  0.00     0.166 HD
BRANCH  15  17
HETATM   17  C8  UNL     1      20.941   1.804  50.788  1.00  0.00     0.090 C 
HETATM   18  C9  UNL     1      20.077   0.843  50.505  1.00  0.00     0.021 C 
BRANCH  18  19
HETATM   19  C10 UNL     1      19.425   0.101  51.559  1.00  0.00     0.051 C 
HETATM   20  C11 UNL     1      18.150  -0.287  51.412  1.00  0.00     0.162 C 
HETATM   21  F1  UNL     1      17.726   0.146  50.190  1.00  0.00    -0.198 F 
HETATM   22 BR1  UNL     1      17.300  -1.269  52.819  1.00  0.00    -0.018 Br
ENDBRANCH  18  19
ENDBRANCH  15  17
ENDBRANCH   8  15
BRANCH   1  23
HETATM   23  O1  UNL     1      28.370  -0.774  54.146  1.00  0.00    -0.356 OA
HETATM   24  C1  UNL     1      29.709  -0.596  53.842  1.00  0.00     0.210 C 
ENDBRANCH   1  23
TORSDOF 4
ENDMDL
MODEL 2
REMARK VINA RESULT:      -7.0      3.238      5.148
REMARK  4 active torsions:
REMARK  status: ('A' for Active; 'I' for Inactive)
REMARK    1  A    between atoms: O1_2  and  C2_3 
REMARK    2  A    between atoms: C7_10  and  N3_11 
REMARK    3  A    between atoms: N3_11  and  C8_12 
REMARK    4  A    between atoms: C9_13  and  C10_14 
ROOT
HETATM    1  C2  UNL     1      23.634   5.614  50.783  1.00  0.00     0.067 C 
HETATM    2  C3  UNL     1      23.673   5.436  52.095  1.00  0.00     0.013 C 
HETATM    3  C4  UNL     1      23.384   4.113  52.766  1.00  0.00     0.073 C 
HETATM    4  C5  UNL     1      23.657   3.022  51.804  1.00  0.00     0.112 C 
HETATM    5  N1  UNL     1      25.243   3.142  51.913  1.00  0.00    -0.365 N 
HETATM    6  C6  UNL     1      26.017   2.115  52.585  1.00  0.00     0.206 C 
HETATM    7  N2  UNL     1      25.701   0.921  53.048  1.00  0.00    -0.226 NA
HETATM    8  C7  UNL     1      24.290   0.627  52.847  1.00  0.00     0.136 C 
HETATM    9  C12 UNL     1      23.592   1.638  52.294  1.00  0.00     0.025 C 
HETATM   10  C13 UNL     1      22.341   1.421  51.529  1.00  0.00     0.216 C 
HETATM   11  O2  UNL     1      23.040   1.735  50.214  1.00  0.00    -0.348 OA
HETATM   12  C14 UNL     1      23.284   3.128  50.424  1.00  0.00     0.082 C 
HETATM   13  C15 UNL     1      23.392   4.399  49.970  1.00  0.00     0.071 C 
HETATM   14  H7  UNL     1      25.739   3.950  51.507  1.00  0.00     0.161 HD
ENDROOT
BRANCH   8  15
HETATM   15  N3  UNL     1      23.695  -0.589  53.192  1.00  0.00    -0.350 N 
HETATM   16  H9  UNL     1      23.533  -1.145  52.324  1.00  0.00     0.166 HD
BRANCH  15  17
HETATM   17  C8  UNL     1      23.428  -0.854  54.561  1.00  0.00     0.090 C 
HETATM   18  C9  UNL     1      22.211  -1.193  54.957  1.00  0.00     0.021 C 
BRANCH  18  19
HETATM   19  C10 UNL     1      21.129  -1.300  54.007  1.00  0.00     0.051 C 
HETATM   20  C11 UNL     1      20.216  -0.320  53.923  1.00  0.00     0.162 C 
HETATM   21  F1  UNL     1      20.553   0.637  54.835  1.00  0.00    -0.198 F 
HETATM   22 BR1  UNL     1      18.787  -0.476  52.658  1.00  0.00    -0.018 Br
ENDBRANCH  18  19
ENDBRANCH  15  17
ENDBRANCH   8  15
BRANCH   1  23
HETATM   23  O1  UNL     1      23.806   6.660  49.933  1.00  0.00    -0.356 OA
HETATM   24  C1  UNL     1      24.239   7.941  50.233  1.00  0.00     0.210 C 
ENDBRANCH   1  23
TORSDOF 4
ENDMDL
MODEL 3
REMARK VINA RESULT:      -6.9      2.122      2.428
REMARK  4 active torsions:
REMARK  status: ('A' for Active; 'I' for Inactive)
REMARK    1  A    between atoms: O1_2  and  C2_3 
REMARK    2  A    between atoms: C7_10  and  N3_11 
REMARK    3  A    between atoms: N3_11  and  C8_12 
REMARK    4  A    between atoms: C9_13  and  C10_14 
ROOT
HETATM    1  C2  UNL     1      27.736  -0.041  53.573  1.00  0.00     0.067 C 
HETATM    2  C3  UNL     1      27.162  -0.510  52.475  1.00  0.00     0.013 C 
HETATM    3  C4  UNL     1      25.871   0.037  51.910  1.00  0.00     0.073 C 
HETATM    4  C5  UNL     1      25.713   1.439  52.358  1.00  0.00     0.112 C 
HETATM    5  N1  UNL     1      26.815   2.021  51.364  1.00  0.00    -0.365 N 
HETATM    6  C6  UNL     1      26.428   2.830  50.223  1.00  0.00     0.206 C 
HETATM    7  N2  UNL     1      25.280   3.365  49.859  1.00  0.00    -0.226 NA
HETATM    8  C7  UNL     1      24.217   3.038  50.799  1.00  0.00     0.136 C 
HETATM    9  C12 UNL     1      24.600   2.220  51.798  1.00  0.00     0.025 C 
HETATM   10  C13 UNL     1      23.904   2.175  53.105  1.00  0.00     0.216 C 
HETATM   11  O2  UNL     1      25.063   2.880  53.795  1.00  0.00    -0.348 OA
HETATM   12  C14 UNL     1      26.042   1.842  53.693  1.00  0.00     0.082 C 
HETATM   13  C15 UNL     1      27.096   1.149  54.182  1.00  0.00     0.071 C 
HETATM   14  H7  UNL     1      27.817   1.831  51.520  1.00  0.00     0.161 HD
ENDROOT
BRANCH   8  15
HETATM   15  N3  UNL     1      22.910   3.520  50.688  1.00  0.00    -0.350 N 
HETATM   16  H9  UNL     1      22.733   4.198  51.461  1.00  0.00     0.166 HD
BRANCH  15  17
HETATM   17  C8  UNL     1      22.096   3.047  49.626  1.00  0.00     0.090 C 
HETATM   18  C9  UNL     1      21.068   2.249  49.868  1.00  0.00     0.021 C 
BRANCH  18  19
HETATM   19  C10 UNL     1      20.752   1.841  51.217  1.00  0.00     0.051 C 
HETATM   20  C11 UNL     1      20.961   0.571  51.596  1.00  0.00     0.162 C 
HETATM   21  F1  UNL     1      21.470  -0.101  50.524  1.00  0.00    -0.198 F 
HETATM   22 BR1  UNL     1      20.537   0.045  53.388  1.00  0.00    -0.018 Br
ENDBRANCH  18  19
ENDBRANCH  15  17
ENDBRANCH   8  15
BRANCH   1  23
HETATM   23  O1  UNL     1      28.837  -0.348  54.307  1.00  0.00    -0.356 OA
HETATM   24  C1  UNL     1      30.034  -0.887  53.865  1.00  0.00     0.210 C 
ENDBRANCH   1  23
TORSDOF 4
ENDMDL
MODEL 4
REMARK VINA RESULT:      -6.8      3.307      4.044
REMARK  4 active torsions:
REMARK  status: ('A' for Active; 'I' for Inactive)
REMARK    1  A    between atoms: O1_2  and  C2_3 
REMARK    2  A    between atoms: C7_10  and  N3_11 
REMARK    3  A    between atoms: N3_11  and  C8_12 
REMARK    4  A    between atoms: C9_13  and  C10_14 
ROOT
HETATM    1  C2  UNL     1      27.699  -0.306  54.022  1.00  0.00     0.067 C 
HETATM    2  C3  UNL     1      26.879   0.153  54.956  1.00  0.00     0.013 C 
HETATM    3  C4  UNL     1      25.777   1.149  54.681  1.00  0.00     0.073 C 
HETATM    4  C5  UNL     1      25.388   1.047  53.257  1.00  0.00     0.112 C 
HETATM    5  N1  UNL     1      24.595  -0.326  53.434  1.00  0.00    -0.365 N 
HETATM    6  C6  UNL     1      23.148  -0.360  53.351  1.00  0.00     0.206 C 
HETATM    7  N2  UNL     1      22.255   0.541  52.990  1.00  0.00    -0.226 NA
HETATM    8  C7  UNL     1      22.884   1.805  52.636  1.00  0.00     0.136 C 
HETATM    9  C12 UNL     1      24.221   1.818  52.804  1.00  0.00     0.025 C 
HETATM   10  C13 UNL     1      25.111   2.732  52.050  1.00  0.00     0.216 C 
HETATM   11  O2  UNL     1      25.645   1.584  51.205  1.00  0.00    -0.348 OA
HETATM   12  C14 UNL     1      26.364   0.880  52.222  1.00  0.00     0.082 C 
HETATM   13  C15 UNL     1      27.413   0.131  52.634  1.00  0.00     0.071 C 
HETATM   14  H7  UNL     1      25.102  -1.207  53.608  1.00  0.00     0.161 HD
ENDROOT
BRANCH   8  15
HETATM   15  N3  UNL     1      22.180   2.915  52.164  1.00  0.00    -0.350 N 
HETATM   16  H9  UNL     1      22.389   3.733  52.776  1.00  0.00     0.166 HD
BRANCH  15  17
HETATM   17  C8  UNL     1      21.356   2.765  51.018  1.00  0.00     0.090 C 
HETATM   18  C9  UNL     1      21.588   3.472  49.923  1.00  0.00     0.021 C 
BRANCH  18  19
HETATM   19  C10 UNL     1      22.684   4.411  49.869  1.00  0.00     0.051 C 
HETATM   20  C11 UNL     1      23.787   4.110  49.168  1.00  0.00     0.162 C 
HETATM   21  F1  UNL     1      23.601   2.876  48.617  1.00  0.00    -0.198 F 
HETATM   22 BR1  UNL     1      25.231   5.366  49.107  1.00  0.00    -0.018 Br
ENDBRANCH  18  19
ENDBRANCH  15  17
ENDBRANCH   8  15
BRANCH   1  23
HETATM   23  O1  UNL     1      28.765  -1.148  53.985  1.00  0.00    -0.356 OA
HETATM   24  C1  UNL     1      30.051  -0.878  53.549  1.00  0.00     0.210 C 
ENDBRANCH   1  23
TORSDOF 4
ENDMDL
MODEL 5
REMARK VINA RESULT:      -6.7      4.704      6.410
REMARK  4 active torsions:
REMARK  status: ('A' for Active; 'I' for Inactive)
REMARK    1  A    between atoms: O1_2  and  C2_3 
REMARK    2  A    between atoms: C7_10  and  N3_11 
REMARK    3  A    between atoms: N3_11  and  C8_12 
REMARK    4  A    between atoms: C9_13  and  C10_14 
ROOT
HETATM    1  C2  UNL     1      25.662   5.899  49.240  1.00  0.00     0.067 C 
HETATM    2  C3  UNL     1      26.155   4.671  49.188  1.00  0.00     0.013 C 
HETATM    3  C4  UNL     1      25.815   3.594  50.193  1.00  0.00     0.073 C 
HETATM    4  C5  UNL     1      24.497   3.902  50.793  1.00  0.00     0.112 C 
HETATM    5  N1  UNL     1      23.661   3.470  49.506  1.00  0.00    -0.365 N 
HETATM    6  C6  UNL     1      22.862   2.259  49.516  1.00  0.00     0.206 C 
HETATM    7  N2  UNL     1      22.521   1.425  50.478  1.00  0.00    -0.226 NA
HETATM    8  C7  UNL     1      23.096   1.820  51.756  1.00  0.00     0.136 C 
HETATM    9  C12 UNL     1      23.895   2.902  51.686  1.00  0.00     0.025 C 
HETATM   10  C13 UNL     1      24.152   3.782  52.851  1.00  0.00     0.216 C 
HETATM   11  O2  UNL     1      23.295   4.891  52.256  1.00  0.00    -0.348 OA
HETATM   12  C14 UNL     1      24.129   5.241  51.149  1.00  0.00     0.082 C 
HETATM   13  C15 UNL     1      24.650   6.151  50.293  1.00  0.00     0.071 C 
HETATM   14  H7  UNL     1      23.676   4.047  48.650  1.00  0.00     0.161 HD
ENDROOT
BRANCH   8  15
HETATM   15  N3  UNL     1      22.853   1.147  52.956  1.00  0.00    -0.350 N 
HETATM   16  H9  UNL     1      22.409   1.808  53.630  1.00  0.00     0.166 HD
BRANCH  15  17
HETATM   17  C8  UNL     1      23.221  -0.220  53.059  1.00  0.00     0.090 C 
HETATM   18  C9  UNL     1      24.444  -0.563  53.430  1.00  0.00     0.021 C 
BRANCH  18  19
HETATM   19  C10 UNL     1      25.432   0.445  53.738  1.00  0.00     0.051 C 
HETATM   20  C11 UNL     1      26.450   0.661  52.892  1.00  0.00     0.162 C 
HETATM   21  F1  UNL     1      26.303  -0.197  51.842  1.00  0.00    -0.198 F 
HETATM   22 BR1  UNL     1      27.752   2.001  53.314  1.00  0.00    -0.018 Br
ENDBRANCH  18  19
ENDBRANCH  15  17
ENDBRANCH   8  15
BRANCH   1  23
HETATM   23  O1  UNL     1      25.812   7.043  48.521  1.00  0.00    -0.356 OA
HETATM   24  C1  UNL     1      24.836   7.768  47.858  1.00  0.00     0.210 C 
ENDBRANCH   1  23
TORSDOF 4
ENDMDL
MODEL 6
REMARK VINA RESULT:      -6.6      5.518      7.610
REMARK  4 active torsions:
REMARK  status: ('A' for Active; 'I' for Inactive)
REMARK    1  A    between atoms: O1_2  and  C2_3 
REMARK    2  A    between atoms: C7_10  and  N3_11 
REMARK    3  A    between atoms: N3_11  and  C8_12 
REMARK    4  A    between atoms: C9_13  and  C10_14 
ROOT
HETATM    1  C2  UNL     1      23.941   6.536  48.100  1.00  0.00     0.067 C 
HETATM    2  C3  UNL     1      23.057   5.565  48.274  1.00  0.00     0.013 C 
HETATM    3  C4  UNL     1      23.409   4.209  48.842  1.00  0.00     0.073 C 
HETATM    4  C5  UNL     1      24.622   4.345  49.679  1.00  0.00     0.112 C 
HETATM    5  N1  UNL     1      23.869   5.057  50.890  1.00  0.00    -0.365 N 
HETATM    6  C6  UNL     1      23.650   4.354  52.140  1.00  0.00     0.206 C 
HETATM    7  N2  UNL     1      24.093   3.202  52.604  1.00  0.00    -0.226 NA
HETATM    8  C7  UNL     1      24.945   2.529  51.635  1.00  0.00     0.136 C 
HETATM    9  C12 UNL     1      25.056   3.177  50.459  1.00  0.00     0.025 C 
HETATM   10  C13 UNL     1      26.219   3.001  49.557  1.00  0.00     0.216 C 
HETATM   11  O2  UNL     1      26.747   4.388  49.898  1.00  0.00    -0.348 OA
HETATM   12  C14 UNL     1      25.723   5.169  49.277  1.00  0.00     0.082 C 
HETATM   13  C15 UNL     1      25.310   6.266  48.600  1.00  0.00     0.071 C 
HETATM   14  H7  UNL     1      23.529   6.027  50.801  1.00  0.00     0.161 HD
ENDROOT
BRANCH   8  15
HETATM   15  N3  UNL     1      25.594   1.317  51.884  1.00  0.00    -0.350 N 
HETATM   16  H9  UNL     1      26.487   1.295  51.344  1.00  0.00     0.166 HD
BRANCH  15  17
HETATM   17  C8  UNL     1      24.984   0.383  52.762  1.00  0.00     0.090 C 
HETATM   18  C9  UNL     1      25.693  -0.592  53.307  1.00  0.00     0.021 C 
BRANCH  18  19
HETATM   19  C10 UNL     1      27.102  -0.729  53.022  1.00  0.00     0.051 C 
HETATM   20  C11 UNL     1      28.007  -0.378  53.947  1.00  0.00     0.162 C 
HETATM   21  F1  UNL     1      27.326   0.066  55.042  1.00  0.00    -0.198 F 
HETATM   22 BR1  UNL     1      29.872  -0.565  53.553  1.00  0.00    -0.018 Br
ENDBRANCH  18  19
ENDBRANCH  15  17
ENDBRANCH   8  15
BRANCH   1  23
HETATM   23  O1  UNL     1      23.920   7.798  47.597  1.00  0.00    -0.356 OA
HETATM   24  C1  UNL     1      23.432   8.947  48.196  1.00  0.00     0.210 C 
ENDBRANCH   1  23
TORSDOF 4
ENDMDL
MODEL 7
REMARK VINA RESULT:      -6.5      5.435      6.614
REMARK  4 active torsions:
REMARK  status: ('A' for Active; 'I' for Inactive)
REMARK    1  A    between atoms: O1_2  and  C2_3 
REMARK    2  A    between atoms: C7_10  and  N3_11 
REMARK    3  A    between atoms: N3_11  and  C8_12 
REMARK    4  A    between atoms: C9_13  and  C10_14 
ROOT
HETATM    1  C2  UNL     1      26.947   7.014  48.065  1.00  0.00     0.067 C 
HETATM    2  C3  UNL     1      25.659   7.304  47.964  1.00  0.00     0.013 C 
HETATM    3  C4  UNL     1      24.556   6.335  48.323  1.00  0.00     0.073 C 
HETATM    4  C5  UNL     1      25.081   5.360  49.305  1.00  0.00     0.112 C 
HETATM    5  N1  UNL     1      25.071   6.384  50.527  1.00  0.00    -0.365 N 
HETATM    6  C6  UNL     1      24.106   6.244  51.601  1.00  0.00     0.206 C 
HETATM    7  N2  UNL     1      23.242   5.295  51.904  1.00  0.00    -0.226 NA
HETATM    8  C7  UNL     1      23.281   4.208  50.937  1.00  0.00     0.136 C 
HETATM    9  C12 UNL     1      24.132   4.416  49.913  1.00  0.00     0.025 C 
HETATM   10  C13 UNL     1      24.731   3.306  49.136  1.00  0.00     0.216 C 
HETATM   11  O2  UNL     1      26.095   3.538  49.772  1.00  0.00    -0.348 OA
HETATM   12  C14 UNL     1      26.396   4.806  49.183  1.00  0.00     0.082 C 
HETATM   13  C15 UNL     1      27.272   5.698  48.665  1.00  0.00     0.071 C 
HETATM   14  H7  UNL     1      25.751   7.158  50.570  1.00  0.00     0.161 HD
ENDROOT
BRANCH   8  15
HETATM   15  N3  UNL     1      22.511   3.048  51.044  1.00  0.00    -0.350 N 
HETATM   16  H9  UNL     1      22.379   2.641  50.093  1.00  0.00     0.166 HD
BRANCH  15  17
HETATM   17  C8  UNL     1      22.065   2.640  52.328  1.00  0.00     0.090 C 
HETATM   18  C9  UNL     1      22.689   1.674  52.984  1.00  0.00     0.021 C 
BRANCH  18  19
HETATM   19  C10 UNL     1      23.836   1.013  52.408  1.00  0.00     0.051 C 
HETATM   20  C11 UNL     1      25.073   1.414  52.738  1.00  0.00     0.162 C 
HETATM   21  F1  UNL     1      24.949   2.446  53.623  1.00  0.00    -0.198 F 
HETATM   22 BR1  UNL     1      26.584   0.528  51.965  1.00  0.00    -0.018 Br
ENDBRANCH  18  19
ENDBRANCH  15  17
ENDBRANCH   8  15
BRANCH   1  23
HETATM   23  O1  UNL     1      28.116   7.650  47.791  1.00  0.00    -0.356 OA
HETATM   24  C1  UNL     1      29.135   7.979  48.670  1.00  0.00     0.210 C 
ENDBRANCH   1  23
TORSDOF 4
ENDMDL
MODEL 8
REMARK VINA RESULT:      -6.4      2.150      2.266
REMARK  4 active torsions:
REMARK  status: ('A' for Active; 'I' for Inactive)
REMARK    1  A    between atoms: O1_2  and  C2_3 
REMARK    2  A    between atoms: C7_10  and  N3_11 
REMARK    3  A    between atoms: N3_11  and  C8_12 
REMARK    4  A    between atoms: C9_13  and  C10_14 
ROOT
HETATM    1  C2  UNL     1      27.269  -0.268  53.570  1.00  0.00     0.067 C 
HETATM    2  C3  UNL     1      27.117   0.347  52.407  1.00  0.00     0.013 C 
HETATM    3  C4  UNL     1      25.770   0.634  51.785  1.00  0.00     0.073 C 
HETATM    4  C5  UNL     1      24.754   0.693  52.860  1.00  0.00     0.112 C 
HETATM    5  N1  UNL     1      25.212   2.122  53.397  1.00  0.00    -0.365 N 
HETATM    6  C6  UNL     1      24.382   3.293  53.185  1.00  0.00     0.206 C 
HETATM    7  N2  UNL     1      23.154   3.443  52.731  1.00  0.00    -0.226 NA
HETATM    8  C7  UNL     1      22.561   2.166  52.362  1.00  0.00     0.136 C 
HETATM    9  C12 UNL     1      23.393   1.115  52.499  1.00  0.00     0.025 C 
HETATM   10  C13 UNL     1      22.904  -0.269  52.702  1.00  0.00     0.216 C 
HETATM   11  O2  UNL     1      23.348  -0.258  54.158  1.00  0.00    -0.348 OA
HETATM   12  C14 UNL     1      24.763  -0.232  53.954  1.00  0.00     0.082 C 
HETATM   13  C15 UNL     1      26.023  -0.579  54.309  1.00  0.00     0.071 C 
HETATM   14  H7  UNL     1      26.104   2.233  53.904  1.00  0.00     0.161 HD
ENDROOT
BRANCH   8  15
HETATM   15  N3  UNL     1      21.249   2.025  51.903  1.00  0.00    -0.350 N 
HETATM   16  H9  UNL     1      21.198   1.195  51.274  1.00  0.00     0.166 HD
BRANCH  15  17
HETATM   17  C8  UNL     1      20.271   2.960  52.332  1.00  0.00     0.090 C 
HETATM   18  C9  UNL     1      19.704   3.788  51.468  1.00  0.00     0.021 C 
BRANCH  18  19
HETATM   19  C10 UNL     1      20.068   3.758  50.071  1.00  0.00     0.051 C 
HETATM   20  C11 UNL     1      19.209   3.262  49.169  1.00  0.00     0.162 C 
HETATM   21  F1  UNL     1      18.089   2.865  49.840  1.00  0.00    -0.198 F 
HETATM   22 BR1  UNL     1      19.706   3.229  47.319  1.00  0.00    -0.018 Br
ENDBRANCH  18  19
ENDBRANCH  15  17
ENDBRANCH   8  15
BRANCH   1  23
HETATM   23  O1  UNL     1      28.319  -0.677  54.329  1.00  0.00    -0.356 OA
HETATM   24  C1  UNL     1      29.634  -0.865  53.936  1.00  0.00     0.210 C 
ENDBRANCH   1  23
TORSDOF 4
ENDMDL
MODEL 9
REMARK VINA RESULT:      -6.4      5.033      7.224
REMARK  4 active torsions:
REMARK  status: ('A' for Active; 'I' for Inactive)
REMARK    1  A    between atoms: O1_2  and  C2_3 
REMARK    2  A    between atoms: C7_10  and  N3_11 
REMARK    3  A    between atoms: N3_11  and  C8_12 
REMARK    4  A    between atoms: C9_13  and  C10_14 
ROOT
HETATM    1  C2  UNL     1      23.477   5.917  48.110  1.00  0.00     0.067 C 
HETATM    2  C3  UNL     1      24.326   6.339  49.035  1.00  0.00     0.013 C 
HETATM    3  C4  UNL     1      24.508   5.660  50.372  1.00  0.00     0.073 C 
HETATM    4  C5  UNL     1      24.109   4.240  50.242  1.00  0.00     0.112 C 
HETATM    5  N1  UNL     1      25.417   3.808  49.439  1.00  0.00    -0.365 N 
HETATM    6  C6  UNL     1      26.431   2.983  50.067  1.00  0.00     0.206 C 
HETATM    7  N2  UNL     1      26.464   2.327  51.210  1.00  0.00    -0.226 NA
HETATM    8  C7  UNL     1      25.233   2.511  51.966  1.00  0.00     0.136 C 
HETATM    9  C12 UNL     1      24.352   3.348  51.385  1.00  0.00     0.025 C 
HETATM   10  C13 UNL     1      22.896   3.287  51.653  1.00  0.00     0.216 C 
HETATM   11  O2  UNL     1      22.623   2.705  50.273  1.00  0.00    -0.348 OA
HETATM   12  C14 UNL     1      22.957   3.850  49.484  1.00  0.00     0.082 C 
HETATM   13  C15 UNL     1      22.769   4.650  48.408  1.00  0.00     0.071 C 
HETATM   14  H7  UNL     1      25.558   4.108  48.462  1.00  0.00     0.161 HD
ENDROOT
BRANCH   8  15
HETATM   15  N3  UNL     1      24.974   1.885  53.188  1.00  0.00    -0.350 N 
HETATM   16  H9  UNL     1      25.285   2.513  53.962  1.00  0.00     0.166 HD
BRANCH  15  17
HETATM   17  C8  UNL     1      24.377   0.598  53.183  1.00  0.00     0.090 C 
HETATM   18  C9  UNL     1      25.078  -0.472  53.525  1.00  0.00     0.021 C 
BRANCH  18  19
HETATM   19  C10 UNL     1      26.465  -0.353  53.909  1.00  0.00     0.051 C 
HETATM   20  C11 UNL     1      27.427  -0.773  53.074  1.00  0.00     0.162 C 
HETATM   21  F1  UNL     1      26.818  -1.257  51.953  1.00  0.00    -0.198 F 
HETATM   22 BR1  UNL     1      29.262  -0.609  53.598  1.00  0.00    -0.018 Br
ENDBRANCH  18  19
ENDBRANCH  15  17
ENDBRANCH   8  15
BRANCH   1  23
HETATM   23  O1  UNL     1      23.090   6.333  46.876  1.00  0.00    -0.356 OA
HETATM   24  C1  UNL     1      22.516   7.544  46.525  1.00  0.00     0.210 C 
ENDBRANCH   1  23
TORSDOF 4
ENDMDL
