MODEL 1
REMARK VINA RESULT:      -6.3      0.000      0.000
REMARK  10 active torsions:
REMARK  status: ('A' for Active; 'I' for Inactive)
REMARK    1  A    between atoms: C2_2  and  C3_3 
REMARK    2  A    between atoms: C3_3  and  C5_5 
REMARK    3  A    between atoms: C5_5  and  C6_6 
REMARK    4  A    between atoms: C6_6  and  C7_7 
REMARK    5  A    between atoms: C7_7  and  C8_8 
REMARK    6  A    between atoms: C8_8  and  N1_9 
REMARK    7  A    between atoms: N1_9  and  C9_10 
REMARK    8  A    between atoms: N1_9  and  C10_12 
REMARK    9  A    between atoms: C10_12  and  C11_13 
REMARK   10  A    between atoms: C17_19  and  O2_20 
ROOT
HETATM    1  N1  UNL     1      25.170   2.988  51.881  1.00  0.00    -0.365 N 
ENDROOT
BRANCH   1   2
HETATM    2  C8  UNL     1      24.257   2.667  52.918  1.00  0.00     0.128 C 
BRANCH   2   3
HETATM    3  C7  UNL     1      22.855   2.518  52.383  1.00  0.00     0.047 C 
BRANCH   3   4
HETATM    4  C6  UNL     1      22.475   1.145  52.007  1.00  0.00    -0.025 C 
BRANCH   4   5
HETATM    5  C5  UNL     1      22.601  -0.072  52.464  1.00  0.00     0.002 C 
BRANCH   5   6
HETATM    6  C3  UNL     1      22.670  -0.716  53.757  1.00  0.00    -0.066 C 
HETATM    7  C4  UNL     1      21.732  -1.393  54.685  1.00  0.00     0.048 C 
BRANCH   6   8
HETATM    8  C2  UNL     1      23.769  -0.863  54.459  1.00  0.00    -0.024 C 
HETATM    9  C1  UNL     1      24.732  -1.073  55.530  1.00  0.00     0.036 C 
ENDBRANCH   6   8
ENDBRANCH   5   6
ENDBRANCH   4   5
ENDBRANCH   3   4
ENDBRANCH   2   3
ENDBRANCH   1   2
BRANCH   1  10
HETATM   10  C9  UNL     1      24.574   3.886  50.908  1.00  0.00     0.472 C 
HETATM   11  O1  UNL     1      24.326   4.668  49.958  1.00  0.00    -0.392 OA
ENDBRANCH   1  10
BRANCH   1  12
HETATM   12  C10 UNL     1      26.533   2.683  51.521  1.00  0.00     0.165 C 
BRANCH  12  13
HETATM   13  C11 UNL     1      26.944   1.459  52.253  1.00  0.00    -0.007 A 
HETATM   14  C12 UNL     1      26.661   0.156  51.922  1.00  0.00     0.018 A 
HETATM   15  C13 UNL     1      27.138  -0.887  52.676  1.00  0.00    -0.061 A 
HETATM   16  C14 UNL     1      26.851  -2.309  52.331  1.00  0.00     0.048 C 
HETATM   17  C15 UNL     1      27.926  -0.673  53.811  1.00  0.00     0.009 A 
HETATM   18  C16 UNL     1      28.229   0.636  54.173  1.00  0.00     0.037 A 
HETATM   19  C17 UNL     1      27.730   1.619  53.387  1.00  0.00     0.073 A 
BRANCH  19  20
HETATM   20  O2  UNL     1      28.119   2.878  53.887  1.00  0.00    -0.360 OA
HETATM   21  H23 UNL     1      28.474   2.841  54.854  1.00  0.00     0.217 HD
ENDBRANCH  19  20
ENDBRANCH  12  13
ENDBRANCH   1  12
TORSDOF 10
ENDMDL
MODEL 2
REMARK VINA RESULT:      -6.2      2.752      5.039
REMARK  10 active torsions:
REMARK  status: ('A' for Active; 'I' for Inactive)
REMARK    1  A    between atoms: C2_2  and  C3_3 
REMARK    2  A    between atoms: C3_3  and  C5_5 
REMARK    3  A    between atoms: C5_5  and  C6_6 
REMARK    4  A    between atoms: C6_6  and  C7_7 
REMARK    5  A    between atoms: C7_7  and  C8_8 
REMARK    6  A    between atoms: C8_8  and  N1_9 
REMARK    7  A    between atoms: N1_9  and  C9_10 
REMARK    8  A    between atoms: N1_9  and  C10_12 
REMARK    9  A    between atoms: C10_12  and  C11_13 
REMARK   10  A    between atoms: C17_19  and  O2_20 
ROOT
HETATM    1  N1  UNL     1      24.945  -0.852  53.432  1.00  0.00    -0.365 N 
ENDROOT
BRANCH   1   2
HETATM    2  C8  UNL     1      23.752  -0.130  53.170  1.00  0.00     0.128 C 
BRANCH   2   3
HETATM    3  C7  UNL     1      24.037   1.336  52.965  1.00  0.00     0.047 C 
BRANCH   3   4
HETATM    4  C6  UNL     1      24.327   1.725  51.574  1.00  0.00    -0.025 C 
BRANCH   4   5
HETATM    5  C5  UNL     1      23.880   2.554  50.669  1.00  0.00     0.002 C 
BRANCH   5   6
HETATM    6  C3  UNL     1      24.437   3.540  49.768  1.00  0.00    -0.066 C 
HETATM    7  C4  UNL     1      23.925   4.619  48.889  1.00  0.00     0.048 C 
BRANCH   6   8
HETATM    8  C2  UNL     1      25.719   3.702  49.542  1.00  0.00    -0.024 C 
HETATM    9  C1  UNL     1      27.020   4.231  49.160  1.00  0.00     0.036 C 
ENDBRANCH   6   8
ENDBRANCH   5   6
ENDBRANCH   4   5
ENDBRANCH   3   4
ENDBRANCH   2   3
ENDBRANCH   1   2
BRANCH   1  10
HETATM   10  C9  UNL     1      25.171  -1.003  54.858  1.00  0.00     0.472 C 
HETATM   11  O1  UNL     1      25.502  -0.880  56.063  1.00  0.00    -0.392 OA
ENDBRANCH   1  10
BRANCH   1  12
HETATM   12  C10 UNL     1      25.997  -1.491  52.681  1.00  0.00     0.165 C 
BRANCH  12  13
HETATM   13  C11 UNL     1      27.277  -0.812  53.004  1.00  0.00    -0.007 A 
HETATM   14  C12 UNL     1      27.486   0.535  53.171  1.00  0.00     0.018 A 
HETATM   15  C13 UNL     1      28.723   1.025  53.504  1.00  0.00    -0.061 A 
HETATM   16  C14 UNL     1      28.972   2.483  53.700  1.00  0.00     0.048 C 
HETATM   17  C15 UNL     1      29.824   0.181  53.685  1.00  0.00     0.009 A 
HETATM   18  C16 UNL     1      29.645  -1.188  53.522  1.00  0.00     0.037 A 
HETATM   19  C17 UNL     1      28.400  -1.608  53.194  1.00  0.00     0.073 A 
BRANCH  19  20
HETATM   20  O2  UNL     1      28.385  -3.011  53.060  1.00  0.00    -0.360 OA
HETATM   21  H23 UNL     1      27.658  -3.352  52.414  1.00  0.00     0.217 HD
ENDBRANCH  19  20
ENDBRANCH  12  13
ENDBRANCH   1  12
TORSDOF 10
ENDMDL
MODEL 3
REMARK VINA RESULT:      -6.1      2.519      5.565
REMARK  10 active torsions:
REMARK  status: ('A' for Active; 'I' for Inactive)
REMARK    1  A    between atoms: C2_2  and  C3_3 
REMARK    2  A    between atoms: C3_3  and  C5_5 
REMARK    3  A    between atoms: C5_5  and  C6_6 
REMARK    4  A    between atoms: C6_6  and  C7_7 
REMARK    5  A    between atoms: C7_7  and  C8_8 
REMARK    6  A    between atoms: C8_8  and  N1_9 
REMARK    7  A    between atoms: N1_9  and  C9_10 
REMARK    8  A    between atoms: N1_9  and  C10_12 
REMARK    9  A    between atoms: C10_12  and  C11_13 
REMARK   10  A    between atoms: C17_19  and  O2_20 
ROOT
HETATM    1  N1  UNL     1      26.019   0.408  53.880  1.00  0.00    -0.365 N 
ENDROOT
BRANCH   1   2
HETATM    2  C8  UNL     1      26.000   1.819  53.731  1.00  0.00     0.128 C 
BRANCH   2   3
HETATM    3  C7  UNL     1      27.078   2.281  52.783  1.00  0.00     0.047 C 
BRANCH   3   4
HETATM    4  C6  UNL     1      26.718   2.223  51.356  1.00  0.00    -0.025 C 
BRANCH   4   5
HETATM    5  C5  UNL     1      25.914   2.821  50.518  1.00  0.00     0.002 C 
BRANCH   5   6
HETATM    6  C3  UNL     1      24.502   3.124  50.438  1.00  0.00    -0.066 C 
HETATM    7  C4  UNL     1      23.383   2.849  49.503  1.00  0.00     0.048 C 
BRANCH   6   8
HETATM    8  C2  UNL     1      23.831   3.795  51.344  1.00  0.00    -0.024 C 
HETATM    9  C1  UNL     1      23.319   4.339  52.594  1.00  0.00     0.036 C 
ENDBRANCH   6   8
ENDBRANCH   5   6
ENDBRANCH   4   5
ENDBRANCH   3   4
ENDBRANCH   2   3
ENDBRANCH   1   2
BRANCH   1  10
HETATM   10  C9  UNL     1      27.154  -0.027  54.674  1.00  0.00     0.472 C 
HETATM   11  O1  UNL     1      28.283  -0.230  55.183  1.00  0.00    -0.392 OA
ENDBRANCH   1  10
BRANCH   1  12
HETATM   12  C10 UNL     1      25.221  -0.723  53.474  1.00  0.00     0.165 C 
BRANCH  12  13
HETATM   13  C11 UNL     1      23.790  -0.344  53.584  1.00  0.00    -0.007 A 
HETATM   14  C12 UNL     1      23.058   0.413  52.701  1.00  0.00     0.018 A 
HETATM   15  C13 UNL     1      21.725   0.657  52.912  1.00  0.00    -0.061 A 
HETATM   16  C14 UNL     1      20.908   1.468  51.963  1.00  0.00     0.048 C 
HETATM   17  C15 UNL     1      21.052   0.152  54.030  1.00  0.00     0.009 A 
HETATM   18  C16 UNL     1      21.766  -0.618  54.942  1.00  0.00     0.037 A 
HETATM   19  C17 UNL     1      23.078  -0.823  54.676  1.00  0.00     0.073 A 
BRANCH  19  20
HETATM   20  O2  UNL     1      23.657  -1.612  55.691  1.00  0.00    -0.360 OA
HETATM   21  H23 UNL     1      24.677  -1.493  55.768  1.00  0.00     0.217 HD
ENDBRANCH  19  20
ENDBRANCH  12  13
ENDBRANCH   1  12
TORSDOF 10
ENDMDL
MODEL 4
REMARK VINA RESULT:      -6.1      2.731      6.368
REMARK  10 active torsions:
REMARK  status: ('A' for Active; 'I' for Inactive)
REMARK    1  A    between atoms: C2_2  and  C3_3 
REMARK    2  A    between atoms: C3_3  and  C5_5 
REMARK    3  A    between atoms: C5_5  and  C6_6 
REMARK    4  A    between atoms: C6_6  and  C7_7 
REMARK    5  A    between atoms: C7_7  and  C8_8 
REMARK    6  A    between atoms: C8_8  and  N1_9 
REMARK    7  A    between atoms: N1_9  and  C9_10 
REMARK    8  A    between atoms: N1_9  and  C10_12 
REMARK    9  A    between atoms: C10_12  and  C11_13 
REMARK   10  A    between atoms: C17_19  and  O2_20 
ROOT
HETATM    1  N1  UNL     1      26.305  -0.172  53.602  1.00  0.00    -0.365 N 
ENDROOT
BRANCH   1   2
HETATM    2  C8  UNL     1      26.951   0.974  53.071  1.00  0.00     0.128 C 
BRANCH   2   3
HETATM    3  C7  UNL     1      26.790   1.045  51.573  1.00  0.00     0.047 C 
BRANCH   3   4
HETATM    4  C6  UNL     1      26.434   2.375  51.049  1.00  0.00    -0.025 C 
BRANCH   4   5
HETATM    5  C5  UNL     1      26.270   2.968  49.896  1.00  0.00     0.002 C 
BRANCH   5   6
HETATM    6  C3  UNL     1      26.633   4.232  49.294  1.00  0.00    -0.066 C 
HETATM    7  C4  UNL     1      27.830   4.823  48.646  1.00  0.00     0.048 C 
BRANCH   6   8
HETATM    8  C2  UNL     1      25.825   5.258  49.172  1.00  0.00    -0.024 C 
HETATM    9  C1  UNL     1      25.264   6.585  48.962  1.00  0.00     0.036 C 
ENDBRANCH   6   8
ENDBRANCH   5   6
ENDBRANCH   4   5
ENDBRANCH   3   4
ENDBRANCH   2   3
ENDBRANCH   1   2
BRANCH   1  10
HETATM   10  C9  UNL     1      26.700  -1.379  52.898  1.00  0.00     0.472 C 
HETATM   11  O1  UNL     1      26.799  -2.373  52.139  1.00  0.00    -0.392 OA
ENDBRANCH   1  10
BRANCH   1  12
HETATM   12  C10 UNL     1      25.370  -0.482  54.655  1.00  0.00     0.165 C 
BRANCH  12  13
HETATM   13  C11 UNL     1      23.998  -0.432  54.089  1.00  0.00    -0.007 A 
HETATM   14  C12 UNL     1      23.595   0.201  52.939  1.00  0.00     0.018 A 
HETATM   15  C13 UNL     1      22.293   0.136  52.512  1.00  0.00    -0.061 A 
HETATM   16  C14 UNL     1      21.834   0.808  51.262  1.00  0.00     0.048 C 
HETATM   17  C15 UNL     1      21.320  -0.571  53.227  1.00  0.00     0.009 A 
HETATM   18  C16 UNL     1      21.697  -1.221  54.396  1.00  0.00     0.037 A 
HETATM   19  C17 UNL     1      22.997  -1.120  54.762  1.00  0.00     0.073 A 
BRANCH  19  20
HETATM   20  O2  UNL     1      23.215  -1.825  55.962  1.00  0.00    -0.360 OA
HETATM   21  H23 UNL     1      24.101  -2.352  55.971  1.00  0.00     0.217 HD
ENDBRANCH  19  20
ENDBRANCH  12  13
ENDBRANCH   1  12
TORSDOF 10
ENDMDL
MODEL 5
REMARK VINA RESULT:      -6.1      1.662      4.341
REMARK  10 active torsions:
REMARK  status: ('A' for Active; 'I' for Inactive)
REMARK    1  A    between atoms: C2_2  and  C3_3 
REMARK    2  A    between atoms: C3_3  and  C5_5 
REMARK    3  A    between atoms: C5_5  and  C6_6 
REMARK    4  A    between atoms: C6_6  and  C7_7 
REMARK    5  A    between atoms: C7_7  and  C8_8 
REMARK    6  A    between atoms: C8_8  and  N1_9 
REMARK    7  A    between atoms: N1_9  and  C9_10 
REMARK    8  A    between atoms: N1_9  and  C10_12 
REMARK    9  A    between atoms: C10_12  and  C11_13 
REMARK   10  A    between atoms: C17_19  and  O2_20 
ROOT
HETATM    1  N1  UNL     1      26.628   1.705  52.077  1.00  0.00    -0.365 N 
ENDROOT
BRANCH   1   2
HETATM    2  C8  UNL     1      26.471   0.295  52.105  1.00  0.00     0.128 C 
BRANCH   2   3
HETATM    3  C7  UNL     1      25.917  -0.165  53.429  1.00  0.00     0.047 C 
BRANCH   3   4
HETATM    4  C6  UNL     1      24.462   0.007  53.588  1.00  0.00    -0.025 C 
BRANCH   4   5
HETATM    5  C5  UNL     1      23.354  -0.436  53.058  1.00  0.00     0.002 C 
BRANCH   5   6
HETATM    6  C3  UNL     1      22.028  -0.789  53.515  1.00  0.00    -0.066 C 
HETATM    7  C4  UNL     1      21.433  -1.711  54.513  1.00  0.00     0.048 C 
BRANCH   6   8
HETATM    8  C2  UNL     1      20.918  -0.249  53.071  1.00  0.00    -0.024 C 
HETATM    9  C1  UNL     1      19.575  -0.025  52.555  1.00  0.00     0.036 C 
ENDBRANCH   6   8
ENDBRANCH   5   6
ENDBRANCH   4   5
ENDBRANCH   3   4
ENDBRANCH   2   3
ENDBRANCH   1   2
BRANCH   1  10
HETATM   10  C9  UNL     1      27.545   2.157  53.107  1.00  0.00     0.472 C 
HETATM   11  O1  UNL     1      28.094   2.616  54.139  1.00  0.00    -0.392 OA
ENDBRANCH   1  10
BRANCH   1  12
HETATM   12  C10 UNL     1      26.142   2.821  51.304  1.00  0.00     0.165 C 
BRANCH  12  13
HETATM   13  C11 UNL     1      24.660   2.738  51.248  1.00  0.00    -0.007 A 
HETATM   14  C12 UNL     1      23.898   2.092  50.306  1.00  0.00     0.018 A 
HETATM   15  C13 UNL     1      22.529   2.066  50.397  1.00  0.00    -0.061 A 
HETATM   16  C14 UNL     1      21.681   1.363  49.391  1.00  0.00     0.048 C 
HETATM   17  C15 UNL     1      21.850   2.695  51.446  1.00  0.00     0.009 A 
HETATM   18  C16 UNL     1      22.595   3.359  52.416  1.00  0.00     0.037 A 
HETATM   19  C17 UNL     1      23.941   3.346  52.269  1.00  0.00     0.073 A 
BRANCH  19  20
HETATM   20  O2  UNL     1      24.546   4.061  53.322  1.00  0.00    -0.360 OA
HETATM   21  H23 UNL     1      23.951   4.812  53.700  1.00  0.00     0.217 HD
ENDBRANCH  19  20
ENDBRANCH  12  13
ENDBRANCH   1  12
TORSDOF 10
ENDMDL
MODEL 6
REMARK VINA RESULT:      -6.0      2.045      4.953
REMARK  10 active torsions:
REMARK  status: ('A' for Active; 'I' for Inactive)
REMARK    1  A    between atoms: C2_2  and  C3_3 
REMARK    2  A    between atoms: C3_3  and  C5_5 
REMARK    3  A    between atoms: C5_5  and  C6_6 
REMARK    4  A    between atoms: C6_6  and  C7_7 
REMARK    5  A    between atoms: C7_7  and  C8_8 
REMARK    6  A    between atoms: C8_8  and  N1_9 
REMARK    7  A    between atoms: N1_9  and  C9_10 
REMARK    8  A    between atoms: N1_9  and  C10_12 
REMARK    9  A    between atoms: C10_12  and  C11_13 
REMARK   10  A    between atoms: C17_19  and  O2_20 
ROOT
HETATM    1  N1  UNL     1      23.370   2.471  51.741  1.00  0.00    -0.365 N 
ENDROOT
BRANCH   1   2
HETATM    2  C8  UNL     1      24.639   3.010  52.075  1.00  0.00     0.128 C 
BRANCH   2   3
HETATM    3  C7  UNL     1      25.687   2.597  51.073  1.00  0.00     0.047 C 
BRANCH   3   4
HETATM    4  C6  UNL     1      26.603   1.539  51.533  1.00  0.00    -0.025 C 
BRANCH   4   5
HETATM    5  C5  UNL     1      26.719   0.699  52.527  1.00  0.00     0.002 C 
BRANCH   5   6
HETATM    6  C3  UNL     1      27.255  -0.628  52.734  1.00  0.00    -0.066 C 
HETATM    7  C4  UNL     1      26.822  -2.026  52.489  1.00  0.00     0.048 C 
BRANCH   6   8
HETATM    8  C2  UNL     1      28.436  -0.884  53.247  1.00  0.00    -0.024 C 
HETATM    9  C1  UNL     1      29.853  -0.871  53.581  1.00  0.00     0.036 C 
ENDBRANCH   6   8
ENDBRANCH   5   6
ENDBRANCH   4   5
ENDBRANCH   3   4
ENDBRANCH   2   3
ENDBRANCH   1   2
BRANCH   1  10
HETATM   10  C9  UNL     1      22.311   3.445  51.937  1.00  0.00     0.472 C 
HETATM   11  O1  UNL     1      21.419   4.208  52.382  1.00  0.00    -0.392 OA
ENDBRANCH   1  10
BRANCH   1  12
HETATM   12  C10 UNL     1      22.830   1.227  51.251  1.00  0.00     0.165 C 
BRANCH  12  13
HETATM   13  C11 UNL     1      22.489   0.375  52.419  1.00  0.00    -0.007 A 
HETATM   14  C12 UNL     1      23.346  -0.098  53.382  1.00  0.00     0.018 A 
HETATM   15  C13 UNL     1      22.886  -0.851  54.432  1.00  0.00    -0.061 A 
HETATM   16  C14 UNL     1      23.796  -1.369  55.495  1.00  0.00     0.048 C 
HETATM   17  C15 UNL     1      21.531  -1.173  54.569  1.00  0.00     0.009 A 
HETATM   18  C16 UNL     1      20.639  -0.708  53.608  1.00  0.00     0.037 A 
HETATM   19  C17 UNL     1      21.156   0.030  52.598  1.00  0.00     0.073 A 
BRANCH  19  20
HETATM   20  O2  UNL     1      20.131   0.418  51.712  1.00  0.00    -0.360 OA
HETATM   21  H23 UNL     1      19.196   0.422  52.147  1.00  0.00     0.217 HD
ENDBRANCH  19  20
ENDBRANCH  12  13
ENDBRANCH   1  12
TORSDOF 10
ENDMDL
MODEL 7
REMARK VINA RESULT:      -6.0      1.770      5.170
REMARK  10 active torsions:
REMARK  status: ('A' for Active; 'I' for Inactive)
REMARK    1  A    between atoms: C2_2  and  C3_3 
REMARK    2  A    between atoms: C3_3  and  C5_5 
REMARK    3  A    between atoms: C5_5  and  C6_6 
REMARK    4  A    between atoms: C6_6  and  C7_7 
REMARK    5  A    between atoms: C7_7  and  C8_8 
REMARK    6  A    between atoms: C8_8  and  N1_9 
REMARK    7  A    between atoms: N1_9  and  C9_10 
REMARK    8  A    between atoms: N1_9  and  C10_12 
REMARK    9  A    between atoms: C10_12  and  C11_13 
REMARK   10  A    between atoms: C17_19  and  O2_20 
ROOT
HETATM    1  N1  UNL     1      24.391   2.221  51.777  1.00  0.00    -0.365 N 
ENDROOT
BRANCH   1   2
HETATM    2  C8  UNL     1      25.798   2.098  51.918  1.00  0.00     0.128 C 
BRANCH   2   3
HETATM    3  C7  UNL     1      26.211   2.203  53.364  1.00  0.00     0.047 C 
BRANCH   3   4
HETATM    4  C6  UNL     1      27.666   2.190  53.597  1.00  0.00    -0.025 C 
BRANCH   4   5
HETATM    5  C5  UNL     1      28.665   1.350  53.543  1.00  0.00     0.002 C 
BRANCH   5   6
HETATM    6  C3  UNL     1      28.840  -0.083  53.444  1.00  0.00    -0.066 C 
HETATM    7  C4  UNL     1      29.913  -1.068  53.727  1.00  0.00     0.048 C 
BRANCH   6   8
HETATM    8  C2  UNL     1      27.916  -0.920  53.035  1.00  0.00    -0.024 C 
HETATM    9  C1  UNL     1      26.659  -1.539  52.640  1.00  0.00     0.036 C 
ENDBRANCH   6   8
ENDBRANCH   5   6
ENDBRANCH   4   5
ENDBRANCH   3   4
ENDBRANCH   2   3
ENDBRANCH   1   2
BRANCH   1  10
HETATM   10  C9  UNL     1      23.929   3.533  52.191  1.00  0.00     0.472 C 
HETATM   11  O1  UNL     1      23.645   4.592  52.802  1.00  0.00    -0.392 OA
ENDBRANCH   1  10
BRANCH   1  12
HETATM   12  C10 UNL     1      23.285   1.412  51.327  1.00  0.00     0.165 C 
BRANCH  12  13
HETATM   13  C11 UNL     1      22.677   0.756  52.512  1.00  0.00    -0.007 A 
HETATM   14  C12 UNL     1      23.290  -0.097  53.397  1.00  0.00     0.018 A 
HETATM   15  C13 UNL     1      22.612  -0.607  54.476  1.00  0.00    -0.061 A 
HETATM   16  C14 UNL     1      23.258  -1.527  55.455  1.00  0.00     0.048 C 
HETATM   17  C15 UNL     1      21.273  -0.285  54.722  1.00  0.00     0.009 A 
HETATM   18  C16 UNL     1      20.625   0.576  53.842  1.00  0.00     0.037 A 
HETATM   19  C17 UNL     1      21.350   1.045  52.799  1.00  0.00     0.073 A 
BRANCH  19  20
HETATM   20  O2  UNL     1      20.554   1.894  52.004  1.00  0.00    -0.360 OA
HETATM   21  H23 UNL     1      19.863   2.433  52.547  1.00  0.00     0.217 HD
ENDBRANCH  19  20
ENDBRANCH  12  13
ENDBRANCH   1  12
TORSDOF 10
ENDMDL
MODEL 8
REMARK VINA RESULT:      -5.9      1.805      2.924
REMARK  10 active torsions:
REMARK  status: ('A' for Active; 'I' for Inactive)
REMARK    1  A    between atoms: C2_2  and  C3_3 
REMARK    2  A    between atoms: C3_3  and  C5_5 
REMARK    3  A    between atoms: C5_5  and  C6_6 
REMARK    4  A    between atoms: C6_6  and  C7_7 
REMARK    5  A    between atoms: C7_7  and  C8_8 
REMARK    6  A    between atoms: C8_8  and  N1_9 
REMARK    7  A    between atoms: N1_9  and  C9_10 
REMARK    8  A    between atoms: N1_9  and  C10_12 
REMARK    9  A    between atoms: C10_12  and  C11_13 
REMARK   10  A    between atoms: C17_19  and  O2_20 
ROOT
HETATM    1  N1  UNL     1      25.668   1.841  52.609  1.00  0.00    -0.365 N 
ENDROOT
BRANCH   1   2
HETATM    2  C8  UNL     1      24.383   1.400  52.201  1.00  0.00     0.128 C 
BRANCH   2   3
HETATM    3  C7  UNL     1      23.944   0.194  52.991  1.00  0.00     0.047 C 
BRANCH   3   4
HETATM    4  C6  UNL     1      22.507   0.149  53.310  1.00  0.00    -0.025 C 
BRANCH   4   5
HETATM    5  C5  UNL     1      21.387   0.675  52.890  1.00  0.00     0.002 C 
BRANCH   5   6
HETATM    6  C3  UNL     1      20.562   0.601  51.704  1.00  0.00    -0.066 C 
HETATM    7  C4  UNL     1      19.171   0.207  51.372  1.00  0.00     0.048 C 
BRANCH   6   8
HETATM    8  C2  UNL     1      20.953   0.948  50.501  1.00  0.00    -0.024 C 
HETATM    9  C1  UNL     1      21.478   0.953  49.143  1.00  0.00     0.036 C 
ENDBRANCH   6   8
ENDBRANCH   5   6
ENDBRANCH   4   5
ENDBRANCH   3   4
ENDBRANCH   2   3
ENDBRANCH   1   2
BRANCH   1  10
HETATM   10  C9  UNL     1      26.391   2.461  51.513  1.00  0.00     0.472 C 
HETATM   11  O1  UNL     1      26.844   2.831  50.402  1.00  0.00    -0.392 OA
ENDBRANCH   1  10
BRANCH   1  12
HETATM   12  C10 UNL     1      26.462   1.859  53.814  1.00  0.00     0.165 C 
BRANCH  12  13
HETATM   13  C11 UNL     1      27.528   0.834  53.682  1.00  0.00    -0.007 A 
HETATM   14  C12 UNL     1      27.371  -0.496  53.378  1.00  0.00     0.018 A 
HETATM   15  C13 UNL     1      28.455  -1.328  53.254  1.00  0.00    -0.061 A 
HETATM   16  C14 UNL     1      28.310  -2.774  52.915  1.00  0.00     0.048 C 
HETATM   17  C15 UNL     1      29.763  -0.864  53.433  1.00  0.00     0.009 A 
HETATM   18  C16 UNL     1      29.954   0.478  53.743  1.00  0.00     0.037 A 
HETATM   19  C17 UNL     1      28.844   1.246  53.850  1.00  0.00     0.073 A 
BRANCH  19  20
HETATM   20  O2  UNL     1      29.204   2.570  54.172  1.00  0.00    -0.360 OA
HETATM   21  H23 UNL     1      28.400   3.161  54.431  1.00  0.00     0.217 HD
ENDBRANCH  19  20
ENDBRANCH  12  13
ENDBRANCH   1  12
TORSDOF 10
ENDMDL
MODEL 9
REMARK VINA RESULT:      -5.7      2.624      5.462
REMARK  10 active torsions:
REMARK  status: ('A' for Active; 'I' for Inactive)
REMARK    1  A    between atoms: C2_2  and  C3_3 
REMARK    2  A    between atoms: C3_3  and  C5_5 
REMARK    3  A    between atoms: C5_5  and  C6_6 
REMARK    4  A    between atoms: C6_6  and  C7_7 
REMARK    5  A    between atoms: C7_7  and  C8_8 
REMARK    6  A    between atoms: C8_8  and  N1_9 
REMARK    7  A    between atoms: N1_9  and  C9_10 
REMARK    8  A    between atoms: N1_9  and  C10_12 
REMARK    9  A    between atoms: C10_12  and  C11_13 
REMARK   10  A    between atoms: C17_19  and  O2_20 
ROOT
HETATM    1  N1  UNL     1      25.385   1.654  52.393  1.00  0.00    -0.365 N 
ENDROOT
BRANCH   1   2
HETATM    2  C8  UNL     1      25.913   2.326  51.261  1.00  0.00     0.128 C 
BRANCH   2   3
HETATM    3  C7  UNL     1      25.098   3.549  50.925  1.00  0.00     0.047 C 
BRANCH   3   4
HETATM    4  C6  UNL     1      25.409   4.165  49.623  1.00  0.00    -0.025 C 
BRANCH   4   5
HETATM    5  C5  UNL     1      25.451   5.353  49.080  1.00  0.00     0.002 C 
BRANCH   5   6
HETATM    6  C3  UNL     1      26.443   6.193  48.447  1.00  0.00    -0.066 C 
HETATM    7  C4  UNL     1      26.459   7.451  47.660  1.00  0.00     0.048 C 
BRANCH   6   8
HETATM    8  C2  UNL     1      27.736   5.970  48.474  1.00  0.00    -0.024 C 
HETATM    9  C1  UNL     1      29.075   5.447  48.241  1.00  0.00     0.036 C 
ENDBRANCH   6   8
ENDBRANCH   5   6
ENDBRANCH   4   5
ENDBRANCH   3   4
ENDBRANCH   2   3
ENDBRANCH   1   2
BRANCH   1  10
HETATM   10  C9  UNL     1      24.060   1.125  52.127  1.00  0.00     0.472 C 
HETATM   11  O1  UNL     1      22.861   0.936  51.805  1.00  0.00    -0.392 OA
ENDBRANCH   1  10
BRANCH   1  12
HETATM   12  C10 UNL     1      25.797   1.335  53.738  1.00  0.00     0.165 C 
BRANCH  12  13
HETATM   13  C11 UNL     1      27.107   0.639  53.670  1.00  0.00    -0.007 A 
HETATM   14  C12 UNL     1      27.330  -0.693  53.419  1.00  0.00     0.018 A 
HETATM   15  C13 UNL     1      28.603  -1.199  53.351  1.00  0.00    -0.061 A 
HETATM   16  C14 UNL     1      28.870  -2.639  53.070  1.00  0.00     0.048 C 
HETATM   17  C15 UNL     1      29.728  -0.387  53.535  1.00  0.00     0.009 A 
HETATM   18  C16 UNL     1      29.534   0.966  53.791  1.00  0.00     0.037 A 
HETATM   19  C17 UNL     1      28.254   1.402  53.845  1.00  0.00     0.073 A 
BRANCH  19  20
HETATM   20  O2  UNL     1      28.228   2.785  54.117  1.00  0.00    -0.360 OA
HETATM   21  H23 UNL     1      28.712   3.351  53.404  1.00  0.00     0.217 HD
ENDBRANCH  19  20
ENDBRANCH  12  13
ENDBRANCH   1  12
TORSDOF 10
ENDMDL
