MODEL 1
REMARK VINA RESULT:      -7.4      0.000      0.000
REMARK  5 active torsions:
REMARK  status: ('A' for Active; 'I' for Inactive)
REMARK    1  A    between atoms: C5_5  and  C6_6 
REMARK    2  A    between atoms: C11_12  and  O1_13 
REMARK    3  A    between atoms: C14_17  and  O2_18 
REMARK    4  A    between atoms: O2_18  and  C15_19 
REMARK    5  A    between atoms: C15_19  and  N2_20 
ROOT
HETATM    1  C1  UNL     1      20.993  -1.517  54.280  1.00  0.00     0.048 C 
HETATM    2  C2  UNL     1      21.553  -0.564  53.259  1.00  0.00    -0.037 A 
HETATM    3  C3  UNL     1      22.776  -0.067  53.074  1.00  0.00    -0.003 A 
HETATM    4  C4  UNL     1      24.190   0.113  53.368  1.00  0.00     0.023 A 
HETATM    5  C5  UNL     1      24.998   0.889  52.667  1.00  0.00    -0.025 A 
HETATM    6  C12 UNL     1      24.442   1.614  51.527  1.00  0.00     0.188 A 
HETATM    7  N1  UNL     1      23.059   1.396  51.294  1.00  0.00    -0.286 NA
HETATM    8  C13 UNL     1      22.232   0.674  51.916  1.00  0.00     0.072 A 
HETATM    9  C14 UNL     1      20.874   0.119  52.127  1.00  0.00     0.205 A 
ENDROOT
BRANCH   5  10
HETATM   10  C6  UNL     1      26.387   1.014  53.023  1.00  0.00     0.006 A 
HETATM   11  C7  UNL     1      27.028   2.190  53.339  1.00  0.00     0.015 A 
HETATM   12  C8  UNL     1      28.359   2.312  53.680  1.00  0.00     0.002 A 
HETATM   13  C9  UNL     1      29.134   1.184  53.715  1.00  0.00     0.022 A 
HETATM   14  C10 UNL     1      28.555  -0.027  53.407  1.00  0.00     0.044 A 
HETATM   15 BR1  UNL     1      29.690  -1.558  53.474  1.00  0.00    -0.048 Br
HETATM   16  C11 UNL     1      27.218  -0.086  53.074  1.00  0.00     0.093 A 
BRANCH  16  17
HETATM   17  O1  UNL     1      26.779  -1.370  52.792  1.00  0.00    -0.358 OA
HETATM   18  H8  UNL     1      26.834  -1.675  51.826  1.00  0.00     0.217 HD
ENDBRANCH  16  17
ENDBRANCH   5  10
BRANCH   9  19
HETATM   19  O2  UNL     1      19.938   1.033  52.607  1.00  0.00    -0.347 OA
BRANCH  19  20
HETATM   20  C15 UNL     1      18.807   1.076  51.788  1.00  0.00     0.435 C 
BRANCH  20  21
HETATM   21  N2  UNL     1      18.311  -0.279  51.663  1.00  0.00     0.101 N 
HETATM   22  H14 UNL     1      19.007  -0.991  51.990  1.00  0.00     0.315 HD
HETATM   23  H15 UNL     1      18.110  -0.466  50.659  1.00  0.00     0.315 HD
ENDBRANCH  20  21
ENDBRANCH  19  20
ENDBRANCH   9  19
TORSDOF 5
ENDMDL
MODEL 2
REMARK VINA RESULT:      -7.2      4.375      6.818
REMARK  5 active torsions:
REMARK  status: ('A' for Active; 'I' for Inactive)
REMARK    1  A    between atoms: C5_5  and  C6_6 
REMARK    2  A    between atoms: C11_12  and  O1_13 
REMARK    3  A    between atoms: C14_17  and  O2_18 
REMARK    4  A    between atoms: O2_18  and  C15_19 
REMARK    5  A    between atoms: C15_19  and  N2_20 
ROOT
HETATM    1  C1  UNL     1      24.379  -0.877  54.126  1.00  0.00     0.048 C 
HETATM    2  C2  UNL     1      25.358  -0.056  53.332  1.00  0.00    -0.037 A 
HETATM    3  C3  UNL     1      25.194   0.932  52.453  1.00  0.00    -0.003 A 
HETATM    4  C4  UNL     1      24.429   1.873  51.648  1.00  0.00     0.023 A 
HETATM    5  C5  UNL     1      24.972   2.754  50.826  1.00  0.00    -0.025 A 
HETATM    6  C12 UNL     1      26.429   2.788  50.714  1.00  0.00     0.188 A 
HETATM    7  N1  UNL     1      27.115   1.845  51.525  1.00  0.00    -0.286 NA
HETATM    8  C13 UNL     1      26.666   0.982  52.327  1.00  0.00     0.072 A 
HETATM    9  C14 UNL     1      26.843  -0.118  53.305  1.00  0.00     0.205 A 
ENDROOT
BRANCH   5  10
HETATM   10  C6  UNL     1      24.146   3.653  50.063  1.00  0.00     0.006 A 
HETATM   11  C7  UNL     1      23.484   3.335  48.899  1.00  0.00     0.015 A 
HETATM   12  C8  UNL     1      22.692   4.195  48.167  1.00  0.00     0.002 A 
HETATM   13  C9  UNL     1      22.533   5.480  48.610  1.00  0.00     0.022 A 
HETATM   14  C10 UNL     1      23.171   5.865  49.769  1.00  0.00     0.044 A 
HETATM   15 BR1  UNL     1      22.908   7.668  50.331  1.00  0.00    -0.048 Br
HETATM   16  C11 UNL     1      23.950   4.960  50.458  1.00  0.00     0.093 A 
BRANCH  16  17
HETATM   17  O1  UNL     1      24.524   5.491  51.603  1.00  0.00    -0.358 OA
HETATM   18  H8  UNL     1      24.042   5.329  52.480  1.00  0.00     0.217 HD
ENDBRANCH  16  17
ENDBRANCH   5  10
BRANCH   9  19
HETATM   19  O2  UNL     1      27.265  -1.325  52.755  1.00  0.00    -0.347 OA
BRANCH  19  20
HETATM   20  C15 UNL     1      28.529  -1.684  53.231  1.00  0.00     0.435 C 
BRANCH  20  21
HETATM   21  N2  UNL     1      28.625  -3.127  53.161  1.00  0.00     0.101 N 
HETATM   22  H14 UNL     1      28.164  -3.599  53.976  1.00  0.00     0.315 HD
HETATM   23  H15 UNL     1      29.631  -3.392  53.164  1.00  0.00     0.315 HD
ENDBRANCH  20  21
ENDBRANCH  19  20
ENDBRANCH   9  19
TORSDOF 5
ENDMDL
MODEL 3
REMARK VINA RESULT:      -7.2      3.978      5.025
REMARK  5 active torsions:
REMARK  status: ('A' for Active; 'I' for Inactive)
REMARK    1  A    between atoms: C5_5  and  C6_6 
REMARK    2  A    between atoms: C11_12  and  O1_13 
REMARK    3  A    between atoms: C14_17  and  O2_18 
REMARK    4  A    between atoms: O2_18  and  C15_19 
REMARK    5  A    between atoms: C15_19  and  N2_20 
ROOT
HETATM    1  C1  UNL     1      25.542  -0.511  54.413  1.00  0.00     0.048 C 
HETATM    2  C2  UNL     1      24.572   0.029  53.398  1.00  0.00    -0.037 A 
HETATM    3  C3  UNL     1      24.667   1.010  52.501  1.00  0.00    -0.003 A 
HETATM    4  C4  UNL     1      25.329   2.097  51.793  1.00  0.00     0.023 A 
HETATM    5  C5  UNL     1      24.765   2.801  50.827  1.00  0.00    -0.025 A 
HETATM    6  C12 UNL     1      23.394   2.474  50.444  1.00  0.00     0.188 A 
HETATM    7  N1  UNL     1      22.806   1.406  51.173  1.00  0.00    -0.286 NA
HETATM    8  C13 UNL     1      23.280   0.694  52.099  1.00  0.00     0.072 A 
HETATM    9  C14 UNL     1      23.179  -0.396  53.099  1.00  0.00     0.205 A 
ENDROOT
BRANCH   5  10
HETATM   10  C6  UNL     1      25.488   3.861  50.174  1.00  0.00     0.006 A 
HETATM   11  C7  UNL     1      26.594   3.697  49.372  1.00  0.00     0.015 A 
HETATM   12  C8  UNL     1      27.287   4.711  48.746  1.00  0.00     0.002 A 
HETATM   13  C9  UNL     1      26.864   6.001  48.918  1.00  0.00     0.022 A 
HETATM   14  C10 UNL     1      25.762   6.236  49.711  1.00  0.00     0.044 A 
HETATM   15 BR1  UNL     1      25.225   8.055  49.910  1.00  0.00    -0.048 Br
HETATM   16  C11 UNL     1      25.109   5.180  50.311  1.00  0.00     0.093 A 
BRANCH  16  17
HETATM   17  O1  UNL     1      24.021   5.572  51.076  1.00  0.00    -0.358 OA
HETATM   18  H8  UNL     1      24.163   6.340  51.722  1.00  0.00     0.217 HD
ENDBRANCH  16  17
ENDBRANCH   5  10
BRANCH   9  19
HETATM   19  O2  UNL     1      22.348  -0.120  54.181  1.00  0.00    -0.347 OA
BRANCH  19  20
HETATM   20  C15 UNL     1      21.616  -1.249  54.558  1.00  0.00     0.435 C 
BRANCH  20  21
HETATM   21  N2  UNL     1      20.240  -1.023  54.171  1.00  0.00     0.101 N 
HETATM   22  H14 UNL     1      19.559  -1.383  54.882  1.00  0.00     0.315 HD
HETATM   23  H15 UNL     1      20.062  -1.522  53.275  1.00  0.00     0.315 HD
ENDBRANCH  20  21
ENDBRANCH  19  20
ENDBRANCH   9  19
TORSDOF 5
ENDMDL
MODEL 4
REMARK VINA RESULT:      -7.1      3.591      7.445
REMARK  5 active torsions:
REMARK  status: ('A' for Active; 'I' for Inactive)
REMARK    1  A    between atoms: C5_5  and  C6_6 
REMARK    2  A    between atoms: C11_12  and  O1_13 
REMARK    3  A    between atoms: C14_17  and  O2_18 
REMARK    4  A    between atoms: O2_18  and  C15_19 
REMARK    5  A    between atoms: C15_19  and  N2_20 
ROOT
HETATM    1  C1  UNL     1      26.829   1.009  51.648  1.00  0.00     0.048 C 
HETATM    2  C2  UNL     1      26.260   0.324  52.861  1.00  0.00    -0.037 A 
HETATM    3  C3  UNL     1      25.017  -0.020  53.194  1.00  0.00    -0.003 A 
HETATM    4  C4  UNL     1      23.578  -0.130  53.005  1.00  0.00     0.023 A 
HETATM    5  C5  UNL     1      22.756  -0.684  53.880  1.00  0.00    -0.025 A 
HETATM    6  C12 UNL     1      23.323  -1.219  55.116  1.00  0.00     0.188 A 
HETATM    7  N1  UNL     1      24.731  -1.080  55.239  1.00  0.00    -0.286 NA
HETATM    8  C13 UNL     1      25.571  -0.567  54.451  1.00  0.00     0.072 A 
HETATM    9  C14 UNL     1      26.952  -0.182  54.074  1.00  0.00     0.205 A 
ENDROOT
BRANCH   5  10
HETATM   10  C6  UNL     1      21.343  -0.754  53.618  1.00  0.00     0.006 A 
HETATM   11  C7  UNL     1      20.489  -1.722  54.097  1.00  0.00     0.015 A 
HETATM   12  C8  UNL     1      19.135  -1.792  53.847  1.00  0.00     0.002 A 
HETATM   13  C9  UNL     1      18.562  -0.831  53.058  1.00  0.00     0.022 A 
HETATM   14  C10 UNL     1      19.360   0.167  52.544  1.00  0.00     0.044 A 
HETATM   15 BR1  UNL     1      18.500   1.473  51.453  1.00  0.00    -0.048 Br
HETATM   16  C11 UNL     1      20.709   0.184  52.830  1.00  0.00     0.093 A 
BRANCH  16  17
HETATM   17  O1  UNL     1      21.380   1.246  52.245  1.00  0.00    -0.358 OA
HETATM   18  H8  UNL     1      22.390   1.173  52.173  1.00  0.00     0.217 HD
ENDBRANCH  16  17
ENDBRANCH   5  10
BRANCH   9  19
HETATM   19  O2  UNL     1      27.482   0.879  54.805  1.00  0.00    -0.347 OA
BRANCH  19  20
HETATM   20  C15 UNL     1      28.877   0.816  54.850  1.00  0.00     0.435 C 
BRANCH  20  21
HETATM   21  N2  UNL     1      29.382   2.112  54.451  1.00  0.00     0.101 N 
HETATM   22  H14 UNL     1      29.627   2.717  55.271  1.00  0.00     0.315 HD
HETATM   23  H15 UNL     1      28.644   2.600  53.902  1.00  0.00     0.315 HD
ENDBRANCH  20  21
ENDBRANCH  19  20
ENDBRANCH   9  19
TORSDOF 5
ENDMDL
MODEL 5
REMARK VINA RESULT:      -7.1      1.932      2.225
REMARK  5 active torsions:
REMARK  status: ('A' for Active; 'I' for Inactive)
REMARK    1  A    between atoms: C5_5  and  C6_6 
REMARK    2  A    between atoms: C11_12  and  O1_13 
REMARK    3  A    between atoms: C14_17  and  O2_18 
REMARK    4  A    between atoms: O2_18  and  C15_19 
REMARK    5  A    between atoms: C15_19  and  N2_20 
ROOT
HETATM    1  C1  UNL     1      20.703  -0.125  54.379  1.00  0.00     0.048 C 
HETATM    2  C2  UNL     1      21.548   0.568  53.345  1.00  0.00    -0.037 A 
HETATM    3  C3  UNL     1      22.863   0.594  53.133  1.00  0.00    -0.003 A 
HETATM    4  C4  UNL     1      24.253   0.253  53.398  1.00  0.00     0.023 A 
HETATM    5  C5  UNL     1      25.272   0.690  52.679  1.00  0.00    -0.025 A 
HETATM    6  C12 UNL     1      24.991   1.572  51.549  1.00  0.00     0.188 A 
HETATM    7  N1  UNL     1      23.617   1.866  51.345  1.00  0.00    -0.286 NA
HETATM    8  C13 UNL     1      22.599   1.487  51.985  1.00  0.00     0.072 A 
HETATM    9  C14 UNL     1      21.136   1.456  52.226  1.00  0.00     0.205 A 
ENDROOT
BRANCH   5  10
HETATM   10  C6  UNL     1      26.620   0.306  53.006  1.00  0.00     0.006 A 
HETATM   11  C7  UNL     1      27.177  -0.930  52.770  1.00  0.00     0.015 A 
HETATM   12  C8  UNL     1      28.468  -1.300  53.082  1.00  0.00     0.002 A 
HETATM   13  C9  UNL     1      29.290  -0.382  53.678  1.00  0.00     0.022 A 
HETATM   14  C10 UNL     1      28.795   0.876  53.944  1.00  0.00     0.044 A 
HETATM   15 BR1  UNL     1      29.989   2.107  54.775  1.00  0.00    -0.048 Br
HETATM   16  C11 UNL     1      27.494   1.187  53.608  1.00  0.00     0.093 A 
BRANCH  16  17
HETATM   17  O1  UNL     1      27.139   2.487  53.935  1.00  0.00    -0.358 OA
HETATM   18  H8  UNL     1      27.216   3.185  53.203  1.00  0.00     0.217 HD
ENDBRANCH  16  17
ENDBRANCH   5  10
BRANCH   9  19
HETATM   19  O2  UNL     1      20.601   2.641  52.722  1.00  0.00    -0.347 OA
BRANCH  19  20
HETATM   20  C15 UNL     1      19.514   3.066  51.955  1.00  0.00     0.435 C 
BRANCH  20  21
HETATM   21  N2  UNL     1      19.965   4.173  51.138  1.00  0.00     0.101 N 
HETATM   22  H14 UNL     1      19.590   4.127  50.161  1.00  0.00     0.315 HD
HETATM   23  H15 UNL     1      21.004   4.143  51.085  1.00  0.00     0.315 HD
ENDBRANCH  20  21
ENDBRANCH  19  20
ENDBRANCH   9  19
TORSDOF 5
ENDMDL
MODEL 6
REMARK VINA RESULT:      -6.7      7.606      9.044
REMARK  5 active torsions:
REMARK  status: ('A' for Active; 'I' for Inactive)
REMARK    1  A    between atoms: C5_5  and  C6_6 
REMARK    2  A    between atoms: C11_12  and  O1_13 
REMARK    3  A    between atoms: C14_17  and  O2_18 
REMARK    4  A    between atoms: O2_18  and  C15_19 
REMARK    5  A    between atoms: C15_19  and  N2_20 
ROOT
HETATM    1  C1  UNL     1      25.526   4.529  49.391  1.00  0.00     0.048 C 
HETATM    2  C2  UNL     1      26.433   5.644  48.949  1.00  0.00    -0.037 A 
HETATM    3  C3  UNL     1      27.713   5.665  48.580  1.00  0.00    -0.003 A 
HETATM    4  C4  UNL     1      29.020   5.087  48.303  1.00  0.00     0.023 A 
HETATM    5  C5  UNL     1      30.065   5.784  47.890  1.00  0.00    -0.025 A 
HETATM    6  C12 UNL     1      29.902   7.223  47.700  1.00  0.00     0.188 A 
HETATM    7  N1  UNL     1      28.605   7.724  47.988  1.00  0.00    -0.286 NA
HETATM    8  C13 UNL     1      27.569   7.123  48.382  1.00  0.00     0.072 A 
HETATM    9  C14 UNL     1      26.145   7.094  48.793  1.00  0.00     0.205 A 
ENDROOT
BRANCH   5  10
HETATM   10  C6  UNL     1      31.325   5.137  47.637  1.00  0.00     0.006 A 
HETATM   11  C7  UNL     1      31.529   4.103  46.751  1.00  0.00     0.015 A 
HETATM   12  C8  UNL     1      32.736   3.482  46.507  1.00  0.00     0.002 A 
HETATM   13  C9  UNL     1      33.843   3.908  47.189  1.00  0.00     0.022 A 
HETATM   14  C10 UNL     1      33.710   4.939  48.093  1.00  0.00     0.044 A 
HETATM   15 BR1  UNL     1      35.291   5.483  49.008  1.00  0.00    -0.048 Br
HETATM   16  C11 UNL     1      32.476   5.521  48.294  1.00  0.00     0.093 A 
BRANCH  16  17
HETATM   17  O1  UNL     1      32.498   6.544  49.230  1.00  0.00    -0.358 OA
HETATM   18  H8  UNL     1      32.489   6.275  50.208  1.00  0.00     0.217 HD
ENDBRANCH  16  17
ENDBRANCH   5  10
BRANCH   9  19
HETATM   19  O2  UNL     1      25.885   7.670  50.034  1.00  0.00    -0.347 OA
BRANCH  19  20
HETATM   20  C15 UNL     1      24.581   8.168  50.098  1.00  0.00     0.435 C 
BRANCH  20  21
HETATM   21  N2  UNL     1      24.037   7.794  51.386  1.00  0.00     0.101 N 
HETATM   22  H14 UNL     1      23.528   6.878  51.355  1.00  0.00     0.315 HD
HETATM   23  H15 UNL     1      23.361   8.526  51.685  1.00  0.00     0.315 HD
ENDBRANCH  20  21
ENDBRANCH  19  20
ENDBRANCH   9  19
TORSDOF 5
ENDMDL
MODEL 7
REMARK VINA RESULT:      -6.7      3.490      7.338
REMARK  5 active torsions:
REMARK  status: ('A' for Active; 'I' for Inactive)
REMARK    1  A    between atoms: C5_5  and  C6_6 
REMARK    2  A    between atoms: C11_12  and  O1_13 
REMARK    3  A    between atoms: C14_17  and  O2_18 
REMARK    4  A    between atoms: O2_18  and  C15_19 
REMARK    5  A    between atoms: C15_19  and  N2_20 
ROOT
HETATM    1  C1  UNL     1      26.792   2.733  51.358  1.00  0.00     0.048 C 
HETATM    2  C2  UNL     1      26.188   1.612  52.159  1.00  0.00    -0.037 A 
HETATM    3  C3  UNL     1      24.942   1.150  52.254  1.00  0.00    -0.003 A 
HETATM    4  C4  UNL     1      23.518   1.110  51.952  1.00  0.00     0.023 A 
HETATM    5  C5  UNL     1      22.674   0.242  52.483  1.00  0.00    -0.025 A 
HETATM    6  C12 UNL     1      23.196  -0.737  53.432  1.00  0.00     0.188 A 
HETATM    7  N1  UNL     1      24.591  -0.645  53.684  1.00  0.00    -0.286 NA
HETATM    8  C13 UNL     1      25.452   0.150  53.217  1.00  0.00     0.072 A 
HETATM    9  C14 UNL     1      26.836   0.669  53.108  1.00  0.00     0.205 A 
ENDROOT
BRANCH   5  10
HETATM   10  C6  UNL     1      21.278   0.268  52.132  1.00  0.00     0.006 A 
HETATM   11  C7  UNL     1      20.721   1.027  51.128  1.00  0.00     0.015 A 
HETATM   12  C8  UNL     1      19.384   1.052  50.791  1.00  0.00     0.002 A 
HETATM   13  C9  UNL     1      18.513   0.267  51.495  1.00  0.00     0.022 A 
HETATM   14  C10 UNL     1      19.005  -0.518  52.515  1.00  0.00     0.044 A 
HETATM   15 BR1  UNL     1      17.739  -1.588  53.457  1.00  0.00    -0.048 Br
HETATM   16  C11 UNL     1      20.353  -0.501  52.806  1.00  0.00     0.093 A 
BRANCH  16  17
HETATM   17  O1  UNL     1      20.698  -1.341  53.854  1.00  0.00    -0.358 OA
HETATM   18  H8  UNL     1      20.788  -2.329  53.644  1.00  0.00     0.217 HD
ENDBRANCH  16  17
ENDBRANCH   5  10
BRANCH   9  19
HETATM   19  O2  UNL     1      27.293   1.353  54.231  1.00  0.00    -0.347 OA
BRANCH  19  20
HETATM   20  C15 UNL     1      28.577   0.937  54.589  1.00  0.00     0.435 C 
BRANCH  20  21
HETATM   21  N2  UNL     1      29.429   2.108  54.583  1.00  0.00     0.101 N 
HETATM   22  H14 UNL     1      28.891   2.994  54.432  1.00  0.00     0.315 HD
HETATM   23  H15 UNL     1      30.115   2.013  53.805  1.00  0.00     0.315 HD
ENDBRANCH  20  21
ENDBRANCH  19  20
ENDBRANCH   9  19
TORSDOF 5
ENDMDL
MODEL 8
REMARK VINA RESULT:      -6.7      6.189      8.925
REMARK  5 active torsions:
REMARK  status: ('A' for Active; 'I' for Inactive)
REMARK    1  A    between atoms: C5_5  and  C6_6 
REMARK    2  A    between atoms: C11_12  and  O1_13 
REMARK    3  A    between atoms: C14_17  and  O2_18 
REMARK    4  A    between atoms: O2_18  and  C15_19 
REMARK    5  A    between atoms: C15_19  and  N2_20 
ROOT
HETATM    1  C1  UNL     1      30.385   5.103  47.820  1.00  0.00     0.048 C 
HETATM    2  C2  UNL     1      29.120   5.845  48.157  1.00  0.00    -0.037 A 
HETATM    3  C3  UNL     1      27.925   5.432  48.577  1.00  0.00    -0.003 A 
HETATM    4  C4  UNL     1      26.932   4.448  48.984  1.00  0.00     0.023 A 
HETATM    5  C5  UNL     1      25.698   4.750  49.351  1.00  0.00    -0.025 A 
HETATM    6  C12 UNL     1      25.303   6.156  49.349  1.00  0.00     0.188 A 
HETATM    7  N1  UNL     1      26.316   7.064  48.942  1.00  0.00    -0.286 NA
HETATM    8  C13 UNL     1      27.505   6.850  48.581  1.00  0.00     0.072 A 
HETATM    9  C14 UNL     1      28.836   7.303  48.113  1.00  0.00     0.205 A 
ENDROOT
BRANCH   5  10
HETATM   10  C6  UNL     1      24.775   3.718  49.741  1.00  0.00     0.006 A 
HETATM   11  C7  UNL     1      23.670   3.320  49.022  1.00  0.00     0.015 A 
HETATM   12  C8  UNL     1      22.784   2.332  49.394  1.00  0.00     0.002 A 
HETATM   13  C9  UNL     1      22.994   1.671  50.574  1.00  0.00     0.022 A 
HETATM   14  C10 UNL     1      24.081   2.020  51.345  1.00  0.00     0.044 A 
HETATM   15 BR1  UNL     1      24.316   1.062  52.976  1.00  0.00    -0.048 Br
HETATM   16  C11 UNL     1      24.933   3.018  50.919  1.00  0.00     0.093 A 
BRANCH  16  17
HETATM   17  O1  UNL     1      25.979   3.256  51.797  1.00  0.00    -0.358 OA
HETATM   18  H8  UNL     1      26.916   3.051  51.466  1.00  0.00     0.217 HD
ENDBRANCH  16  17
ENDBRANCH   5  10
BRANCH   9  19
HETATM   19  O2  UNL     1      28.868   7.761  46.799  1.00  0.00    -0.347 OA
BRANCH  19  20
HETATM   20  C15 UNL     1      29.737   8.846  46.661  1.00  0.00     0.435 C 
BRANCH  20  21
HETATM   21  N2  UNL     1      29.949   9.402  47.981  1.00  0.00     0.101 N 
HETATM   22  H14 UNL     1      29.050   9.569  48.494  1.00  0.00     0.315 HD
HETATM   23  H15 UNL     1      30.435  10.316  47.881  1.00  0.00     0.315 HD
ENDBRANCH  20  21
ENDBRANCH  19  20
ENDBRANCH   9  19
TORSDOF 5
ENDMDL
MODEL 9
REMARK VINA RESULT:      -6.4      5.138      7.784
REMARK  5 active torsions:
REMARK  status: ('A' for Active; 'I' for Inactive)
REMARK    1  A    between atoms: C5_5  and  C6_6 
REMARK    2  A    between atoms: C11_12  and  O1_13 
REMARK    3  A    between atoms: C14_17  and  O2_18 
REMARK    4  A    between atoms: O2_18  and  C15_19 
REMARK    5  A    between atoms: C15_19  and  N2_20 
ROOT
HETATM    1  C1  UNL     1      27.572   5.577  48.477  1.00  0.00     0.048 C 
HETATM    2  C2  UNL     1      26.391   5.896  49.353  1.00  0.00    -0.037 A 
HETATM    3  C3  UNL     1      25.353   5.166  49.757  1.00  0.00    -0.003 A 
HETATM    4  C4  UNL     1      24.535   3.965  49.849  1.00  0.00     0.023 A 
HETATM    5  C5  UNL     1      23.413   3.886  50.543  1.00  0.00    -0.025 A 
HETATM    6  C12 UNL     1      22.961   5.074  51.263  1.00  0.00     0.188 A 
HETATM    7  N1  UNL     1      23.802   6.211  51.132  1.00  0.00    -0.286 NA
HETATM    8  C13 UNL     1      24.879   6.358  50.492  1.00  0.00     0.072 A 
HETATM    9  C14 UNL     1      26.036   7.166  50.039  1.00  0.00     0.205 A 
ENDROOT
BRANCH   5  10
HETATM   10  C6  UNL     1      22.660   2.660  50.584  1.00  0.00     0.006 A 
HETATM   11  C7  UNL     1      21.823   2.203  49.592  1.00  0.00     0.015 A 
HETATM   12  C8  UNL     1      21.101   1.028  49.630  1.00  0.00     0.002 A 
HETATM   13  C9  UNL     1      21.204   0.228  50.735  1.00  0.00     0.022 A 
HETATM   14  C10 UNL     1      22.025   0.628  51.767  1.00  0.00     0.044 A 
HETATM   15 BR1  UNL     1      22.124  -0.531  53.278  1.00  0.00    -0.048 Br
HETATM   16  C11 UNL     1      22.723   1.814  51.671  1.00  0.00     0.093 A 
BRANCH  16  17
HETATM   17  O1  UNL     1      23.505   2.081  52.784  1.00  0.00    -0.358 OA
HETATM   18  H8  UNL     1      24.384   1.580  52.862  1.00  0.00     0.217 HD
ENDBRANCH  16  17
ENDBRANCH   5  10
BRANCH   9  19
HETATM   19  O2  UNL     1      25.729   8.150  49.103  1.00  0.00    -0.347 OA
BRANCH  19  20
HETATM   20  C15 UNL     1      26.313   9.373  49.444  1.00  0.00     0.435 C 
BRANCH  20  21
HETATM   21  N2  UNL     1      27.209   9.130  50.555  1.00  0.00     0.101 N 
HETATM   22  H14 UNL     1      28.085   9.702  50.496  1.00  0.00     0.315 HD
HETATM   23  H15 UNL     1      27.482   8.126  50.547  1.00  0.00     0.315 HD
ENDBRANCH  20  21
ENDBRANCH  19  20
ENDBRANCH   9  19
TORSDOF 5
ENDMDL
