MODEL 1
REMARK VINA RESULT:      -8.5      0.000      0.000
REMARK  4 active torsions:
REMARK  status: ('A' for Active; 'I' for Inactive)
REMARK    1  A    between atoms: O1_2  and  C2_3 
REMARK    2  A    between atoms: C7_11  and  N3_12 
REMARK    3  A    between atoms: N3_12  and  C8_13 
REMARK    4  A    between atoms: C8_13  and  C9_14 
ROOT
HETATM    1  C2  UNL     1      26.700  -1.177  53.065  1.00  0.00     0.083 C 
HETATM    2  C3  UNL     1      25.619  -0.623  53.592  1.00  0.00     0.048 C 
HETATM    3  C4  UNL     1      25.134   0.350  52.838  1.00  0.00     0.100 C 
HETATM    4  O2  UNL     1      23.835   0.792  52.627  1.00  0.00    -0.288 OA
HETATM    5  C5  UNL     1      23.476   2.090  52.290  1.00  0.00     0.202 A 
HETATM    6  N1  UNL     1      22.137   2.227  52.292  1.00  0.00    -0.215 NA
HETATM    7  C6  UNL     1      21.611   3.449  51.979  1.00  0.00     0.238 A 
HETATM    8  N2  UNL     1      22.404   4.488  51.679  1.00  0.00    -0.222 NA
HETATM    9  C7  UNL     1      23.739   4.427  51.656  1.00  0.00     0.156 A 
HETATM   10  C15 UNL     1      24.273   3.198  51.970  1.00  0.00     0.128 A 
HETATM   11  N4  UNL     1      25.693   3.225  51.932  1.00  0.00    -0.379 N 
HETATM   12  C16 UNL     1      26.648   2.190  51.559  1.00  0.00     0.161 C 
HETATM   13  C17 UNL     1      26.346   0.892  52.235  1.00  0.00    -0.003 C 
HETATM   14  C18 UNL     1      27.301  -0.020  52.365  1.00  0.00     0.049 C 
HETATM   15  H13 UNL     1      26.034   4.186  52.239  1.00  0.00     0.160 HD
ENDROOT
BRANCH   9  16
HETATM   16  N3  UNL     1      24.517   5.566  51.316  1.00  0.00    -0.369 N 
HETATM   17  H5  UNL     1      25.081   6.225  51.848  1.00  0.00     0.161 HD
BRANCH  16  18
HETATM   18  C8  UNL     1      24.569   5.918  49.918  1.00  0.00     0.160 C 
BRANCH  18  19
HETATM   19  C9  UNL     1      25.895   5.932  49.313  1.00  0.00    -0.041 A 
HETATM   20  C10 UNL     1      26.375   7.179  48.959  1.00  0.00     0.009 A 
HETATM   21  C11 UNL     1      27.617   7.339  48.375  1.00  0.00     0.001 A 
HETATM   22  C12 UNL     1      28.429   6.231  48.126  1.00  0.00     0.000 A 
HETATM   23  C13 UNL     1      27.933   4.990  48.487  1.00  0.00     0.001 A 
HETATM   24  C14 UNL     1      26.689   4.830  49.071  1.00  0.00     0.009 A 
ENDBRANCH  18  19
ENDBRANCH  16  18
ENDBRANCH   9  16
BRANCH   1  25
HETATM   25  O1  UNL     1      27.235  -2.468  53.087  1.00  0.00    -0.355 OA
HETATM   26  C1  UNL     1      28.601  -2.762  53.070  1.00  0.00     0.210 C 
ENDBRANCH   1  25
TORSDOF 4
ENDMDL
MODEL 2
REMARK VINA RESULT:      -7.9      4.713      7.390
REMARK  4 active torsions:
REMARK  status: ('A' for Active; 'I' for Inactive)
REMARK    1  A    between atoms: O1_2  and  C2_3 
REMARK    2  A    between atoms: C7_11  and  N3_12 
REMARK    3  A    between atoms: N3_12  and  C8_13 
REMARK    4  A    between atoms: C8_13  and  C9_14 
ROOT
HETATM    1  C2  UNL     1      17.746   0.726  51.209  1.00  0.00     0.083 C 
HETATM    2  C3  UNL     1      18.261  -0.316  51.843  1.00  0.00     0.048 C 
HETATM    3  C4  UNL     1      19.415  -0.030  52.424  1.00  0.00     0.100 C 
HETATM    4  O2  UNL     1      20.004  -0.508  53.588  1.00  0.00    -0.288 OA
HETATM    5  C5  UNL     1      21.371  -0.581  53.820  1.00  0.00     0.202 A 
HETATM    6  N1  UNL     1      21.620  -1.215  54.982  1.00  0.00    -0.215 NA
HETATM    7  C6  UNL     1      22.921  -1.374  55.366  1.00  0.00     0.238 A 
HETATM    8  N2  UNL     1      23.928  -0.914  54.609  1.00  0.00    -0.222 NA
HETATM    9  C7  UNL     1      23.758  -0.276  53.446  1.00  0.00     0.156 A 
HETATM   10  C15 UNL     1      22.449  -0.113  53.056  1.00  0.00     0.128 A 
HETATM   11  N4  UNL     1      22.360   0.563  51.809  1.00  0.00    -0.379 N 
HETATM   12  C16 UNL     1      21.354   1.489  51.307  1.00  0.00     0.161 C 
HETATM   13  C17 UNL     1      19.969   0.965  51.513  1.00  0.00    -0.003 C 
HETATM   14  C18 UNL     1      18.971   1.430  50.773  1.00  0.00     0.049 C 
HETATM   15  H13 UNL     1      23.196   0.297  51.206  1.00  0.00     0.160 HD
ENDROOT
BRANCH   9  16
HETATM   16  N3  UNL     1      24.872   0.196  52.702  1.00  0.00    -0.369 N 
HETATM   17  H5  UNL     1      25.100   0.231  51.710  1.00  0.00     0.161 HD
BRANCH  16  18
HETATM   18  C8  UNL     1      25.954   0.777  53.458  1.00  0.00     0.160 C 
BRANCH  18  19
HETATM   19  C9  UNL     1      27.224   0.061  53.406  1.00  0.00    -0.041 A 
HETATM   20  C10 UNL     1      28.340   0.801  53.751  1.00  0.00     0.009 A 
HETATM   21  C11 UNL     1      29.606   0.250  53.745  1.00  0.00     0.001 A 
HETATM   22  C12 UNL     1      29.792  -1.087  53.387  1.00  0.00     0.000 A 
HETATM   23  C13 UNL     1      28.665  -1.813  53.045  1.00  0.00     0.001 A 
HETATM   24  C14 UNL     1      27.398  -1.260  53.050  1.00  0.00     0.009 A 
ENDBRANCH  18  19
ENDBRANCH  16  18
ENDBRANCH   9  16
BRANCH   1  25
HETATM   25  O1  UNL     1      16.440   1.155  50.955  1.00  0.00    -0.355 OA
HETATM   26  C1  UNL     1      16.003   1.688  49.739  1.00  0.00     0.210 C 
ENDBRANCH   1  25
TORSDOF 4
ENDMDL
MODEL 3
REMARK VINA RESULT:      -7.9      3.481      4.613
REMARK  4 active torsions:
REMARK  status: ('A' for Active; 'I' for Inactive)
REMARK    1  A    between atoms: O1_2  and  C2_3 
REMARK    2  A    between atoms: C7_11  and  N3_12 
REMARK    3  A    between atoms: N3_12  and  C8_13 
REMARK    4  A    between atoms: C8_13  and  C9_14 
ROOT
HETATM    1  C2  UNL     1      27.830   0.512  53.821  1.00  0.00     0.083 C 
HETATM    2  C3  UNL     1      26.883   0.221  54.698  1.00  0.00     0.048 C 
HETATM    3  C4  UNL     1      25.715  -0.005  54.120  1.00  0.00     0.100 C 
HETATM    4  O2  UNL     1      24.665  -0.849  54.460  1.00  0.00    -0.288 OA
HETATM    5  C5  UNL     1      23.330  -0.631  54.148  1.00  0.00     0.202 A 
HETATM    6  N1  UNL     1      22.549  -1.558  54.735  1.00  0.00    -0.215 NA
HETATM    7  C6  UNL     1      21.200  -1.490  54.531  1.00  0.00     0.238 A 
HETATM    8  N2  UNL     1      20.662  -0.528  53.768  1.00  0.00    -0.222 NA
HETATM    9  C7  UNL     1      21.372   0.424  53.155  1.00  0.00     0.156 A 
HETATM   10  C15 UNL     1      22.732   0.360  53.357  1.00  0.00     0.128 A 
HETATM   11  N4  UNL     1      23.407   1.411  52.679  1.00  0.00    -0.379 N 
HETATM   12  C16 UNL     1      24.725   1.442  52.060  1.00  0.00     0.161 C 
HETATM   13  C17 UNL     1      25.775   0.888  52.968  1.00  0.00    -0.003 C 
HETATM   14  C18 UNL     1      27.048   1.208  52.776  1.00  0.00     0.049 C 
HETATM   15  H13 UNL     1      22.786   2.276  52.667  1.00  0.00     0.160 HD
ENDROOT
BRANCH   9  16
HETATM   16  N3  UNL     1      20.737   1.406  52.350  1.00  0.00    -0.369 N 
HETATM   17  H5  UNL     1      20.455   2.374  52.499  1.00  0.00     0.161 HD
BRANCH  16  18
HETATM   18  C8  UNL     1      20.393   1.016  51.005  1.00  0.00     0.160 C 
BRANCH  18  19
HETATM   19  C9  UNL     1      21.150   1.664  49.939  1.00  0.00    -0.041 A 
HETATM   20  C10 UNL     1      21.511   2.976  50.178  1.00  0.00     0.009 A 
HETATM   21  C11 UNL     1      22.229   3.711  49.254  1.00  0.00     0.001 A 
HETATM   22  C12 UNL     1      22.612   3.137  48.041  1.00  0.00     0.000 A 
HETATM   23  C13 UNL     1      22.242   1.822  47.817  1.00  0.00     0.001 A 
HETATM   24  C14 UNL     1      21.523   1.088  48.743  1.00  0.00     0.009 A 
ENDBRANCH  18  19
ENDBRANCH  16  18
ENDBRANCH   9  16
BRANCH   1  25
HETATM   25  O1  UNL     1      29.209   0.285  53.773  1.00  0.00    -0.355 OA
HETATM   26  C1  UNL     1      29.803  -0.979  53.703  1.00  0.00     0.210 C 
ENDBRANCH   1  25
TORSDOF 4
ENDMDL
MODEL 4
REMARK VINA RESULT:      -7.7      2.607      6.552
REMARK  4 active torsions:
REMARK  status: ('A' for Active; 'I' for Inactive)
REMARK    1  A    between atoms: O1_2  and  C2_3 
REMARK    2  A    between atoms: C7_11  and  N3_12 
REMARK    3  A    between atoms: N3_12  and  C8_13 
REMARK    4  A    between atoms: C8_13  and  C9_14 
ROOT
HETATM    1  C2  UNL     1      27.501   6.594  48.103  1.00  0.00     0.083 C 
HETATM    2  C3  UNL     1      26.200   6.692  48.330  1.00  0.00     0.048 C 
HETATM    3  C4  UNL     1      25.809   5.936  49.343  1.00  0.00     0.100 C 
HETATM    4  O2  UNL     1      24.804   6.106  50.286  1.00  0.00    -0.288 OA
HETATM    5  C5  UNL     1      24.124   5.078  50.926  1.00  0.00     0.202 A 
HETATM    6  N1  UNL     1      23.120   5.569  51.676  1.00  0.00    -0.215 NA
HETATM    7  C6  UNL     1      22.346   4.689  52.378  1.00  0.00     0.238 A 
HETATM    8  N2  UNL     1      22.576   3.369  52.323  1.00  0.00    -0.222 NA
HETATM    9  C7  UNL     1      23.553   2.809  51.602  1.00  0.00     0.156 A 
HETATM   10  C15 UNL     1      24.335   3.693  50.893  1.00  0.00     0.128 A 
HETATM   11  N4  UNL     1      25.339   3.015  50.150  1.00  0.00    -0.379 N 
HETATM   12  C16 UNL     1      26.693   3.422  49.803  1.00  0.00     0.161 C 
HETATM   13  C17 UNL     1      26.728   4.808  49.245  1.00  0.00    -0.003 C 
HETATM   14  C18 UNL     1      27.756   5.192  48.498  1.00  0.00     0.049 C 
HETATM   15  H13 UNL     1      24.962   2.072  49.831  1.00  0.00     0.160 HD
ENDROOT
BRANCH   9  16
HETATM   16  N3  UNL     1      23.747   1.403  51.601  1.00  0.00    -0.369 N 
HETATM   17  H5  UNL     1      23.747   0.686  50.877  1.00  0.00     0.161 HD
BRANCH  16  18
HETATM   18  C8  UNL     1      24.017   0.787  52.877  1.00  0.00     0.160 C 
BRANCH  18  19
HETATM   19  C9  UNL     1      25.394   0.363  53.102  1.00  0.00    -0.041 A 
HETATM   20  C10 UNL     1      25.993   0.865  54.242  1.00  0.00     0.009 A 
HETATM   21  C11 UNL     1      27.295   0.546  54.578  1.00  0.00     0.001 A 
HETATM   22  C12 UNL     1      28.046  -0.303  53.762  1.00  0.00     0.000 A 
HETATM   23  C13 UNL     1      27.431  -0.796  52.625  1.00  0.00     0.001 A 
HETATM   24  C14 UNL     1      26.129  -0.476  52.289  1.00  0.00     0.009 A 
ENDBRANCH  18  19
ENDBRANCH  16  18
ENDBRANCH   9  16
BRANCH   1  25
HETATM   25  O1  UNL     1      28.470   7.483  47.628  1.00  0.00    -0.355 OA
HETATM   26  C1  UNL     1      29.812   7.155  47.415  1.00  0.00     0.210 C 
ENDBRANCH   1  25
TORSDOF 4
ENDMDL
MODEL 5
REMARK VINA RESULT:      -7.7      4.584      8.143
REMARK  4 active torsions:
REMARK  status: ('A' for Active; 'I' for Inactive)
REMARK    1  A    between atoms: O1_2  and  C2_3 
REMARK    2  A    between atoms: C7_11  and  N3_12 
REMARK    3  A    between atoms: N3_12  and  C8_13 
REMARK    4  A    between atoms: C8_13  and  C9_14 
ROOT
HETATM    1  C2  UNL     1      26.647   0.160  53.234  1.00  0.00     0.083 C 
HETATM    2  C3  UNL     1      25.906   0.760  52.317  1.00  0.00     0.048 C 
HETATM    3  C4  UNL     1      24.661   0.951  52.723  1.00  0.00     0.100 C 
HETATM    4  O2  UNL     1      23.745   1.957  52.445  1.00  0.00    -0.288 OA
HETATM    5  C5  UNL     1      22.365   1.806  52.449  1.00  0.00     0.202 A 
HETATM    6  N1  UNL     1      21.764   2.927  52.007  1.00  0.00    -0.215 NA
HETATM    7  C6  UNL     1      20.400   2.950  51.947  1.00  0.00     0.238 A 
HETATM    8  N2  UNL     1      19.673   1.886  52.318  1.00  0.00    -0.222 NA
HETATM    9  C7  UNL     1      20.197   0.741  52.767  1.00  0.00     0.156 A 
HETATM   10  C15 UNL     1      21.572   0.714  52.829  1.00  0.00     0.128 A 
HETATM   11  N4  UNL     1      22.045  -0.538  53.306  1.00  0.00    -0.379 N 
HETATM   12  C16 UNL     1      23.214  -0.861  54.114  1.00  0.00     0.161 C 
HETATM   13  C17 UNL     1      24.448  -0.206  53.585  1.00  0.00    -0.003 C 
HETATM   14  C18 UNL     1      25.641  -0.694  53.902  1.00  0.00     0.049 C 
HETATM   15  H13 UNL     1      21.388  -1.309  52.978  1.00  0.00     0.160 HD
ENDROOT
BRANCH   9  16
HETATM   16  N3  UNL     1      19.366  -0.342  53.156  1.00  0.00    -0.369 N 
HETATM   17  H5  UNL     1      19.501  -1.170  53.732  1.00  0.00     0.161 HD
BRANCH  16  18
HETATM   18  C8  UNL     1      18.009  -0.323  52.665  1.00  0.00     0.160 C 
BRANCH  18  19
HETATM   19  C9  UNL     1      17.266  -1.571  52.794  1.00  0.00    -0.041 A 
HETATM   20  C10 UNL     1      17.888  -2.561  53.532  1.00  0.00     0.009 A 
HETATM   21  C11 UNL     1      17.298  -3.794  53.735  1.00  0.00     0.001 A 
HETATM   22  C12 UNL     1      16.042  -4.073  53.191  1.00  0.00     0.000 A 
HETATM   23  C13 UNL     1      15.435  -3.071  52.454  1.00  0.00     0.001 A 
HETATM   24  C14 UNL     1      16.026  -1.838  52.252  1.00  0.00     0.009 A 
ENDBRANCH  18  19
ENDBRANCH  16  18
ENDBRANCH   9  16
BRANCH   1  25
HETATM   25  O1  UNL     1      28.001   0.224  53.580  1.00  0.00    -0.355 OA
HETATM   26  C1  UNL     1      28.489   0.172  54.888  1.00  0.00     0.210 C 
ENDBRANCH   1  25
TORSDOF 4
ENDMDL
MODEL 6
REMARK VINA RESULT:      -7.6      3.202      6.731
REMARK  4 active torsions:
REMARK  status: ('A' for Active; 'I' for Inactive)
REMARK    1  A    between atoms: O1_2  and  C2_3 
REMARK    2  A    between atoms: C7_11  and  N3_12 
REMARK    3  A    between atoms: N3_12  and  C8_13 
REMARK    4  A    between atoms: C8_13  and  C9_14 
ROOT
HETATM    1  C2  UNL     1      27.170  -0.814  53.051  1.00  0.00     0.083 C 
HETATM    2  C3  UNL     1      26.813   0.073  52.136  1.00  0.00     0.048 C 
HETATM    3  C4  UNL     1      25.747   0.768  52.498  1.00  0.00     0.100 C 
HETATM    4  O2  UNL     1      25.367   2.078  52.235  1.00  0.00    -0.288 OA
HETATM    5  C5  UNL     1      24.057   2.534  52.173  1.00  0.00     0.202 A 
HETATM    6  N1  UNL     1      24.021   3.816  51.765  1.00  0.00    -0.215 NA
HETATM    7  C6  UNL     1      22.803   4.425  51.649  1.00  0.00     0.238 A 
HETATM    8  N2  UNL     1      21.670   3.765  51.932  1.00  0.00    -0.222 NA
HETATM    9  C7  UNL     1      21.628   2.494  52.342  1.00  0.00     0.156 A 
HETATM   10  C15 UNL     1      22.853   1.877  52.461  1.00  0.00     0.128 A 
HETATM   11  N4  UNL     1      22.715   0.530  52.891  1.00  0.00    -0.379 N 
HETATM   12  C16 UNL     1      23.583  -0.287  53.729  1.00  0.00     0.161 C 
HETATM   13  C17 UNL     1      25.008  -0.210  53.288  1.00  0.00    -0.003 C 
HETATM   14  C18 UNL     1      25.856  -1.172  53.629  1.00  0.00     0.049 C 
HETATM   15  H13 UNL     1      21.813   0.126  52.495  1.00  0.00     0.160 HD
ENDROOT
BRANCH   9  16
HETATM   16  N3  UNL     1      20.391   1.862  52.637  1.00  0.00    -0.369 N 
HETATM   17  H5  UNL     1      19.831   1.754  53.482  1.00  0.00     0.161 HD
BRANCH  16  18
HETATM   18  C8  UNL     1      19.718   1.214  51.538  1.00  0.00     0.160 C 
BRANCH  18  19
HETATM   19  C9  UNL     1      18.713   0.221  51.901  1.00  0.00    -0.041 A 
HETATM   20  C10 UNL     1      19.039  -0.593  52.969  1.00  0.00     0.009 A 
HETATM   21  C11 UNL     1      18.179  -1.577  53.419  1.00  0.00     0.001 A 
HETATM   22  C12 UNL     1      16.945  -1.775  52.797  1.00  0.00     0.000 A 
HETATM   23  C13 UNL     1      16.635  -0.951  51.729  1.00  0.00     0.001 A 
HETATM   24  C14 UNL     1      17.496   0.034  51.279  1.00  0.00     0.009 A 
ENDBRANCH  18  19
ENDBRANCH  16  18
ENDBRANCH   9  16
BRANCH   1  25
HETATM   25  O1  UNL     1      28.397  -1.347  53.457  1.00  0.00    -0.355 OA
HETATM   26  C1  UNL     1      29.535  -0.588  53.746  1.00  0.00     0.210 C 
ENDBRANCH   1  25
TORSDOF 4
ENDMDL
MODEL 7
REMARK VINA RESULT:      -7.4      4.384      7.245
REMARK  4 active torsions:
REMARK  status: ('A' for Active; 'I' for Inactive)
REMARK    1  A    between atoms: O1_2  and  C2_3 
REMARK    2  A    between atoms: C7_11  and  N3_12 
REMARK    3  A    between atoms: N3_12  and  C8_13 
REMARK    4  A    between atoms: C8_13  and  C9_14 
ROOT
HETATM    1  C2  UNL     1      16.726  -1.277  52.563  1.00  0.00     0.083 C 
HETATM    2  C3  UNL     1      17.167  -0.220  51.900  1.00  0.00     0.048 C 
HETATM    3  C4  UNL     1      18.484  -0.223  51.769  1.00  0.00     0.100 C 
HETATM    4  O2  UNL     1      19.311   0.254  50.760  1.00  0.00    -0.288 OA
HETATM    5  C5  UNL     1      20.614   0.699  50.938  1.00  0.00     0.202 A 
HETATM    6  N1  UNL     1      21.095   1.223  49.794  1.00  0.00    -0.215 NA
HETATM    7  C6  UNL     1      22.371   1.710  49.793  1.00  0.00     0.238 A 
HETATM    8  N2  UNL     1      23.129   1.671  50.899  1.00  0.00    -0.222 NA
HETATM    9  C7  UNL     1      22.721   1.166  52.067  1.00  0.00     0.156 A 
HETATM   10  C15 UNL     1      21.435   0.674  52.073  1.00  0.00     0.128 A 
HETATM   11  N4  UNL     1      21.080   0.168  53.353  1.00  0.00    -0.379 N 
HETATM   12  C16 UNL     1      20.212  -0.941  53.721  1.00  0.00     0.161 C 
HETATM   13  C17 UNL     1      18.904  -0.883  53.000  1.00  0.00    -0.003 C 
HETATM   14  C18 UNL     1      17.851  -1.524  53.491  1.00  0.00     0.049 C 
HETATM   15  H13 UNL     1      21.565   0.745  54.105  1.00  0.00     0.160 HD
ENDROOT
BRANCH   9  16
HETATM   16  N3  UNL     1      23.582   1.146  53.196  1.00  0.00    -0.369 N 
HETATM   17  H5  UNL     1      23.502   0.784  54.144  1.00  0.00     0.161 HD
BRANCH  16  18
HETATM   18  C8  UNL     1      24.883   1.747  53.027  1.00  0.00     0.160 C 
BRANCH  18  19
HETATM   19  C9  UNL     1      26.022   0.842  53.126  1.00  0.00    -0.041 A 
HETATM   20  C10 UNL     1      27.098   1.316  53.853  1.00  0.00     0.009 A 
HETATM   21  C11 UNL     1      28.243   0.563  54.028  1.00  0.00     0.001 A 
HETATM   22  C12 UNL     1      28.343  -0.711  53.465  1.00  0.00     0.000 A 
HETATM   23  C13 UNL     1      27.257  -1.170  52.740  1.00  0.00     0.001 A 
HETATM   24  C14 UNL     1      26.111  -0.416  52.566  1.00  0.00     0.009 A 
ENDBRANCH  18  19
ENDBRANCH  16  18
ENDBRANCH   9  16
BRANCH   1  25
HETATM   25  O1  UNL     1      15.554  -2.038  52.503  1.00  0.00    -0.355 OA
HETATM   26  C1  UNL     1      15.504  -3.429  52.628  1.00  0.00     0.210 C 
ENDBRANCH   1  25
TORSDOF 4
ENDMDL
MODEL 8
REMARK VINA RESULT:      -7.3      3.786      7.203
REMARK  4 active torsions:
REMARK  status: ('A' for Active; 'I' for Inactive)
REMARK    1  A    between atoms: O1_2  and  C2_3 
REMARK    2  A    between atoms: C7_11  and  N3_12 
REMARK    3  A    between atoms: N3_12  and  C8_13 
REMARK    4  A    between atoms: C8_13  and  C9_14 
ROOT
HETATM    1  C2  UNL     1      20.387   4.913  50.434  1.00  0.00     0.083 C 
HETATM    2  C3  UNL     1      20.206   3.602  50.402  1.00  0.00     0.048 C 
HETATM    3  C4  UNL     1      20.835   2.984  51.388  1.00  0.00     0.100 C 
HETATM    4  O2  UNL     1      20.523   1.835  52.104  1.00  0.00    -0.288 OA
HETATM    5  C5  UNL     1      21.447   0.985  52.697  1.00  0.00     0.202 A 
HETATM    6  N1  UNL     1      20.836  -0.106  53.195  1.00  0.00    -0.215 NA
HETATM    7  C6  UNL     1      21.602  -1.051  53.816  1.00  0.00     0.238 A 
HETATM    8  N2  UNL     1      22.930  -0.900  53.928  1.00  0.00    -0.222 NA
HETATM    9  C7  UNL     1      23.606   0.154  53.459  1.00  0.00     0.156 A 
HETATM   10  C15 UNL     1      22.837   1.108  52.833  1.00  0.00     0.128 A 
HETATM   11  N4  UNL     1      23.633   2.185  52.358  1.00  0.00    -0.379 N 
HETATM   12  C16 UNL     1      23.326   3.604  52.238  1.00  0.00     0.161 C 
HETATM   13  C17 UNL     1      22.008   3.830  51.571  1.00  0.00    -0.003 C 
HETATM   14  C18 UNL     1      21.751   5.000  50.999  1.00  0.00     0.049 C 
HETATM   15  H13 UNL     1      24.585   1.813  52.062  1.00  0.00     0.160 HD
ENDROOT
BRANCH   9  16
HETATM   16  N3  UNL     1      25.012   0.254  53.625  1.00  0.00    -0.369 N 
HETATM   17  H5  UNL     1      25.623   0.873  54.155  1.00  0.00     0.161 HD
BRANCH  16  18
HETATM   18  C8  UNL     1      25.816  -0.714  52.919  1.00  0.00     0.160 C 
BRANCH  18  19
HETATM   19  C9  UNL     1      27.251  -0.658  53.172  1.00  0.00    -0.041 A 
HETATM   20  C10 UNL     1      27.927  -1.856  53.036  1.00  0.00     0.009 A 
HETATM   21  C11 UNL     1      29.290  -1.948  53.247  1.00  0.00     0.001 A 
HETATM   22  C12 UNL     1      30.026  -0.818  53.608  1.00  0.00     0.000 A 
HETATM   23  C13 UNL     1      29.333   0.373  53.740  1.00  0.00     0.001 A 
HETATM   24  C14 UNL     1      27.970   0.464  53.529  1.00  0.00     0.009 A 
ENDBRANCH  18  19
ENDBRANCH  16  18
ENDBRANCH   9  16
BRANCH   1  25
HETATM   25  O1  UNL     1      19.597   6.008  50.071  1.00  0.00    -0.355 OA
HETATM   26  C1  UNL     1      20.089   7.187  49.504  1.00  0.00     0.210 C 
ENDBRANCH   1  25
TORSDOF 4
ENDMDL
MODEL 9
REMARK VINA RESULT:      -7.3      3.177      7.459
REMARK  4 active torsions:
REMARK  status: ('A' for Active; 'I' for Inactive)
REMARK    1  A    between atoms: O1_2  and  C2_3 
REMARK    2  A    between atoms: C7_11  and  N3_12 
REMARK    3  A    between atoms: N3_12  and  C8_13 
REMARK    4  A    between atoms: C8_13  and  C9_14 
ROOT
HETATM    1  C2  UNL     1      27.346   7.268  47.844  1.00  0.00     0.083 C 
HETATM    2  C3  UNL     1      26.033   7.292  48.005  1.00  0.00     0.048 C 
HETATM    3  C4  UNL     1      25.634   6.515  48.998  1.00  0.00     0.100 C 
HETATM    4  O2  UNL     1      24.574   6.628  49.888  1.00  0.00    -0.288 OA
HETATM    5  C5  UNL     1      23.921   5.562  50.495  1.00  0.00     0.202 A 
HETATM    6  N1  UNL     1      22.854   5.996  51.192  1.00  0.00    -0.215 NA
HETATM    7  C6  UNL     1      22.096   5.073  51.855  1.00  0.00     0.238 A 
HETATM    8  N2  UNL     1      22.402   3.767  51.815  1.00  0.00    -0.222 NA
HETATM    9  C7  UNL     1      23.444   3.264  51.145  1.00  0.00     0.156 A 
HETATM   10  C15 UNL     1      24.210   4.191  50.476  1.00  0.00     0.128 A 
HETATM   11  N4  UNL     1      25.287   3.572  49.785  1.00  0.00    -0.379 N 
HETATM   12  C16 UNL     1      26.633   4.054  49.507  1.00  0.00     0.161 C 
HETATM   13  C17 UNL     1      26.618   5.440  48.949  1.00  0.00    -0.003 C 
HETATM   14  C18 UNL     1      27.659   5.882  48.255  1.00  0.00     0.049 C 
HETATM   15  H13 UNL     1      24.980   2.609  49.449  1.00  0.00     0.160 HD
ENDROOT
BRANCH   9  16
HETATM   16  N3  UNL     1      23.716   1.871  51.156  1.00  0.00    -0.369 N 
HETATM   17  H5  UNL     1      24.556   1.310  51.027  1.00  0.00     0.161 HD
BRANCH  16  18
HETATM   18  C8  UNL     1      22.597   0.996  51.410  1.00  0.00     0.160 C 
BRANCH  18  19
HETATM   19  C9  UNL     1      22.643   0.248  52.661  1.00  0.00    -0.041 A 
HETATM   20  C10 UNL     1      21.415  -0.099  53.193  1.00  0.00     0.009 A 
HETATM   21  C11 UNL     1      21.311  -0.808  54.374  1.00  0.00     0.001 A 
HETATM   22  C12 UNL     1      22.458  -1.197  55.067  1.00  0.00     0.000 A 
HETATM   23  C13 UNL     1      23.679  -0.842  54.521  1.00  0.00     0.001 A 
HETATM   24  C14 UNL     1      23.783  -0.132  53.339  1.00  0.00     0.009 A 
ENDBRANCH  18  19
ENDBRANCH  16  18
ENDBRANCH   9  16
BRANCH   1  25
HETATM   25  O1  UNL     1      28.287   8.210  47.417  1.00  0.00    -0.355 OA
HETATM   26  C1  UNL     1      29.669   8.003  47.406  1.00  0.00     0.210 C 
ENDBRANCH   1  25
TORSDOF 4
ENDMDL
