MODEL 1
REMARK VINA RESULT:      -8.7      0.000      0.000
REMARK  2 active torsions:
REMARK  status: ('A' for Active; 'I' for Inactive)
REMARK    1  A    between atoms: O1_2  and  C2_3 
REMARK    2  A    between atoms: C5_6  and  N1_7 
ROOT
HETATM    1  C2  UNL     1      23.290   1.855  51.487  1.00  0.00     0.070 C 
HETATM    2  C3  UNL     1      24.035   0.976  52.091  1.00  0.00     0.050 C 
HETATM    3  C4  UNL     1      23.659   0.197  53.256  1.00  0.00     0.026 A 
HETATM    4  C5  UNL     1      24.823  -0.108  53.786  1.00  0.00     0.142 A 
HETATM    5  N2  UNL     1      24.996  -0.889  54.983  1.00  0.00    -0.223 NA
HETATM    6  C13 UNL     1      24.159  -1.509  55.732  1.00  0.00     0.234 A 
HETATM    7  N3  UNL     1      22.748  -1.623  55.615  1.00  0.00    -0.253 NA
HETATM    8  C14 UNL     1      21.911  -1.073  54.782  1.00  0.00     0.132 A 
HETATM    9  C15 UNL     1      22.313  -0.154  53.718  1.00  0.00     0.017 A 
HETATM   10  C16 UNL     1      21.179   0.331  53.223  1.00  0.00     0.148 C 
HETATM   11  O2  UNL     1      21.044   1.262  52.173  1.00  0.00    -0.356 OA
HETATM   12  C17 UNL     1      21.905   2.309  51.781  1.00  0.00     0.239 C 
ENDROOT
BRANCH   4  13
HETATM   13  N1  UNL     1      26.089   0.312  53.223  1.00  0.00    -0.341 N 
HETATM   14  C6  UNL     1      26.311   1.678  53.685  1.00  0.00     0.092 C 
HETATM   15  C7  UNL     1      27.463   2.366  53.867  1.00  0.00     0.017 C 
HETATM   16  C8  UNL     1      28.892   1.997  53.668  1.00  0.00    -0.003 C 
HETATM   17  C9  UNL     1      29.423   0.763  53.726  1.00  0.00    -0.027 C 
HETATM   18  C10 UNL     1      28.928  -0.616  53.975  1.00  0.00     0.029 C 
HETATM   19  C11 UNL     1      28.068  -1.204  52.945  1.00  0.00     0.024 C 
HETATM   20  C12 UNL     1      26.920  -0.527  52.391  1.00  0.00     0.130 C 
ENDBRANCH   4  13
BRANCH   1  21
HETATM   21  O1  UNL     1      23.928   2.444  50.394  1.00  0.00    -0.358 OA
HETATM   22  C1  UNL     1      25.026   3.314  50.534  1.00  0.00     0.209 C 
ENDBRANCH   1  21
TORSDOF 2
ENDMDL
MODEL 2
REMARK VINA RESULT:      -8.7      1.709      4.083
REMARK  2 active torsions:
REMARK  status: ('A' for Active; 'I' for Inactive)
REMARK    1  A    between atoms: O1_2  and  C2_3 
REMARK    2  A    between atoms: C5_6  and  N1_7 
ROOT
HETATM    1  C2  UNL     1      23.031  -0.349  53.614  1.00  0.00     0.070 C 
HETATM    2  C3  UNL     1      24.210   0.186  53.481  1.00  0.00     0.050 C 
HETATM    3  C4  UNL     1      24.590   1.173  52.488  1.00  0.00     0.026 A 
HETATM    4  C5  UNL     1      25.892   1.006  52.399  1.00  0.00     0.142 A 
HETATM    5  N2  UNL     1      26.756   1.763  51.532  1.00  0.00    -0.223 NA
HETATM    6  C13 UNL     1      26.533   2.759  50.754  1.00  0.00     0.234 A 
HETATM    7  N3  UNL     1      25.321   3.452  50.494  1.00  0.00    -0.253 NA
HETATM    8  C14 UNL     1      24.102   3.227  50.894  1.00  0.00     0.132 A 
HETATM    9  C15 UNL     1      23.729   2.114  51.767  1.00  0.00     0.017 A 
HETATM   10  C16 UNL     1      22.400   2.112  51.786  1.00  0.00     0.148 C 
HETATM   11  O2  UNL     1      21.567   1.220  52.491  1.00  0.00    -0.356 OA
HETATM   12  C17 UNL     1      21.781  -0.131  52.838  1.00  0.00     0.239 C 
ENDROOT
BRANCH   4  13
HETATM   13  N1  UNL     1      26.622   0.026  53.175  1.00  0.00    -0.341 N 
HETATM   14  C6  UNL     1      26.539  -1.228  52.434  1.00  0.00     0.092 C 
HETATM   15  C7  UNL     1      27.372  -2.297  52.421  1.00  0.00     0.017 C 
HETATM   16  C8  UNL     1      28.647  -2.582  53.137  1.00  0.00    -0.003 C 
HETATM   17  C9  UNL     1      29.535  -1.682  53.593  1.00  0.00    -0.027 C 
HETATM   18  C10 UNL     1      29.664  -0.202  53.607  1.00  0.00     0.029 C 
HETATM   19  C11 UNL     1      28.721   0.534  54.452  1.00  0.00     0.024 C 
HETATM   20  C12 UNL     1      27.294   0.319  54.419  1.00  0.00     0.130 C 
ENDBRANCH   4  13
BRANCH   1  21
HETATM   21  O1  UNL     1      22.971  -1.269  54.661  1.00  0.00    -0.358 OA
HETATM   22  C1  UNL     1      23.931  -1.311  55.691  1.00  0.00     0.209 C 
ENDBRANCH   1  21
TORSDOF 2
ENDMDL
MODEL 3
REMARK VINA RESULT:      -8.2      2.611      5.130
REMARK  2 active torsions:
REMARK  status: ('A' for Active; 'I' for Inactive)
REMARK    1  A    between atoms: O1_2  and  C2_3 
REMARK    2  A    between atoms: C5_6  and  N1_7 
ROOT
HETATM    1  C2  UNL     1      26.718   1.518  53.980  1.00  0.00     0.070 C 
HETATM    2  C3  UNL     1      25.678   1.999  53.362  1.00  0.00     0.050 C 
HETATM    3  C4  UNL     1      24.506   1.247  52.953  1.00  0.00     0.026 A 
HETATM    4  C5  UNL     1      24.029   1.974  51.965  1.00  0.00     0.142 A 
HETATM    5  N2  UNL     1      22.847   1.650  51.210  1.00  0.00    -0.223 NA
HETATM    6  C13 UNL     1      21.979   0.713  51.334  1.00  0.00     0.234 A 
HETATM    7  N3  UNL     1      21.909  -0.338  52.286  1.00  0.00    -0.253 NA
HETATM    8  C14 UNL     1      22.732  -0.693  53.231  1.00  0.00     0.132 A 
HETATM    9  C15 UNL     1      23.994  -0.008  53.507  1.00  0.00     0.017 A 
HETATM   10  C16 UNL     1      24.624  -0.772  54.394  1.00  0.00     0.148 C 
HETATM   11  O2  UNL     1      25.887  -0.531  54.971  1.00  0.00    -0.356 OA
HETATM   12  C17 UNL     1      27.011   0.132  54.434  1.00  0.00     0.239 C 
ENDROOT
BRANCH   4  13
HETATM   13  N1  UNL     1      24.644   3.204  51.513  1.00  0.00    -0.341 N 
HETATM   14  C6  UNL     1      25.814   2.815  50.733  1.00  0.00     0.092 C 
HETATM   15  C7  UNL     1      26.458   3.463  49.732  1.00  0.00     0.017 C 
HETATM   16  C8  UNL     1      26.216   4.776  49.073  1.00  0.00    -0.003 C 
HETATM   17  C9  UNL     1      25.042   5.422  48.964  1.00  0.00    -0.027 C 
HETATM   18  C10 UNL     1      23.636   5.183  49.379  1.00  0.00     0.029 C 
HETATM   19  C11 UNL     1      23.354   5.239  50.815  1.00  0.00     0.024 C 
HETATM   20  C12 UNL     1      24.125   4.520  51.802  1.00  0.00     0.130 C 
ENDBRANCH   4  13
BRANCH   1  21
HETATM   21  O1  UNL     1      27.687   2.486  54.240  1.00  0.00    -0.358 OA
HETATM   22  C1  UNL     1      29.045   2.309  53.909  1.00  0.00     0.209 C 
ENDBRANCH   1  21
TORSDOF 2
ENDMDL
MODEL 4
REMARK VINA RESULT:      -7.6      2.399      5.381
REMARK  2 active torsions:
REMARK  status: ('A' for Active; 'I' for Inactive)
REMARK    1  A    between atoms: O1_2  and  C2_3 
REMARK    2  A    between atoms: C5_6  and  N1_7 
ROOT
HETATM    1  C2  UNL     1      26.073   0.825  52.316  1.00  0.00     0.070 C 
HETATM    2  C3  UNL     1      24.858   1.231  52.545  1.00  0.00     0.050 C 
HETATM    3  C4  UNL     1      23.837   0.498  53.270  1.00  0.00     0.026 A 
HETATM    4  C5  UNL     1      22.723   1.016  52.799  1.00  0.00     0.142 A 
HETATM    5  N2  UNL     1      21.401   0.621  53.210  1.00  0.00    -0.223 NA
HETATM    6  C13 UNL     1      20.990  -0.195  54.111  1.00  0.00     0.234 A 
HETATM    7  N3  UNL     1      21.735  -0.995  55.018  1.00  0.00    -0.253 NA
HETATM    8  C14 UNL     1      23.017  -1.189  55.134  1.00  0.00     0.132 A 
HETATM    9  C15 UNL     1      24.014  -0.557  54.270  1.00  0.00     0.017 A 
HETATM   10  C16 UNL     1      25.166  -1.146  54.573  1.00  0.00     0.148 C 
HETATM   11  O2  UNL     1      26.428  -0.878  54.002  1.00  0.00    -0.356 OA
HETATM   12  C17 UNL     1      26.754  -0.440  52.701  1.00  0.00     0.239 C 
ENDROOT
BRANCH   4  13
HETATM   13  N1  UNL     1      22.692   2.061  51.799  1.00  0.00    -0.341 N 
HETATM   14  C6  UNL     1      22.507   1.395  50.514  1.00  0.00     0.092 C 
HETATM   15  C7  UNL     1      21.960   1.847  49.361  1.00  0.00     0.017 C 
HETATM   16  C8  UNL     1      21.360   3.158  48.984  1.00  0.00    -0.003 C 
HETATM   17  C9  UNL     1      20.775   4.045  49.807  1.00  0.00    -0.027 C 
HETATM   18  C10 UNL     1      20.484   4.141  51.261  1.00  0.00     0.029 C 
HETATM   19  C11 UNL     1      21.633   4.308  52.153  1.00  0.00     0.024 C 
HETATM   20  C12 UNL     1      22.807   3.470  52.098  1.00  0.00     0.130 C 
ENDBRANCH   4  13
BRANCH   1  21
HETATM   21  O1  UNL     1      26.824   1.750  51.591  1.00  0.00    -0.358 OA
HETATM   22  C1  UNL     1      26.236   2.714  50.750  1.00  0.00     0.209 C 
ENDBRANCH   1  21
TORSDOF 2
ENDMDL
MODEL 5
REMARK VINA RESULT:      -7.6      2.619      6.250
REMARK  2 active torsions:
REMARK  status: ('A' for Active; 'I' for Inactive)
REMARK    1  A    between atoms: O1_2  and  C2_3 
REMARK    2  A    between atoms: C5_6  and  N1_7 
ROOT
HETATM    1  C2  UNL     1      23.338  -0.845  54.223  1.00  0.00     0.070 C 
HETATM    2  C3  UNL     1      23.333  -0.171  53.110  1.00  0.00     0.050 C 
HETATM    3  C4  UNL     1      24.431   0.621  52.588  1.00  0.00     0.026 A 
HETATM    4  C5  UNL     1      23.818   1.481  51.804  1.00  0.00     0.142 A 
HETATM    5  N2  UNL     1      24.481   2.503  51.037  1.00  0.00    -0.223 NA
HETATM    6  C13 UNL     1      25.723   2.773  50.858  1.00  0.00     0.234 A 
HETATM    7  N3  UNL     1      26.875   2.127  51.380  1.00  0.00    -0.253 NA
HETATM    8  C14 UNL     1      26.997   1.153  52.236  1.00  0.00     0.132 A 
HETATM    9  C15 UNL     1      25.861   0.487  52.873  1.00  0.00     0.017 A 
HETATM   10  C16 UNL     1      26.391  -0.297  53.806  1.00  0.00     0.148 C 
HETATM   11  O2  UNL     1      25.695  -1.146  54.692  1.00  0.00    -0.356 OA
HETATM   12  C17 UNL     1      24.405  -1.006  55.246  1.00  0.00     0.239 C 
ENDROOT
BRANCH   4  13
HETATM   13  N1  UNL     1      22.383   1.504  51.615  1.00  0.00    -0.341 N 
HETATM   14  C6  UNL     1      21.880   2.607  52.426  1.00  0.00     0.092 C 
HETATM   15  C7  UNL     1      20.764   3.362  52.286  1.00  0.00     0.017 C 
HETATM   16  C8  UNL     1      19.666   3.348  51.280  1.00  0.00    -0.003 C 
HETATM   17  C9  UNL     1      19.742   2.923  50.007  1.00  0.00    -0.027 C 
HETATM   18  C10 UNL     1      20.788   2.351  49.120  1.00  0.00     0.029 C 
HETATM   19  C11 UNL     1      21.251   0.997  49.435  1.00  0.00     0.024 C 
HETATM   20  C12 UNL     1      21.668   0.590  50.755  1.00  0.00     0.130 C 
ENDBRANCH   4  13
BRANCH   1  21
HETATM   21  O1  UNL     1      22.133  -1.507  54.459  1.00  0.00    -0.358 OA
HETATM   22  C1  UNL     1      20.885  -0.967  54.092  1.00  0.00     0.209 C 
ENDBRANCH   1  21
TORSDOF 2
ENDMDL
MODEL 6
REMARK VINA RESULT:      -7.5      2.074      4.394
REMARK  2 active torsions:
REMARK  status: ('A' for Active; 'I' for Inactive)
REMARK    1  A    between atoms: O1_2  and  C2_3 
REMARK    2  A    between atoms: C5_6  and  N1_7 
ROOT
HETATM    1  C2  UNL     1      21.026   0.782  53.446  1.00  0.00     0.070 C 
HETATM    2  C3  UNL     1      22.174   1.033  52.886  1.00  0.00     0.050 C 
HETATM    3  C4  UNL     1      23.474   0.631  53.390  1.00  0.00     0.026 A 
HETATM    4  C5  UNL     1      24.281   1.511  52.837  1.00  0.00     0.142 A 
HETATM    5  N2  UNL     1      25.707   1.542  53.026  1.00  0.00    -0.223 NA
HETATM    6  C13 UNL     1      26.509   0.755  53.647  1.00  0.00     0.234 A 
HETATM    7  N3  UNL     1      26.232  -0.435  54.370  1.00  0.00    -0.253 NA
HETATM    8  C14 UNL     1      25.103  -1.008  54.676  1.00  0.00     0.132 A 
HETATM    9  C15 UNL     1      23.795  -0.479  54.291  1.00  0.00     0.017 A 
HETATM   10  C16 UNL     1      22.908  -1.223  54.942  1.00  0.00     0.148 C 
HETATM   11  O2  UNL     1      21.504  -1.099  54.896  1.00  0.00    -0.356 OA
HETATM   12  C17 UNL     1      20.707   0.049  54.700  1.00  0.00     0.239 C 
ENDROOT
BRANCH   4  13
HETATM   13  N1  UNL     1      23.825   2.569  51.961  1.00  0.00    -0.341 N 
HETATM   14  C6  UNL     1      23.489   3.698  52.821  1.00  0.00     0.092 C 
HETATM   15  C7  UNL     1      23.470   5.027  52.558  1.00  0.00     0.017 C 
HETATM   16  C8  UNL     1      23.776   5.808  51.327  1.00  0.00    -0.003 C 
HETATM   17  C9  UNL     1      24.601   5.451  50.328  1.00  0.00    -0.027 C 
HETATM   18  C10 UNL     1      25.472   4.290  50.009  1.00  0.00     0.029 C 
HETATM   19  C11 UNL     1      24.800   3.027  49.696  1.00  0.00     0.024 C 
HETATM   20  C12 UNL     1      23.764   2.456  50.523  1.00  0.00     0.130 C 
ENDBRANCH   4  13
BRANCH   1  21
HETATM   21  O1  UNL     1      19.949   1.299  52.726  1.00  0.00    -0.358 OA
HETATM   22  C1  UNL     1      19.982   2.568  52.117  1.00  0.00     0.209 C 
ENDBRANCH   1  21
TORSDOF 2
ENDMDL
MODEL 7
REMARK VINA RESULT:      -7.2      2.400      5.056
REMARK  2 active torsions:
REMARK  status: ('A' for Active; 'I' for Inactive)
REMARK    1  A    between atoms: O1_2  and  C2_3 
REMARK    2  A    between atoms: C5_6  and  N1_7 
ROOT
HETATM    1  C2  UNL     1      24.824   1.503  51.703  1.00  0.00     0.070 C 
HETATM    2  C3  UNL     1      23.599   1.398  52.130  1.00  0.00     0.050 C 
HETATM    3  C4  UNL     1      23.096   0.383  53.036  1.00  0.00     0.026 A 
HETATM    4  C5  UNL     1      21.811   0.357  52.753  1.00  0.00     0.142 A 
HETATM    5  N2  UNL     1      20.851  -0.503  53.395  1.00  0.00    -0.223 NA
HETATM    6  C13 UNL     1      20.956  -1.329  54.371  1.00  0.00     0.234 A 
HETATM    7  N3  UNL     1      22.091  -1.669  55.153  1.00  0.00    -0.253 NA
HETATM    8  C14 UNL     1      23.339  -1.312  55.051  1.00  0.00     0.132 A 
HETATM    9  C15 UNL     1      23.842  -0.411  54.014  1.00  0.00     0.017 A 
HETATM   10  C16 UNL     1      25.166  -0.449  54.126  1.00  0.00     0.148 C 
HETATM   11  O2  UNL     1      26.101   0.256  53.341  1.00  0.00    -0.356 OA
HETATM   12  C17 UNL     1      26.019   0.666  51.993  1.00  0.00     0.239 C 
ENDROOT
BRANCH   4  13
HETATM   13  N1  UNL     1      21.200   1.202  51.749  1.00  0.00    -0.341 N 
HETATM   14  C6  UNL     1      21.203   2.555  52.295  1.00  0.00     0.092 C 
HETATM   15  C7  UNL     1      21.203   3.755  51.666  1.00  0.00     0.017 C 
HETATM   16  C8  UNL     1      21.200   4.130  50.224  1.00  0.00    -0.003 C 
HETATM   17  C9  UNL     1      21.678   3.403  49.200  1.00  0.00    -0.027 C 
HETATM   18  C10 UNL     1      22.339   2.084  49.027  1.00  0.00     0.029 C 
HETATM   19  C11 UNL     1      21.519   0.897  49.280  1.00  0.00     0.024 C 
HETATM   20  C12 UNL     1      20.724   0.724  50.472  1.00  0.00     0.130 C 
ENDBRANCH   4  13
BRANCH   1  21
HETATM   21  O1  UNL     1      25.005   2.583  50.839  1.00  0.00    -0.358 OA
HETATM   22  C1  UNL     1      24.805   3.918  51.240  1.00  0.00     0.209 C 
ENDBRANCH   1  21
TORSDOF 2
ENDMDL
MODEL 8
REMARK VINA RESULT:      -7.1      2.761      6.428
REMARK  2 active torsions:
REMARK  status: ('A' for Active; 'I' for Inactive)
REMARK    1  A    between atoms: O1_2  and  C2_3 
REMARK    2  A    between atoms: C5_6  and  N1_7 
ROOT
HETATM    1  C2  UNL     1      22.798  -0.165  53.192  1.00  0.00     0.070 C 
HETATM    2  C3  UNL     1      23.023   0.610  52.171  1.00  0.00     0.050 C 
HETATM    3  C4  UNL     1      24.265   1.304  51.885  1.00  0.00     0.026 A 
HETATM    4  C5  UNL     1      23.868   2.306  51.133  1.00  0.00     0.142 A 
HETATM    5  N2  UNL     1      24.741   3.307  50.577  1.00  0.00    -0.223 NA
HETATM    6  C13 UNL     1      26.018   3.434  50.589  1.00  0.00     0.234 A 
HETATM    7  N3  UNL     1      27.007   2.601  51.176  1.00  0.00    -0.253 NA
HETATM    8  C14 UNL     1      26.899   1.541  51.925  1.00  0.00     0.132 A 
HETATM    9  C15 UNL     1      25.618   0.964  52.333  1.00  0.00     0.017 A 
HETATM   10  C16 UNL     1      25.921   0.032  53.230  1.00  0.00     0.148 C 
HETATM   11  O2  UNL     1      25.019  -0.805  53.918  1.00  0.00    -0.356 OA
HETATM   12  C17 UNL     1      23.687  -0.558  54.317  1.00  0.00     0.239 C 
ENDROOT
BRANCH   4  13
HETATM   13  N1  UNL     1      22.485   2.528  50.767  1.00  0.00    -0.341 N 
HETATM   14  C6  UNL     1      22.144   1.487  49.803  1.00  0.00     0.092 C 
HETATM   15  C7  UNL     1      20.946   0.933  49.497  1.00  0.00     0.017 C 
HETATM   16  C8  UNL     1      19.571   1.172  50.016  1.00  0.00    -0.003 C 
HETATM   17  C9  UNL     1      19.235   1.635  51.232  1.00  0.00    -0.027 C 
HETATM   18  C10 UNL     1      19.953   2.067  52.459  1.00  0.00     0.029 C 
HETATM   19  C11 UNL     1      20.721   3.310  52.370  1.00  0.00     0.024 C 
HETATM   20  C12 UNL     1      21.665   3.584  51.312  1.00  0.00     0.130 C 
ENDBRANCH   4  13
BRANCH   1  21
HETATM   21  O1  UNL     1      21.506  -0.690  53.196  1.00  0.00    -0.358 OA
HETATM   22  C1  UNL     1      21.029  -1.525  54.224  1.00  0.00     0.209 C 
ENDBRANCH   1  21
TORSDOF 2
ENDMDL
MODEL 9
REMARK VINA RESULT:      -7.1      1.365      2.391
REMARK  2 active torsions:
REMARK  status: ('A' for Active; 'I' for Inactive)
REMARK    1  A    between atoms: O1_2  and  C2_3 
REMARK    2  A    between atoms: C5_6  and  N1_7 
ROOT
HETATM    1  C2  UNL     1      24.976   1.879  51.568  1.00  0.00     0.070 C 
HETATM    2  C3  UNL     1      24.801   0.794  52.265  1.00  0.00     0.050 C 
HETATM    3  C4  UNL     1      23.549   0.345  52.843  1.00  0.00     0.026 A 
HETATM    4  C5  UNL     1      23.948  -0.426  53.831  1.00  0.00     0.142 A 
HETATM    5  N2  UNL     1      23.066  -1.127  54.728  1.00  0.00    -0.223 NA
HETATM    6  C13 UNL     1      21.789  -1.248  54.756  1.00  0.00     0.234 A 
HETATM    7  N3  UNL     1      20.808  -0.710  53.882  1.00  0.00    -0.253 NA
HETATM    8  C14 UNL     1      20.915   0.111  52.877  1.00  0.00     0.132 A 
HETATM    9  C15 UNL     1      22.185   0.679  52.425  1.00  0.00     0.017 A 
HETATM   10  C16 UNL     1      21.859   1.598  51.523  1.00  0.00     0.148 C 
HETATM   11  O2  UNL     1      22.745   2.423  50.799  1.00  0.00    -0.356 OA
HETATM   12  C17 UNL     1      24.007   2.934  51.169  1.00  0.00     0.239 C 
ENDROOT
BRANCH   4  13
HETATM   13  N1  UNL     1      25.341  -0.668  54.139  1.00  0.00    -0.341 N 
HETATM   14  C6  UNL     1      25.834  -1.588  53.119  1.00  0.00     0.092 C 
HETATM   15  C7  UNL     1      27.086  -1.780  52.641  1.00  0.00     0.017 C 
HETATM   16  C8  UNL     1      28.392  -1.141  52.969  1.00  0.00    -0.003 C 
HETATM   17  C9  UNL     1      28.586   0.096  53.456  1.00  0.00    -0.027 C 
HETATM   18  C10 UNL     1      27.734   1.250  53.846  1.00  0.00     0.029 C 
HETATM   19  C11 UNL     1      26.900   1.080  55.038  1.00  0.00     0.024 C 
HETATM   20  C12 UNL     1      26.040  -0.060  55.247  1.00  0.00     0.130 C 
ENDBRANCH   4  13
BRANCH   1  21
HETATM   21  O1  UNL     1      26.296   2.043  51.146  1.00  0.00    -0.358 OA
HETATM   22  C1  UNL     1      26.714   3.140  50.369  1.00  0.00     0.209 C 
ENDBRANCH   1  21
TORSDOF 2
ENDMDL
