MODEL 1
REMARK VINA RESULT:      -6.7      0.000      0.000
REMARK  10 active torsions:
REMARK  status: ('A' for Active; 'I' for Inactive)
REMARK    1  A    between atoms: C7_7  and  N1_8 
REMARK    2  A    between atoms: N1_8  and  C8_9 
REMARK    3  A    between atoms: C10_12  and  O1_13 
REMARK    4  A    between atoms: O1_13  and  C11_14 
REMARK    5  A    between atoms: C11_14  and  C12_15 
REMARK    6  A    between atoms: C12_15  and  O2_16 
REMARK    7  A    between atoms: C14_18  and  O3_19 
REMARK    8  A    between atoms: O3_19  and  C15_20 
REMARK    9  A    between atoms: C15_20  and  C16_21 
REMARK   10  A    between atoms: C16_21  and  O4_22 
ROOT
HETATM    1  C1  UNL     1      29.824   7.164  47.084  1.00  0.00     0.018 C 
HETATM    2  C2  UNL     1      28.827   7.013  47.756  1.00  0.00    -0.078 C 
HETATM    3  C3  UNL     1      27.636   6.854  48.548  1.00  0.00     0.019 A 
HETATM    4  C4  UNL     1      27.125   7.925  49.245  1.00  0.00     0.021 A 
HETATM    5  C5  UNL     1      25.976   7.773  50.010  1.00  0.00     0.004 A 
HETATM    6  C6  UNL     1      25.410   6.520  50.018  1.00  0.00     0.029 A 
HETATM    7  C7  UNL     1      25.849   5.406  49.358  1.00  0.00     0.035 A 
HETATM    8  C20 UNL     1      27.007   5.644  48.614  1.00  0.00     0.050 A 
ENDROOT
BRANCH   7   9
HETATM    9  N1  UNL     1      25.288   4.110  49.336  1.00  0.00    -0.341 N 
HETATM   10  H5  UNL     1      24.786   3.791  48.457  1.00  0.00     0.167 HD
BRANCH   9  11
HETATM   11  C8  UNL     1      25.330   3.171  50.374  1.00  0.00     0.123 A 
HETATM   12  N2  UNL     1      24.194   2.884  50.850  1.00  0.00    -0.266 NA
HETATM   13  C9  UNL     1      23.611   2.057  51.850  1.00  0.00     0.218 A 
HETATM   14  C10 UNL     1      24.552   1.229  52.632  1.00  0.00     0.099 A 
HETATM   15  C14 UNL     1      25.866   1.112  52.576  1.00  0.00     0.099 A 
HETATM   16  C18 UNL     1      26.851   1.746  51.738  1.00  0.00     0.043 A 
HETATM   17  C19 UNL     1      26.589   2.627  50.801  1.00  0.00     0.053 A 
BRANCH  14  18
HETATM   18  O1  UNL     1      23.729   0.560  53.487  1.00  0.00    -0.349 OA
BRANCH  18  19
HETATM   19  C11 UNL     1      22.775  -0.413  53.230  1.00  0.00     0.201 C 
BRANCH  19  20
HETATM   20  C12 UNL     1      21.818  -0.617  54.394  1.00  0.00     0.193 C 
BRANCH  20  21
HETATM   21  O2  UNL     1      20.641   0.086  54.267  1.00  0.00    -0.394 OA
HETATM   22  C13 UNL     1      19.744  -0.497  53.408  1.00  0.00     0.201 C 
ENDBRANCH  20  21
ENDBRANCH  19  20
ENDBRANCH  18  19
ENDBRANCH  14  18
BRANCH  15  23
HETATM   23  O3  UNL     1      26.337   0.209  53.504  1.00  0.00    -0.346 OA
BRANCH  23  24
HETATM   24  C15 UNL     1      26.854   0.598  54.768  1.00  0.00     0.201 C 
BRANCH  24  25
HETATM   25  C16 UNL     1      28.195  -0.043  54.935  1.00  0.00     0.193 C 
BRANCH  25  26
HETATM   26  O4  UNL     1      29.174   0.405  54.091  1.00  0.00    -0.394 OA
HETATM   27  C17 UNL     1      29.897  -0.553  53.430  1.00  0.00     0.201 C 
ENDBRANCH  25  26
ENDBRANCH  24  25
ENDBRANCH  23  24
ENDBRANCH  15  23
ENDBRANCH   9  11
ENDBRANCH   7   9
TORSDOF 10
ENDMDL
MODEL 2
REMARK VINA RESULT:      -6.4      3.079      9.097
REMARK  10 active torsions:
REMARK  status: ('A' for Active; 'I' for Inactive)
REMARK    1  A    between atoms: C7_7  and  N1_8 
REMARK    2  A    between atoms: N1_8  and  C8_9 
REMARK    3  A    between atoms: C10_12  and  O1_13 
REMARK    4  A    between atoms: O1_13  and  C11_14 
REMARK    5  A    between atoms: C11_14  and  C12_15 
REMARK    6  A    between atoms: C12_15  and  O2_16 
REMARK    7  A    between atoms: C14_18  and  O3_19 
REMARK    8  A    between atoms: O3_19  and  C15_20 
REMARK    9  A    between atoms: C15_20  and  C16_21 
REMARK   10  A    between atoms: C16_21  and  O4_22 
ROOT
HETATM    1  C1  UNL     1      16.121  -5.312  53.834  1.00  0.00     0.018 C 
HETATM    2  C2  UNL     1      16.576  -4.225  53.551  1.00  0.00    -0.078 C 
HETATM    3  C3  UNL     1      17.095  -2.927  53.214  1.00  0.00     0.019 A 
HETATM    4  C4  UNL     1      16.447  -2.146  52.285  1.00  0.00     0.021 A 
HETATM    5  C5  UNL     1      16.947  -0.892  51.958  1.00  0.00     0.004 A 
HETATM    6  C6  UNL     1      18.096  -0.506  52.608  1.00  0.00     0.029 A 
HETATM    7  C7  UNL     1      18.801  -1.215  53.540  1.00  0.00     0.035 A 
HETATM    8  C20 UNL     1      18.232  -2.462  53.811  1.00  0.00     0.050 A 
ENDROOT
BRANCH   7   9
HETATM    9  N1  UNL     1      19.975  -0.845  54.233  1.00  0.00    -0.341 N 
HETATM   10  H5  UNL     1      20.026  -1.032  55.277  1.00  0.00     0.167 HD
BRANCH   9  11
HETATM   11  C8  UNL     1      21.113  -0.249  53.677  1.00  0.00     0.123 A 
HETATM   12  N2  UNL     1      20.887   0.866  53.124  1.00  0.00    -0.266 NA
HETATM   13  C9  UNL     1      21.579   1.895  52.427  1.00  0.00     0.218 A 
HETATM   14  C10 UNL     1      23.030   1.687  52.245  1.00  0.00     0.099 A 
HETATM   15  C14 UNL     1      23.824   0.699  52.616  1.00  0.00     0.099 A 
HETATM   16  C18 UNL     1      23.563  -0.525  53.327  1.00  0.00     0.043 A 
HETATM   17  C19 UNL     1      22.387  -0.904  53.770  1.00  0.00     0.053 A 
BRANCH  14  18
HETATM   18  O1  UNL     1      23.415   2.804  51.566  1.00  0.00    -0.349 OA
BRANCH  18  19
HETATM   19  C11 UNL     1      23.477   4.125  51.983  1.00  0.00     0.201 C 
BRANCH  19  20
HETATM   20  C12 UNL     1      23.642   5.098  50.825  1.00  0.00     0.193 C 
BRANCH  20  21
HETATM   21  O2  UNL     1      24.906   5.635  50.736  1.00  0.00    -0.394 OA
HETATM   22  C13 UNL     1      25.625   5.170  49.663  1.00  0.00     0.201 C 
ENDBRANCH  20  21
ENDBRANCH  19  20
ENDBRANCH  18  19
ENDBRANCH  14  18
BRANCH  15  23
HETATM   23  O3  UNL     1      25.129   0.923  52.234  1.00  0.00    -0.346 OA
BRANCH  23  24
HETATM   24  C15 UNL     1      26.244   0.475  52.989  1.00  0.00     0.201 C 
BRANCH  24  25
HETATM   25  C16 UNL     1      26.952   1.679  53.526  1.00  0.00     0.193 C 
BRANCH  25  26
HETATM   26  O4  UNL     1      27.795   1.448  54.579  1.00  0.00    -0.394 OA
HETATM   27  C17 UNL     1      28.938   0.745  54.304  1.00  0.00     0.201 C 
ENDBRANCH  25  26
ENDBRANCH  24  25
ENDBRANCH  23  24
ENDBRANCH  15  23
ENDBRANCH   9  11
ENDBRANCH   7   9
TORSDOF 10
ENDMDL
MODEL 3
REMARK VINA RESULT:      -6.4      6.162     10.091
REMARK  10 active torsions:
REMARK  status: ('A' for Active; 'I' for Inactive)
REMARK    1  A    between atoms: C7_7  and  N1_8 
REMARK    2  A    between atoms: N1_8  and  C8_9 
REMARK    3  A    between atoms: C10_12  and  O1_13 
REMARK    4  A    between atoms: O1_13  and  C11_14 
REMARK    5  A    between atoms: C11_14  and  C12_15 
REMARK    6  A    between atoms: C12_15  and  O2_16 
REMARK    7  A    between atoms: C14_18  and  O3_19 
REMARK    8  A    between atoms: O3_19  and  C15_20 
REMARK    9  A    between atoms: C15_20  and  C16_21 
REMARK   10  A    between atoms: C16_21  and  O4_22 
ROOT
HETATM    1  C1  UNL     1      32.069   0.250  46.688  1.00  0.00     0.018 C 
HETATM    2  C2  UNL     1      32.566   1.346  46.832  1.00  0.00    -0.078 C 
HETATM    3  C3  UNL     1      33.158   2.648  46.982  1.00  0.00     0.019 A 
HETATM    4  C4  UNL     1      34.209   3.023  46.176  1.00  0.00     0.021 A 
HETATM    5  C5  UNL     1      34.782   4.280  46.319  1.00  0.00     0.004 A 
HETATM    6  C6  UNL     1      34.241   5.089  47.290  1.00  0.00     0.029 A 
HETATM    7  C7  UNL     1      33.203   4.799  48.130  1.00  0.00     0.035 A 
HETATM    8  C20 UNL     1      32.685   3.518  47.922  1.00  0.00     0.050 A 
ENDROOT
BRANCH   7   9
HETATM    9  N1  UNL     1      32.617   5.608  49.129  1.00  0.00    -0.341 N 
HETATM   10  H5  UNL     1      33.050   5.608  50.098  1.00  0.00     0.167 HD
BRANCH   9  11
HETATM   11  C8  UNL     1      31.500   6.437  48.973  1.00  0.00     0.123 A 
HETATM   12  N2  UNL     1      31.689   7.627  49.358  1.00  0.00    -0.266 NA
HETATM   13  C9  UNL     1      30.992   8.863  49.455  1.00  0.00     0.218 A 
HETATM   14  C10 UNL     1      29.595   8.856  48.972  1.00  0.00     0.099 A 
HETATM   15  C14 UNL     1      28.855   7.891  48.456  1.00  0.00     0.099 A 
HETATM   16  C18 UNL     1      29.139   6.507  48.182  1.00  0.00     0.043 A 
HETATM   17  C19 UNL     1      30.285   5.912  48.414  1.00  0.00     0.053 A 
BRANCH  14  18
HETATM   18  O1  UNL     1      29.195  10.141  49.181  1.00  0.00    -0.349 OA
BRANCH  18  19
HETATM   19  C11 UNL     1      29.188  11.225  48.317  1.00  0.00     0.201 C 
BRANCH  19  20
HETATM   20  C12 UNL     1      29.389  12.550  49.037  1.00  0.00     0.193 C 
BRANCH  20  21
HETATM   21  O2  UNL     1      28.211  13.160  49.405  1.00  0.00    -0.394 OA
HETATM   22  C13 UNL     1      27.557  13.764  48.361  1.00  0.00     0.201 C 
ENDBRANCH  20  21
ENDBRANCH  19  20
ENDBRANCH  18  19
ENDBRANCH  14  18
BRANCH  15  23
HETATM   23  O3  UNL     1      27.590   8.335  48.139  1.00  0.00    -0.346 OA
BRANCH  23  24
HETATM   24  C15 UNL     1      26.560   7.473  47.680  1.00  0.00     0.201 C 
BRANCH  24  25
HETATM   25  C16 UNL     1      25.465   7.477  48.700  1.00  0.00     0.193 C 
BRANCH  25  26
HETATM   26  O4  UNL     1      25.644   6.632  49.761  1.00  0.00    -0.394 OA
HETATM   27  C17 UNL     1      24.755   6.754  50.796  1.00  0.00     0.201 C 
ENDBRANCH  25  26
ENDBRANCH  24  25
ENDBRANCH  23  24
ENDBRANCH  15  23
ENDBRANCH   9  11
ENDBRANCH   7   9
TORSDOF 10
ENDMDL
MODEL 4
REMARK VINA RESULT:      -6.4      3.346      7.567
REMARK  10 active torsions:
REMARK  status: ('A' for Active; 'I' for Inactive)
REMARK    1  A    between atoms: C7_7  and  N1_8 
REMARK    2  A    between atoms: N1_8  and  C8_9 
REMARK    3  A    between atoms: C10_12  and  O1_13 
REMARK    4  A    between atoms: O1_13  and  C11_14 
REMARK    5  A    between atoms: C11_14  and  C12_15 
REMARK    6  A    between atoms: C12_15  and  O2_16 
REMARK    7  A    between atoms: C14_18  and  O3_19 
REMARK    8  A    between atoms: O3_19  and  C15_20 
REMARK    9  A    between atoms: C15_20  and  C16_21 
REMARK   10  A    between atoms: C16_21  and  O4_22 
ROOT
HETATM    1  C1  UNL     1      18.685   2.133  49.396  1.00  0.00     0.018 C 
HETATM    2  C2  UNL     1      18.568   1.330  50.296  1.00  0.00    -0.078 C 
HETATM    3  C3  UNL     1      18.422   0.360  51.349  1.00  0.00     0.019 A 
HETATM    4  C4  UNL     1      17.361  -0.517  51.335  1.00  0.00     0.021 A 
HETATM    5  C5  UNL     1      17.218  -1.452  52.351  1.00  0.00     0.004 A 
HETATM    6  C6  UNL     1      18.180  -1.436  53.334  1.00  0.00     0.029 A 
HETATM    7  C7  UNL     1      19.261  -0.604  53.425  1.00  0.00     0.035 A 
HETATM    8  C20 UNL     1      19.330   0.305  52.367  1.00  0.00     0.050 A 
ENDROOT
BRANCH   7   9
HETATM    9  N1  UNL     1      20.270  -0.567  54.412  1.00  0.00    -0.341 N 
HETATM   10  H5  UNL     1      19.984  -0.625  55.432  1.00  0.00     0.167 HD
BRANCH   9  11
HETATM   11  C8  UNL     1      21.648  -0.464  54.185  1.00  0.00     0.123 A 
HETATM   12  N2  UNL     1      21.951   0.270  53.200  1.00  0.00    -0.266 NA
HETATM   13  C9  UNL     1      23.100   0.739  52.505  1.00  0.00     0.218 A 
HETATM   14  C10 UNL     1      24.403   0.280  53.029  1.00  0.00     0.099 A 
HETATM   15  C14 UNL     1      24.707  -0.505  54.047  1.00  0.00     0.099 A 
HETATM   16  C18 UNL     1      23.884  -1.194  55.005  1.00  0.00     0.043 A 
HETATM   17  C19 UNL     1      22.572  -1.157  55.039  1.00  0.00     0.053 A 
BRANCH  14  18
HETATM   18  O1  UNL     1      25.295   0.876  52.189  1.00  0.00    -0.349 OA
BRANCH  18  19
HETATM   19  C11 UNL     1      25.604   2.216  52.020  1.00  0.00     0.201 C 
BRANCH  19  20
HETATM   20  C12 UNL     1      26.477   2.467  50.800  1.00  0.00     0.193 C 
BRANCH  20  21
HETATM   21  O2  UNL     1      25.907   3.321  49.883  1.00  0.00    -0.394 OA
HETATM   22  C13 UNL     1      24.536   3.270  49.865  1.00  0.00     0.201 C 
ENDBRANCH  20  21
ENDBRANCH  19  20
ENDBRANCH  18  19
ENDBRANCH  14  18
BRANCH  15  23
HETATM   23  O3  UNL     1      26.069  -0.665  54.177  1.00  0.00    -0.346 OA
BRANCH  23  24
HETATM   24  C15 UNL     1      26.868   0.157  55.014  1.00  0.00     0.201 C 
BRANCH  24  25
HETATM   25  C16 UNL     1      28.139   0.462  54.286  1.00  0.00     0.193 C 
BRANCH  25  26
HETATM   26  O4  UNL     1      29.211  -0.321  54.615  1.00  0.00    -0.394 OA
HETATM   27  C17 UNL     1      29.911  -0.870  53.573  1.00  0.00     0.201 C 
ENDBRANCH  25  26
ENDBRANCH  24  25
ENDBRANCH  23  24
ENDBRANCH  15  23
ENDBRANCH   9  11
ENDBRANCH   7   9
TORSDOF 10
ENDMDL
MODEL 5
REMARK VINA RESULT:      -6.3      4.783      8.933
REMARK  10 active torsions:
REMARK  status: ('A' for Active; 'I' for Inactive)
REMARK    1  A    between atoms: C7_7  and  N1_8 
REMARK    2  A    between atoms: N1_8  and  C8_9 
REMARK    3  A    between atoms: C10_12  and  O1_13 
REMARK    4  A    between atoms: O1_13  and  C11_14 
REMARK    5  A    between atoms: C11_14  and  C12_15 
REMARK    6  A    between atoms: C12_15  and  O2_16 
REMARK    7  A    between atoms: C14_18  and  O3_19 
REMARK    8  A    between atoms: O3_19  and  C15_20 
REMARK    9  A    between atoms: C15_20  and  C16_21 
REMARK   10  A    between atoms: C16_21  and  O4_22 
ROOT
HETATM    1  C1  UNL     1      28.857   0.341  53.539  1.00  0.00     0.018 C 
HETATM    2  C2  UNL     1      27.894   0.965  53.148  1.00  0.00    -0.078 C 
HETATM    3  C3  UNL     1      26.750   1.716  52.706  1.00  0.00     0.019 A 
HETATM    4  C4  UNL     1      25.657   1.856  53.531  1.00  0.00     0.021 A 
HETATM    5  C5  UNL     1      24.551   2.579  53.105  1.00  0.00     0.004 A 
HETATM    6  C6  UNL     1      24.627   3.123  51.844  1.00  0.00     0.029 A 
HETATM    7  C7  UNL     1      25.668   3.034  50.962  1.00  0.00     0.035 A 
HETATM    8  C20 UNL     1      26.738   2.291  51.467  1.00  0.00     0.050 A 
ENDROOT
BRANCH   7   9
HETATM    9  N1  UNL     1      25.784   3.587  49.668  1.00  0.00    -0.341 N 
HETATM   10  H5  UNL     1      25.333   3.074  48.856  1.00  0.00     0.167 HD
BRANCH   9  11
HETATM   11  C8  UNL     1      26.441   4.777  49.331  1.00  0.00     0.123 A 
HETATM   12  N2  UNL     1      25.818   5.822  49.678  1.00  0.00    -0.266 NA
HETATM   13  C9  UNL     1      25.952   7.236  49.624  1.00  0.00     0.218 A 
HETATM   14  C10 UNL     1      27.180   7.745  48.980  1.00  0.00     0.099 A 
HETATM   15  C14 UNL     1      28.201   7.114  48.429  1.00  0.00     0.099 A 
HETATM   16  C18 UNL     1      28.484   5.713  48.258  1.00  0.00     0.043 A 
HETATM   17  C19 UNL     1      27.709   4.733  48.657  1.00  0.00     0.053 A 
BRANCH  14  18
HETATM   18  O1  UNL     1      27.037   9.096  49.075  1.00  0.00    -0.349 OA
BRANCH  18  19
HETATM   19  C11 UNL     1      25.893   9.863  49.233  1.00  0.00     0.201 C 
BRANCH  19  20
HETATM   20  C12 UNL     1      25.772  10.958  48.183  1.00  0.00     0.193 C 
BRANCH  20  21
HETATM   21  O2  UNL     1      26.371  12.141  48.552  1.00  0.00    -0.394 OA
HETATM   22  C13 UNL     1      25.908  13.230  47.857  1.00  0.00     0.201 C 
ENDBRANCH  20  21
ENDBRANCH  19  20
ENDBRANCH  18  19
ENDBRANCH  14  18
BRANCH  15  23
HETATM   23  O3  UNL     1      29.142   7.996  47.944  1.00  0.00    -0.346 OA
BRANCH  23  24
HETATM   24  C15 UNL     1      30.474   8.053  48.433  1.00  0.00     0.201 C 
BRANCH  24  25
HETATM   25  C16 UNL     1      30.590   9.249  49.324  1.00  0.00     0.193 C 
BRANCH  25  26
HETATM   26  O4  UNL     1      30.010  10.395  48.853  1.00  0.00    -0.394 OA
HETATM   27  C17 UNL     1      30.781  11.526  48.879  1.00  0.00     0.201 C 
ENDBRANCH  25  26
ENDBRANCH  24  25
ENDBRANCH  23  24
ENDBRANCH  15  23
ENDBRANCH   9  11
ENDBRANCH   7   9
TORSDOF 10
ENDMDL
MODEL 6
REMARK VINA RESULT:      -6.3      4.203      8.763
REMARK  10 active torsions:
REMARK  status: ('A' for Active; 'I' for Inactive)
REMARK    1  A    between atoms: C7_7  and  N1_8 
REMARK    2  A    between atoms: N1_8  and  C8_9 
REMARK    3  A    between atoms: C10_12  and  O1_13 
REMARK    4  A    between atoms: O1_13  and  C11_14 
REMARK    5  A    between atoms: C11_14  and  C12_15 
REMARK    6  A    between atoms: C12_15  and  O2_16 
REMARK    7  A    between atoms: C14_18  and  O3_19 
REMARK    8  A    between atoms: O3_19  and  C15_20 
REMARK    9  A    between atoms: C15_20  and  C16_21 
REMARK   10  A    between atoms: C16_21  and  O4_22 
ROOT
HETATM    1  C1  UNL     1      22.647  -0.867  54.012  1.00  0.00     0.018 C 
HETATM    2  C2  UNL     1      23.510  -0.244  53.433  1.00  0.00    -0.078 C 
HETATM    3  C3  UNL     1      24.546   0.475  52.741  1.00  0.00     0.019 A 
HETATM    4  C4  UNL     1      25.854   0.054  52.827  1.00  0.00     0.021 A 
HETATM    5  C5  UNL     1      26.854   0.748  52.161  1.00  0.00     0.004 A 
HETATM    6  C6  UNL     1      26.455   1.846  51.435  1.00  0.00     0.029 A 
HETATM    7  C7  UNL     1      25.185   2.332  51.295  1.00  0.00     0.035 A 
HETATM    8  C20 UNL     1      24.241   1.579  51.997  1.00  0.00     0.050 A 
ENDROOT
BRANCH   7   9
HETATM    9  N1  UNL     1      24.740   3.448  50.553  1.00  0.00    -0.341 N 
HETATM   10  H5  UNL     1      23.697   3.566  50.393  1.00  0.00     0.167 HD
BRANCH   9  11
HETATM   11  C8  UNL     1      25.546   4.447  49.994  1.00  0.00     0.123 A 
HETATM   12  N2  UNL     1      25.150   5.622  50.243  1.00  0.00    -0.266 NA
HETATM   13  C9  UNL     1      25.513   6.971  49.977  1.00  0.00     0.218 A 
HETATM   14  C10 UNL     1      26.730   7.164  49.162  1.00  0.00     0.099 A 
HETATM   15  C14 UNL     1      27.563   6.295  48.619  1.00  0.00     0.099 A 
HETATM   16  C18 UNL     1      27.586   4.856  48.624  1.00  0.00     0.043 A 
HETATM   17  C19 UNL     1      26.706   4.090  49.225  1.00  0.00     0.053 A 
BRANCH  14  18
HETATM   18  O1  UNL     1      26.827   8.520  49.077  1.00  0.00    -0.349 OA
BRANCH  18  19
HETATM   19  C11 UNL     1      25.905   9.455  48.633  1.00  0.00     0.201 C 
BRANCH  19  20
HETATM   20  C12 UNL     1      25.737   9.440  47.121  1.00  0.00     0.193 C 
BRANCH  20  21
HETATM   21  O2  UNL     1      26.930   9.452  46.436  1.00  0.00    -0.394 OA
HETATM   22  C13 UNL     1      26.875   8.809  45.225  1.00  0.00     0.201 C 
ENDBRANCH  20  21
ENDBRANCH  19  20
ENDBRANCH  18  19
ENDBRANCH  14  18
BRANCH  15  23
HETATM   23  O3  UNL     1      28.579   6.925  47.934  1.00  0.00    -0.346 OA
BRANCH  23  24
HETATM   24  C15 UNL     1      29.945   6.561  48.070  1.00  0.00     0.201 C 
BRANCH  24  25
HETATM   25  C16 UNL     1      30.709   7.779  48.484  1.00  0.00     0.193 C 
BRANCH  25  26
HETATM   26  O4  UNL     1      30.022   8.672  49.261  1.00  0.00    -0.394 OA
HETATM   27  C17 UNL     1      30.647   9.862  49.524  1.00  0.00     0.201 C 
ENDBRANCH  25  26
ENDBRANCH  24  25
ENDBRANCH  23  24
ENDBRANCH  15  23
ENDBRANCH   9  11
ENDBRANCH   7   9
TORSDOF 10
ENDMDL
MODEL 7
REMARK VINA RESULT:      -6.3      3.827      6.598
REMARK  10 active torsions:
REMARK  status: ('A' for Active; 'I' for Inactive)
REMARK    1  A    between atoms: C7_7  and  N1_8 
REMARK    2  A    between atoms: N1_8  and  C8_9 
REMARK    3  A    between atoms: C10_12  and  O1_13 
REMARK    4  A    between atoms: O1_13  and  C11_14 
REMARK    5  A    between atoms: C11_14  and  C12_15 
REMARK    6  A    between atoms: C12_15  and  O2_16 
REMARK    7  A    between atoms: C14_18  and  O3_19 
REMARK    8  A    between atoms: O3_19  and  C15_20 
REMARK    9  A    between atoms: C15_20  and  C16_21 
REMARK   10  A    between atoms: C16_21  and  O4_22 
ROOT
HETATM    1  C1  UNL     1      28.893  -2.740  53.123  1.00  0.00     0.018 C 
HETATM    2  C2  UNL     1      28.781  -1.539  53.242  1.00  0.00    -0.078 C 
HETATM    3  C3  UNL     1      28.671  -0.112  53.386  1.00  0.00     0.019 A 
HETATM    4  C4  UNL     1      29.437   0.547  54.321  1.00  0.00     0.021 A 
HETATM    5  C5  UNL     1      29.331   1.924  54.462  1.00  0.00     0.004 A 
HETATM    6  C6  UNL     1      28.437   2.555  53.629  1.00  0.00     0.029 A 
HETATM    7  C7  UNL     1      27.641   1.982  52.678  1.00  0.00     0.035 A 
HETATM    8  C20 UNL     1      27.807   0.597  52.601  1.00  0.00     0.050 A 
ENDROOT
BRANCH   7   9
HETATM    9  N1  UNL     1      26.722   2.599  51.801  1.00  0.00    -0.341 N 
HETATM   10  H5  UNL     1      27.100   3.175  50.994  1.00  0.00     0.167 HD
BRANCH   9  11
HETATM   11  C8  UNL     1      25.325   2.526  51.879  1.00  0.00     0.123 A 
HETATM   12  N2  UNL     1      24.727   3.298  51.074  1.00  0.00    -0.266 NA
HETATM   13  C9  UNL     1      23.406   3.662  50.696  1.00  0.00     0.218 A 
HETATM   14  C10 UNL     1      22.315   2.969  51.412  1.00  0.00     0.099 A 
HETATM   15  C14 UNL     1      22.339   2.053  52.363  1.00  0.00     0.099 A 
HETATM   16  C18 UNL     1      23.430   1.404  53.042  1.00  0.00     0.043 A 
HETATM   17  C19 UNL     1      24.702   1.628  52.811  1.00  0.00     0.053 A 
BRANCH  14  18
HETATM   18  O1  UNL     1      21.195   3.505  50.851  1.00  0.00    -0.349 OA
BRANCH  18  19
HETATM   19  C11 UNL     1      20.590   4.734  51.066  1.00  0.00     0.201 C 
BRANCH  19  20
HETATM   20  C12 UNL     1      20.433   5.542  49.787  1.00  0.00     0.193 C 
BRANCH  20  21
HETATM   21  O2  UNL     1      20.495   4.777  48.644  1.00  0.00    -0.394 OA
HETATM   22  C13 UNL     1      21.454   5.196  47.756  1.00  0.00     0.201 C 
ENDBRANCH  20  21
ENDBRANCH  19  20
ENDBRANCH  18  19
ENDBRANCH  14  18
BRANCH  15  23
HETATM   23  O3  UNL     1      21.068   1.681  52.743  1.00  0.00    -0.346 OA
BRANCH  23  24
HETATM   24  C15 UNL     1      20.713   0.340  53.047  1.00  0.00     0.201 C 
BRANCH  24  25
HETATM   25  C16 UNL     1      20.599   0.218  54.533  1.00  0.00     0.193 C 
BRANCH  25  26
HETATM   26  O4  UNL     1      21.400  -0.729  55.112  1.00  0.00    -0.394 OA
HETATM   27  C17 UNL     1      21.729  -1.809  54.336  1.00  0.00     0.201 C 
ENDBRANCH  25  26
ENDBRANCH  24  25
ENDBRANCH  23  24
ENDBRANCH  15  23
ENDBRANCH   9  11
ENDBRANCH   7   9
TORSDOF 10
ENDMDL
MODEL 8
REMARK VINA RESULT:      -6.3      7.659     10.602
REMARK  10 active torsions:
REMARK  status: ('A' for Active; 'I' for Inactive)
REMARK    1  A    between atoms: C7_7  and  N1_8 
REMARK    2  A    between atoms: N1_8  and  C8_9 
REMARK    3  A    between atoms: C10_12  and  O1_13 
REMARK    4  A    between atoms: O1_13  and  C11_14 
REMARK    5  A    between atoms: C11_14  and  C12_15 
REMARK    6  A    between atoms: C12_15  and  O2_16 
REMARK    7  A    between atoms: C14_18  and  O3_19 
REMARK    8  A    between atoms: O3_19  and  C15_20 
REMARK    9  A    between atoms: C15_20  and  C16_21 
REMARK   10  A    between atoms: C16_21  and  O4_22 
ROOT
HETATM    1  C1  UNL     1      33.104   5.506  42.786  1.00  0.00     0.018 C 
HETATM    2  C2  UNL     1      33.400   5.064  43.875  1.00  0.00    -0.078 C 
HETATM    3  C3  UNL     1      33.772   4.543  45.164  1.00  0.00     0.019 A 
HETATM    4  C4  UNL     1      34.926   3.806  45.302  1.00  0.00     0.021 A 
HETATM    5  C5  UNL     1      35.287   3.303  46.544  1.00  0.00     0.004 A 
HETATM    6  C6  UNL     1      34.435   3.586  47.587  1.00  0.00     0.029 A 
HETATM    7  C7  UNL     1      33.275   4.307  47.539  1.00  0.00     0.035 A 
HETATM    8  C20 UNL     1      32.985   4.775  46.256  1.00  0.00     0.050 A 
ENDROOT
BRANCH   7   9
HETATM    9  N1  UNL     1      32.384   4.624  48.588  1.00  0.00    -0.341 N 
HETATM   10  H5  UNL     1      32.382   4.009  49.454  1.00  0.00     0.167 HD
BRANCH   9  11
HETATM   11  C8  UNL     1      31.484   5.696  48.615  1.00  0.00     0.123 A 
HETATM   12  N2  UNL     1      31.956   6.748  49.135  1.00  0.00    -0.266 NA
HETATM   13  C9  UNL     1      31.567   8.082  49.436  1.00  0.00     0.218 A 
HETATM   14  C10 UNL     1      30.190   8.455  49.051  1.00  0.00     0.099 A 
HETATM   15  C14 UNL     1      29.229   7.762  48.468  1.00  0.00     0.099 A 
HETATM   16  C18 UNL     1      29.176   6.401  48.000  1.00  0.00     0.043 A 
HETATM   17  C19 UNL     1      30.161   5.538  48.077  1.00  0.00     0.053 A 
BRANCH  14  18
HETATM   18  O1  UNL     1      30.105   9.755  49.449  1.00  0.00    -0.349 OA
BRANCH  18  19
HETATM   19  C11 UNL     1      30.679  10.894  48.906  1.00  0.00     0.201 C 
BRANCH  19  20
HETATM   20  C12 UNL     1      30.333  11.083  47.437  1.00  0.00     0.193 C 
BRANCH  20  21
HETATM   21  O2  UNL     1      31.399  10.879  46.591  1.00  0.00    -0.394 OA
HETATM   22  C13 UNL     1      32.613  11.185  47.155  1.00  0.00     0.201 C 
ENDBRANCH  20  21
ENDBRANCH  19  20
ENDBRANCH  18  19
ENDBRANCH  14  18
BRANCH  15  23
HETATM   23  O3  UNL     1      28.090   8.517  48.295  1.00  0.00    -0.346 OA
BRANCH  23  24
HETATM   24  C15 UNL     1      26.876   8.256  48.984  1.00  0.00     0.201 C 
BRANCH  24  25
HETATM   25  C16 UNL     1      26.527   9.471  49.783  1.00  0.00     0.193 C 
BRANCH  25  26
HETATM   26  O4  UNL     1      26.860  10.669  49.214  1.00  0.00    -0.394 OA
HETATM   27  C17 UNL     1      25.977  11.179  48.299  1.00  0.00     0.201 C 
ENDBRANCH  25  26
ENDBRANCH  24  25
ENDBRANCH  23  24
ENDBRANCH  15  23
ENDBRANCH   9  11
ENDBRANCH   7   9
TORSDOF 10
ENDMDL
MODEL 9
REMARK VINA RESULT:      -6.2      5.918      9.420
REMARK  10 active torsions:
REMARK  status: ('A' for Active; 'I' for Inactive)
REMARK    1  A    between atoms: C7_7  and  N1_8 
REMARK    2  A    between atoms: N1_8  and  C8_9 
REMARK    3  A    between atoms: C10_12  and  O1_13 
REMARK    4  A    between atoms: O1_13  and  C11_14 
REMARK    5  A    between atoms: C11_14  and  C12_15 
REMARK    6  A    between atoms: C12_15  and  O2_16 
REMARK    7  A    between atoms: C14_18  and  O3_19 
REMARK    8  A    between atoms: O3_19  and  C15_20 
REMARK    9  A    between atoms: C15_20  and  C16_21 
REMARK   10  A    between atoms: C16_21  and  O4_22 
ROOT
HETATM    1  C1  UNL     1      31.850   0.375  46.526  1.00  0.00     0.018 C 
HETATM    2  C2  UNL     1      32.414   1.433  46.706  1.00  0.00    -0.078 C 
HETATM    3  C3  UNL     1      33.085   2.690  46.897  1.00  0.00     0.019 A 
HETATM    4  C4  UNL     1      34.141   3.038  46.085  1.00  0.00     0.021 A 
HETATM    5  C5  UNL     1      34.790   4.251  46.269  1.00  0.00     0.004 A 
HETATM    6  C6  UNL     1      34.317   5.048  47.285  1.00  0.00     0.029 A 
HETATM    7  C7  UNL     1      33.280   4.783  48.134  1.00  0.00     0.035 A 
HETATM    8  C20 UNL     1      32.683   3.545  47.883  1.00  0.00     0.050 A 
ENDROOT
BRANCH   7   9
HETATM    9  N1  UNL     1      32.763   5.580  49.179  1.00  0.00    -0.341 N 
HETATM   10  H5  UNL     1      33.203   5.501  50.141  1.00  0.00     0.167 HD
BRANCH   9  11
HETATM   11  C8  UNL     1      31.707   6.495  49.078  1.00  0.00     0.123 A 
HETATM   12  N2  UNL     1      30.632   5.989  48.645  1.00  0.00    -0.266 NA
HETATM   13  C9  UNL     1      29.297   6.371  48.339  1.00  0.00     0.218 A 
HETATM   14  C10 UNL     1      28.961   7.790  48.573  1.00  0.00     0.099 A 
HETATM   15  C14 UNL     1      29.689   8.796  49.022  1.00  0.00     0.099 A 
HETATM   16  C18 UNL     1      31.063   8.873  49.443  1.00  0.00     0.043 A 
HETATM   17  C19 UNL     1      31.905   7.867  49.456  1.00  0.00     0.053 A 
BRANCH  14  18
HETATM   18  O1  UNL     1      27.651   7.858  48.204  1.00  0.00    -0.349 OA
BRANCH  18  19
HETATM   19  C11 UNL     1      26.534   7.257  48.763  1.00  0.00     0.201 C 
BRANCH  19  20
HETATM   20  C12 UNL     1      26.153   7.862  50.106  1.00  0.00     0.193 C 
BRANCH  20  21
HETATM   21  O2  UNL     1      24.861   7.581  50.487  1.00  0.00    -0.394 OA
HETATM   22  C13 UNL     1      24.609   6.239  50.625  1.00  0.00     0.201 C 
ENDBRANCH  20  21
ENDBRANCH  19  20
ENDBRANCH  18  19
ENDBRANCH  14  18
BRANCH  15  23
HETATM   23  O3  UNL     1      28.960   9.964  49.084  1.00  0.00    -0.346 OA
BRANCH  23  24
HETATM   24  C15 UNL     1      29.155  11.046  48.185  1.00  0.00     0.201 C 
BRANCH  24  25
HETATM   25  C16 UNL     1      27.920  11.891  48.204  1.00  0.00     0.193 C 
BRANCH  25  26
HETATM   26  O4  UNL     1      26.867  11.382  48.914  1.00  0.00    -0.394 OA
HETATM   27  C17 UNL     1      25.724  11.115  48.208  1.00  0.00     0.201 C 
ENDBRANCH  25  26
ENDBRANCH  24  25
ENDBRANCH  23  24
ENDBRANCH  15  23
ENDBRANCH   9  11
ENDBRANCH   7   9
TORSDOF 10
ENDMDL
