MODEL 1
REMARK VINA RESULT:      -6.9      0.000      0.000
REMARK  5 active torsions:
REMARK  status: ('A' for Active; 'I' for Inactive)
REMARK    1  A    between atoms: C3_3  and  C4_4 
REMARK    2  A    between atoms: C5_6  and  C6_7 
REMARK    3  A    between atoms: C7_8  and  S1_9 
REMARK    4  A    between atoms: S1_9  and  N1_12 
REMARK       I    between atoms: N1_12  and  C8_13 
REMARK    5  A    between atoms: C8_13  and  C9_15 
ROOT
HETATM    1  S1  UNL     1      21.553   2.372  51.800  1.00  0.00     0.255 S 
HETATM    2  O1  UNL     1      20.510   1.463  52.412  1.00  0.00    -0.201 OA
HETATM    3  O2  UNL     1      21.003   3.774  51.930  1.00  0.00    -0.201 OA
ENDROOT
BRANCH   1   4
HETATM    4  C7  UNL     1      21.863   1.957  50.147  1.00  0.00     0.131 C 
HETATM    5  C6  UNL     1      22.587   2.821  49.435  1.00  0.00     0.015 C 
BRANCH   5   6
HETATM    6  C5  UNL     1      23.197   4.095  49.776  1.00  0.00     0.020 C 
HETATM    7  C4  UNL     1      24.428   4.470  50.168  1.00  0.00     0.010 C 
HETATM    8 BR1  UNL     1      24.666   6.346  50.487  1.00  0.00    -0.051 Br
BRANCH   7   9
HETATM    9  C3  UNL     1      25.541   3.563  50.354  1.00  0.00     0.014 C 
HETATM   10  C2  UNL     1      26.730   3.591  49.801  1.00  0.00    -0.030 C 
HETATM   11  C1  UNL     1      27.181   4.615  48.828  1.00  0.00     0.036 C 
ENDBRANCH   7   9
ENDBRANCH   5   6
ENDBRANCH   1   4
BRANCH   1  12
HETATM   12  N1  UNL     1      23.035   2.273  52.708  1.00  0.00    -0.247 N 
HETATM   13  C8  UNL     1      23.481   0.921  52.770  1.00  0.00     0.266 C 
HETATM   14  O3  UNL     1      22.704   0.138  52.161  1.00  0.00    -0.267 OA
HETATM   15  H9  UNL     1      23.593   3.034  53.176  1.00  0.00     0.182 HD
BRANCH  13  16
HETATM   16  C9  UNL     1      24.718   0.537  53.480  1.00  0.00     0.051 A 
HETATM   17  C10 UNL     1      24.875  -0.563  54.304  1.00  0.00     0.133 A 
HETATM   18  N2  UNL     1      26.068  -0.782  54.883  1.00  0.00    -0.271 NA
HETATM   19  C11 UNL     1      27.081   0.065  54.651  1.00  0.00     0.135 A 
HETATM   20  C12 UNL     1      27.027   1.178  53.854  1.00  0.00     0.029 A 
HETATM   21 BR2  UNL     1      28.526   2.314  53.594  1.00  0.00    -0.050 Br
HETATM   22  C13 UNL     1      25.792   1.403  53.258  1.00  0.00     0.039 A 
ENDBRANCH  13  16
ENDBRANCH   1  12
TORSDOF 5
ENDMDL
MODEL 2
REMARK VINA RESULT:      -6.9      3.386      4.679
REMARK  5 active torsions:
REMARK  status: ('A' for Active; 'I' for Inactive)
REMARK    1  A    between atoms: C3_3  and  C4_4 
REMARK    2  A    between atoms: C5_6  and  C6_7 
REMARK    3  A    between atoms: C7_8  and  S1_9 
REMARK    4  A    between atoms: S1_9  and  N1_12 
REMARK       I    between atoms: N1_12  and  C8_13 
REMARK    5  A    between atoms: C8_13  and  C9_15 
ROOT
HETATM    1  S1  UNL     1      24.741   3.885  50.850  1.00  0.00     0.255 S 
HETATM    2  O1  UNL     1      25.619   4.977  50.275  1.00  0.00    -0.201 OA
HETATM    3  O2  UNL     1      24.600   2.853  49.754  1.00  0.00    -0.201 OA
ENDROOT
BRANCH   1   4
HETATM    4  C7  UNL     1      23.202   4.506  51.346  1.00  0.00     0.131 C 
HETATM    5  C6  UNL     1      22.424   3.688  52.055  1.00  0.00     0.015 C 
BRANCH   5   6
HETATM    6  C5  UNL     1      22.609   2.322  52.516  1.00  0.00     0.020 C 
HETATM    7  C4  UNL     1      22.344   1.112  51.992  1.00  0.00     0.010 C 
HETATM    8 BR1  UNL     1      22.815  -0.390  53.085  1.00  0.00    -0.051 Br
BRANCH   7   9
HETATM    9  C3  UNL     1      21.746   0.896  50.691  1.00  0.00     0.014 C 
HETATM   10  C2  UNL     1      20.505   0.588  50.395  1.00  0.00    -0.030 C 
HETATM   11  C1  UNL     1      19.425   0.394  51.391  1.00  0.00     0.036 C 
ENDBRANCH   7   9
ENDBRANCH   5   6
ENDBRANCH   1   4
BRANCH   1  12
HETATM   12  N1  UNL     1      25.532   3.143  52.211  1.00  0.00    -0.247 N 
HETATM   13  C8  UNL     1      26.704   2.457  51.783  1.00  0.00     0.266 C 
HETATM   14  O3  UNL     1      26.880   2.554  50.538  1.00  0.00    -0.267 OA
HETATM   15  H9  UNL     1      25.264   3.144  53.230  1.00  0.00     0.182 HD
BRANCH  13  16
HETATM   16  C9  UNL     1      27.577   1.732  52.728  1.00  0.00     0.051 A 
HETATM   17  C10 UNL     1      28.319   2.298  53.748  1.00  0.00     0.133 A 
HETATM   18  N2  UNL     1      29.071   1.504  54.530  1.00  0.00    -0.271 NA
HETATM   19  C11 UNL     1      29.087   0.182  54.307  1.00  0.00     0.135 A 
HETATM   20  C12 UNL     1      28.390  -0.473  53.327  1.00  0.00     0.029 A 
HETATM   21 BR2  UNL     1      28.485  -2.355  53.098  1.00  0.00    -0.050 Br
HETATM   22  C13 UNL     1      27.615   0.350  52.519  1.00  0.00     0.039 A 
ENDBRANCH  13  16
ENDBRANCH   1  12
TORSDOF 5
ENDMDL
MODEL 3
REMARK VINA RESULT:      -6.8      3.308      4.803
REMARK  5 active torsions:
REMARK  status: ('A' for Active; 'I' for Inactive)
REMARK    1  A    between atoms: C3_3  and  C4_4 
REMARK    2  A    between atoms: C5_6  and  C6_7 
REMARK    3  A    between atoms: C7_8  and  S1_9 
REMARK    4  A    between atoms: S1_9  and  N1_12 
REMARK       I    between atoms: N1_12  and  C8_13 
REMARK    5  A    between atoms: C8_13  and  C9_15 
ROOT
HETATM    1  S1  UNL     1      26.309   1.356  52.254  1.00  0.00     0.255 S 
HETATM    2  O1  UNL     1      26.671   2.118  53.510  1.00  0.00    -0.201 OA
HETATM    3  O2  UNL     1      27.154   0.103  52.277  1.00  0.00    -0.201 OA
ENDROOT
BRANCH   1   4
HETATM    4  C7  UNL     1      26.603   2.300  50.832  1.00  0.00     0.131 C 
HETATM    5  C6  UNL     1      25.690   3.221  50.523  1.00  0.00     0.015 C 
BRANCH   5   6
HETATM    6  C5  UNL     1      24.444   3.613  51.160  1.00  0.00     0.020 C 
HETATM    7  C4  UNL     1      23.190   3.820  50.720  1.00  0.00     0.010 C 
HETATM    8 BR1  UNL     1      21.914   4.340  52.053  1.00  0.00    -0.051 Br
BRANCH   7   9
HETATM    9  C3  UNL     1      22.772   3.676  49.342  1.00  0.00     0.014 C 
HETATM   10  C2  UNL     1      22.231   2.638  48.748  1.00  0.00    -0.030 C 
HETATM   11  C1  UNL     1      21.930   1.349  49.415  1.00  0.00     0.036 C 
ENDBRANCH   7   9
ENDBRANCH   5   6
ENDBRANCH   1   4
BRANCH   1  12
HETATM   12  N1  UNL     1      24.631   0.893  52.303  1.00  0.00    -0.247 N 
HETATM   13  C8  UNL     1      24.369   0.125  53.474  1.00  0.00     0.266 C 
HETATM   14  O3  UNL     1      25.403  -0.030  54.178  1.00  0.00    -0.267 OA
HETATM   15  H9  UNL     1      23.853   1.099  51.623  1.00  0.00     0.182 HD
BRANCH  13  16
HETATM   16  C9  UNL     1      23.025  -0.404  53.779  1.00  0.00     0.051 A 
HETATM   17  C10 UNL     1      22.707  -1.276  54.804  1.00  0.00     0.133 A 
HETATM   18  N2  UNL     1      21.431  -1.671  54.956  1.00  0.00    -0.271 NA
HETATM   19  C11 UNL     1      20.493  -1.214  54.115  1.00  0.00     0.135 A 
HETATM   20  C12 UNL     1      20.705  -0.351  53.072  1.00  0.00     0.029 A 
HETATM   21 BR2  UNL     1      19.301   0.235  51.938  1.00  0.00    -0.050 Br
HETATM   22  C13 UNL     1      22.025   0.055  52.917  1.00  0.00     0.039 A 
ENDBRANCH  13  16
ENDBRANCH   1  12
TORSDOF 5
ENDMDL
MODEL 4
REMARK VINA RESULT:      -6.8      3.100      4.151
REMARK  5 active torsions:
REMARK  status: ('A' for Active; 'I' for Inactive)
REMARK    1  A    between atoms: C3_3  and  C4_4 
REMARK    2  A    between atoms: C5_6  and  C6_7 
REMARK    3  A    between atoms: C7_8  and  S1_9 
REMARK    4  A    between atoms: S1_9  and  N1_12 
REMARK       I    between atoms: N1_12  and  C8_13 
REMARK    5  A    between atoms: C8_13  and  C9_15 
ROOT
HETATM    1  S1  UNL     1      24.868   4.548  50.179  1.00  0.00     0.255 S 
HETATM    2  O1  UNL     1      23.831   5.586  50.549  1.00  0.00    -0.201 OA
HETATM    3  O2  UNL     1      26.078   5.326  49.712  1.00  0.00    -0.201 OA
ENDROOT
BRANCH   1   4
HETATM    4  C7  UNL     1      24.282   3.478  48.949  1.00  0.00     0.131 C 
HETATM    5  C6  UNL     1      23.072   2.952  49.138  1.00  0.00     0.015 C 
BRANCH   5   6
HETATM    6  C5  UNL     1      22.101   3.097  50.209  1.00  0.00     0.020 C 
HETATM    7  C4  UNL     1      21.589   2.261  51.130  1.00  0.00     0.010 C 
HETATM    8 BR1  UNL     1      20.301   3.026  52.326  1.00  0.00    -0.051 Br
BRANCH   7   9
HETATM    9  C3  UNL     1      21.949   0.864  51.259  1.00  0.00     0.014 C 
HETATM   10  C2  UNL     1      22.726   0.291  52.147  1.00  0.00    -0.030 C 
HETATM   11  C1  UNL     1      23.419   1.006  53.245  1.00  0.00     0.036 C 
ENDBRANCH   7   9
ENDBRANCH   5   6
ENDBRANCH   1   4
BRANCH   1  12
HETATM   12  N1  UNL     1      25.313   3.624  51.585  1.00  0.00    -0.247 N 
HETATM   13  C8  UNL     1      26.432   2.793  51.292  1.00  0.00     0.266 C 
HETATM   14  O3  UNL     1      26.821   2.928  50.100  1.00  0.00    -0.267 OA
HETATM   15  H9  UNL     1      24.885   3.611  52.548  1.00  0.00     0.182 HD
BRANCH  13  16
HETATM   16  C9  UNL     1      27.028   1.896  52.302  1.00  0.00     0.051 A 
HETATM   17  C10 UNL     1      27.706   2.290  53.441  1.00  0.00     0.133 A 
HETATM   18  N2  UNL     1      28.195   1.351  54.269  1.00  0.00    -0.271 NA
HETATM   19  C11 UNL     1      28.016   0.055  53.978  1.00  0.00     0.135 A 
HETATM   20  C12 UNL     1      27.360  -0.436  52.880  1.00  0.00     0.029 A 
HETATM   21 BR2  UNL     1      27.163  -2.297  52.563  1.00  0.00    -0.050 Br
HETATM   22  C13 UNL     1      26.857   0.537  52.024  1.00  0.00     0.039 A 
ENDBRANCH  13  16
ENDBRANCH   1  12
TORSDOF 5
ENDMDL
MODEL 5
REMARK VINA RESULT:      -6.7      2.031      2.626
REMARK  5 active torsions:
REMARK  status: ('A' for Active; 'I' for Inactive)
REMARK    1  A    between atoms: C3_3  and  C4_4 
REMARK    2  A    between atoms: C5_6  and  C6_7 
REMARK    3  A    between atoms: C7_8  and  S1_9 
REMARK    4  A    between atoms: S1_9  and  N1_12 
REMARK       I    between atoms: N1_12  and  C8_13 
REMARK    5  A    between atoms: C8_13  and  C9_15 
ROOT
HETATM    1  S1  UNL     1      22.244  -0.010  52.662  1.00  0.00     0.255 S 
HETATM    2  O1  UNL     1      22.422  -1.471  53.014  1.00  0.00    -0.201 OA
HETATM    3  O2  UNL     1      21.519   0.609  53.834  1.00  0.00    -0.201 OA
ENDROOT
BRANCH   1   4
HETATM    4  C7  UNL     1      21.357   0.182  51.186  1.00  0.00     0.131 C 
HETATM    5  C6  UNL     1      21.213   1.426  50.729  1.00  0.00     0.015 C 
BRANCH   5   6
HETATM    6  C5  UNL     1      21.667   2.710  51.236  1.00  0.00     0.020 C 
HETATM    7  C4  UNL     1      22.514   3.651  50.782  1.00  0.00     0.010 C 
HETATM    8 BR1  UNL     1      22.735   5.187  51.907  1.00  0.00    -0.051 Br
BRANCH   7   9
HETATM    9  C3  UNL     1      23.241   3.564  49.532  1.00  0.00     0.014 C 
HETATM   10  C2  UNL     1      24.519   3.341  49.335  1.00  0.00    -0.030 C 
HETATM   11  C1  UNL     1      25.512   3.125  50.414  1.00  0.00     0.036 C 
ENDBRANCH   7   9
ENDBRANCH   5   6
ENDBRANCH   1   4
BRANCH   1  12
HETATM   12  N1  UNL     1      23.799   0.757  52.505  1.00  0.00    -0.247 N 
HETATM   13  C8  UNL     1      24.680   0.289  53.521  1.00  0.00     0.266 C 
HETATM   14  O3  UNL     1      24.126  -0.554  54.276  1.00  0.00    -0.267 OA
HETATM   15  H9  UNL     1      24.134   1.467  51.803  1.00  0.00     0.182 HD
BRANCH  13  16
HETATM   16  C9  UNL     1      26.072   0.769  53.633  1.00  0.00     0.051 A 
HETATM   17  C10 UNL     1      26.468   2.080  53.827  1.00  0.00     0.133 A 
HETATM   18  N2  UNL     1      27.779   2.363  53.908  1.00  0.00    -0.271 NA
HETATM   19  C11 UNL     1      28.677   1.373  53.802  1.00  0.00     0.135 A 
HETATM   20  C12 UNL     1      28.388   0.048  53.610  1.00  0.00     0.029 A 
HETATM   21 BR2  UNL     1      29.741  -1.276  53.473  1.00  0.00    -0.050 Br
HETATM   22  C13 UNL     1      27.031  -0.242  53.525  1.00  0.00     0.039 A 
ENDBRANCH  13  16
ENDBRANCH   1  12
TORSDOF 5
ENDMDL
MODEL 6
REMARK VINA RESULT:      -6.7      3.943      6.968
REMARK  5 active torsions:
REMARK  status: ('A' for Active; 'I' for Inactive)
REMARK    1  A    between atoms: C3_3  and  C4_4 
REMARK    2  A    between atoms: C5_6  and  C6_7 
REMARK    3  A    between atoms: C7_8  and  S1_9 
REMARK    4  A    between atoms: S1_9  and  N1_12 
REMARK       I    between atoms: N1_12  and  C8_13 
REMARK    5  A    between atoms: C8_13  and  C9_15 
ROOT
HETATM    1  S1  UNL     1      24.945   3.578  50.885  1.00  0.00     0.255 S 
HETATM    2  O1  UNL     1      23.993   4.640  51.394  1.00  0.00    -0.201 OA
HETATM    3  O2  UNL     1      24.226   2.897  49.743  1.00  0.00    -0.201 OA
ENDROOT
BRANCH   1   4
HETATM    4  C7  UNL     1      25.368   2.456  52.135  1.00  0.00     0.131 C 
HETATM    5  C6  UNL     1      24.361   1.888  52.799  1.00  0.00     0.015 C 
BRANCH   5   6
HETATM    6  C5  UNL     1      22.918   2.024  52.687  1.00  0.00     0.020 C 
HETATM    7  C4  UNL     1      21.902   1.152  52.558  1.00  0.00     0.010 C 
HETATM    8 BR1  UNL     1      20.151   1.923  52.451  1.00  0.00    -0.051 Br
BRANCH   7   9
HETATM    9  C3  UNL     1      22.059  -0.286  52.500  1.00  0.00     0.014 C 
HETATM   10  C2  UNL     1      22.074  -1.155  53.484  1.00  0.00    -0.030 C 
HETATM   11  C1  UNL     1      21.927  -0.806  54.917  1.00  0.00     0.036 C 
ENDBRANCH   7   9
ENDBRANCH   5   6
ENDBRANCH   1   4
BRANCH   1  12
HETATM   12  N1  UNL     1      26.390   4.323  50.265  1.00  0.00    -0.247 N 
HETATM   13  C8  UNL     1      26.061   5.236  49.222  1.00  0.00     0.266 C 
HETATM   14  O3  UNL     1      24.820   5.280  49.006  1.00  0.00    -0.267 OA
HETATM   15  H9  UNL     1      27.395   4.188  50.549  1.00  0.00     0.182 HD
BRANCH  13  16
HETATM   16  C9  UNL     1      27.093   6.015  48.509  1.00  0.00     0.051 A 
HETATM   17  C10 UNL     1      26.907   7.239  47.892  1.00  0.00     0.133 A 
HETATM   18  N2  UNL     1      27.948   7.828  47.279  1.00  0.00    -0.271 NA
HETATM   19  C11 UNL     1      29.144   7.223  47.278  1.00  0.00     0.135 A 
HETATM   20  C12 UNL     1      29.430   6.015  47.858  1.00  0.00     0.029 A 
HETATM   21 BR2  UNL     1      31.163   5.245  47.797  1.00  0.00    -0.050 Br
HETATM   22  C13 UNL     1      28.352   5.407  48.490  1.00  0.00     0.039 A 
ENDBRANCH  13  16
ENDBRANCH   1  12
TORSDOF 5
ENDMDL
MODEL 7
REMARK VINA RESULT:      -6.7      3.220      6.397
REMARK  5 active torsions:
REMARK  status: ('A' for Active; 'I' for Inactive)
REMARK    1  A    between atoms: C3_3  and  C4_4 
REMARK    2  A    between atoms: C5_6  and  C6_7 
REMARK    3  A    between atoms: C7_8  and  S1_9 
REMARK    4  A    between atoms: S1_9  and  N1_12 
REMARK       I    between atoms: N1_12  and  C8_13 
REMARK    5  A    between atoms: C8_13  and  C9_15 
ROOT
HETATM    1  S1  UNL     1      23.661   4.385  51.543  1.00  0.00     0.255 S 
HETATM    2  O1  UNL     1      23.755   4.306  53.052  1.00  0.00    -0.201 OA
HETATM    3  O2  UNL     1      22.386   5.144  51.252  1.00  0.00    -0.201 OA
ENDROOT
BRANCH   1   4
HETATM    4  C7  UNL     1      23.646   2.809  50.826  1.00  0.00     0.131 C 
HETATM    5  C6  UNL     1      24.685   2.018  51.091  1.00  0.00     0.015 C 
BRANCH   5   6
HETATM    6  C5  UNL     1      25.881   2.214  51.893  1.00  0.00     0.020 C 
HETATM    7  C4  UNL     1      26.830   1.394  52.378  1.00  0.00     0.010 C 
HETATM    8 BR1  UNL     1      28.214   2.234  53.404  1.00  0.00    -0.051 Br
BRANCH   7   9
HETATM    9  C3  UNL     1      26.858  -0.039  52.171  1.00  0.00     0.014 C 
HETATM   10  C2  UNL     1      26.273  -0.985  52.868  1.00  0.00    -0.030 C 
HETATM   11  C1  UNL     1      25.429  -0.750  54.063  1.00  0.00     0.036 C 
ENDBRANCH   7   9
ENDBRANCH   5   6
ENDBRANCH   1   4
BRANCH   1  12
HETATM   12  N1  UNL     1      25.003   5.295  50.911  1.00  0.00    -0.247 N 
HETATM   13  C8  UNL     1      24.826   5.525  49.516  1.00  0.00     0.266 C 
HETATM   14  O3  UNL     1      23.754   5.020  49.087  1.00  0.00    -0.267 OA
HETATM   15  H9  UNL     1      25.860   5.665  51.401  1.00  0.00     0.182 HD
BRANCH  13  16
HETATM   16  C9  UNL     1      25.813   6.275  48.714  1.00  0.00     0.051 A 
HETATM   17  C10 UNL     1      25.558   7.403  47.957  1.00  0.00     0.133 A 
HETATM   18  N2  UNL     1      26.566   7.977  47.277  1.00  0.00    -0.271 NA
HETATM   19  C11 UNL     1      27.795   7.447  47.345  1.00  0.00     0.135 A 
HETATM   20  C12 UNL     1      28.149   6.337  48.064  1.00  0.00     0.029 A 
HETATM   21 BR2  UNL     1      29.926   5.669  48.091  1.00  0.00    -0.050 Br
HETATM   22  C13 UNL     1      27.106   5.744  48.765  1.00  0.00     0.039 A 
ENDBRANCH  13  16
ENDBRANCH   1  12
TORSDOF 5
ENDMDL
MODEL 8
REMARK VINA RESULT:      -6.7      3.281      4.576
REMARK  5 active torsions:
REMARK  status: ('A' for Active; 'I' for Inactive)
REMARK    1  A    between atoms: C3_3  and  C4_4 
REMARK    2  A    between atoms: C5_6  and  C6_7 
REMARK    3  A    between atoms: C7_8  and  S1_9 
REMARK    4  A    between atoms: S1_9  and  N1_12 
REMARK       I    between atoms: N1_12  and  C8_13 
REMARK    5  A    between atoms: C8_13  and  C9_15 
ROOT
HETATM    1  S1  UNL     1      22.511   2.464  50.531  1.00  0.00     0.255 S 
HETATM    2  O1  UNL     1      23.326   3.153  49.457  1.00  0.00    -0.201 OA
HETATM    3  O2  UNL     1      21.472   1.648  49.796  1.00  0.00    -0.201 OA
ENDROOT
BRANCH   1   4
HETATM    4  C7  UNL     1      21.783   3.610  51.606  1.00  0.00     0.131 C 
HETATM    5  C6  UNL     1      20.701   3.207  52.273  1.00  0.00     0.015 C 
BRANCH   5   6
HETATM    6  C5  UNL     1      19.976   1.948  52.283  1.00  0.00     0.020 C 
HETATM    7  C4  UNL     1      20.020   0.846  53.054  1.00  0.00     0.010 C 
HETATM    8 BR1  UNL     1      18.791  -0.548  52.587  1.00  0.00    -0.051 Br
BRANCH   7   9
HETATM    9  C3  UNL     1      20.915   0.669  54.178  1.00  0.00     0.014 C 
HETATM   10  C2  UNL     1      21.928  -0.156  54.305  1.00  0.00    -0.030 C 
HETATM   11  C1  UNL     1      22.367  -1.115  53.263  1.00  0.00     0.036 C 
ENDBRANCH   7   9
ENDBRANCH   5   6
ENDBRANCH   1   4
BRANCH   1  12
HETATM   12  N1  UNL     1      23.524   1.380  51.441  1.00  0.00    -0.247 N 
HETATM   13  C8  UNL     1      24.605   2.097  52.029  1.00  0.00     0.266 C 
HETATM   14  O3  UNL     1      24.565   3.325  51.749  1.00  0.00    -0.267 OA
HETATM   15  H9  UNL     1      23.435   0.341  51.595  1.00  0.00     0.182 HD
BRANCH  13  16
HETATM   16  C9  UNL     1      25.627   1.431  52.861  1.00  0.00     0.051 A 
HETATM   17  C10 UNL     1      26.232   1.960  53.986  1.00  0.00     0.133 A 
HETATM   18  N2  UNL     1      27.150   1.228  54.641  1.00  0.00    -0.271 NA
HETATM   19  C11 UNL     1      27.461   0.004  54.194  1.00  0.00     0.135 A 
HETATM   20  C12 UNL     1      26.920  -0.608  53.094  1.00  0.00     0.029 A 
HETATM   21 BR2  UNL     1      27.434  -2.352  52.547  1.00  0.00    -0.050 Br
HETATM   22  C13 UNL     1      25.972   0.150  52.418  1.00  0.00     0.039 A 
ENDBRANCH  13  16
ENDBRANCH   1  12
TORSDOF 5
ENDMDL
MODEL 9
REMARK VINA RESULT:      -6.6      3.409      5.377
REMARK  5 active torsions:
REMARK  status: ('A' for Active; 'I' for Inactive)
REMARK    1  A    between atoms: C3_3  and  C4_4 
REMARK    2  A    between atoms: C5_6  and  C6_7 
REMARK    3  A    between atoms: C7_8  and  S1_9 
REMARK    4  A    between atoms: S1_9  and  N1_12 
REMARK       I    between atoms: N1_12  and  C8_13 
REMARK    5  A    between atoms: C8_13  and  C9_15 
ROOT
HETATM    1  S1  UNL     1      24.354   2.878  50.974  1.00  0.00     0.255 S 
HETATM    2  O1  UNL     1      23.503   3.121  49.746  1.00  0.00    -0.201 OA
HETATM    3  O2  UNL     1      24.013   3.994  51.936  1.00  0.00    -0.201 OA
ENDROOT
BRANCH   1   4
HETATM    4  C7  UNL     1      26.041   2.864  50.582  1.00  0.00     0.131 C 
HETATM    5  C6  UNL     1      26.848   2.215  51.421  1.00  0.00     0.015 C 
BRANCH   5   6
HETATM    6  C5  UNL     1      26.592   1.485  52.651  1.00  0.00     0.020 C 
HETATM    7  C4  UNL     1      27.370   1.021  53.646  1.00  0.00     0.010 C 
HETATM    8 BR1  UNL     1      26.458   0.102  55.059  1.00  0.00    -0.051 Br
BRANCH   7   9
HETATM    9  C3  UNL     1      28.809   1.178  53.701  1.00  0.00     0.014 C 
HETATM   10  C2  UNL     1      29.743   0.263  53.591  1.00  0.00    -0.030 C 
HETATM   11  C1  UNL     1      29.485  -1.181  53.379  1.00  0.00     0.036 C 
ENDBRANCH   7   9
ENDBRANCH   5   6
ENDBRANCH   1   4
BRANCH   1  12
HETATM   12  N1  UNL     1      23.918   1.361  51.709  1.00  0.00    -0.247 N 
HETATM   13  C8  UNL     1      22.673   1.486  52.388  1.00  0.00     0.266 C 
HETATM   14  O3  UNL     1      22.197   2.650  52.293  1.00  0.00    -0.267 OA
HETATM   15  H9  UNL     1      24.428   0.440  51.707  1.00  0.00     0.182 HD
BRANCH  13  16
HETATM   16  C9  UNL     1      22.055   0.353  53.105  1.00  0.00     0.051 A 
HETATM   17  C10 UNL     1      22.700  -0.511  53.971  1.00  0.00     0.133 A 
HETATM   18  N2  UNL     1      21.999  -1.501  54.551  1.00  0.00    -0.271 NA
HETATM   19  C11 UNL     1      20.693  -1.631  54.282  1.00  0.00     0.135 A 
HETATM   20  C12 UNL     1      19.965  -0.830  53.442  1.00  0.00     0.029 A 
HETATM   21 BR2  UNL     1      18.112  -1.105  53.131  1.00  0.00    -0.050 Br
HETATM   22  C13 UNL     1      20.691   0.192  52.843  1.00  0.00     0.039 A 
ENDBRANCH  13  16
ENDBRANCH   1  12
TORSDOF 5
ENDMDL
