MODEL 1
REMARK VINA RESULT:      -8.0      0.000      0.000
REMARK  6 active torsions:
REMARK  status: ('A' for Active; 'I' for Inactive)
REMARK    1  A    between atoms: C9_11  and  C10_12 
REMARK    2  A    between atoms: C10_12  and  C11_13 
REMARK    3  A    between atoms: C11_13  and  O1_14 
REMARK    4  A    between atoms: O1_14  and  C12_15 
REMARK    5  A    between atoms: C12_15  and  C13_16 
REMARK    6  A    between atoms: C13_16  and  O2_17 
ROOT
HETATM    1  C1  UNL     1      20.988  -1.890  54.225  1.00  0.00     0.017 C 
HETATM    2  C2  UNL     1      21.927  -1.179  54.000  1.00  0.00    -0.082 C 
HETATM    3  C3  UNL     1      23.085  -0.289  53.698  1.00  0.00    -0.001 C 
HETATM    4  C4  UNL     1      23.376   0.690  52.796  1.00  0.00     0.042 C 
HETATM    5  C5  UNL     1      22.694   1.380  51.627  1.00  0.00     0.013 C 
HETATM    6  C6  UNL     1      23.473   2.279  51.125  1.00  0.00     0.068 C 
HETATM    7  C7  UNL     1      24.110   3.320  50.378  1.00  0.00     0.105 A 
HETATM    8  N1  UNL     1      23.909   4.336  49.790  1.00  0.00    -0.402 NA
HETATM    9  C8  UNL     1      23.823   5.397  49.155  1.00  0.00     0.299 A 
HETATM   10  N2  UNL     1      25.107   5.420  48.900  1.00  0.00    -0.230 NA
HETATM   11  C9  UNL     1      25.938   4.466  49.332  1.00  0.00     0.072 A 
HETATM   12  C15 UNL     1      25.430   3.423  50.071  1.00  0.00     0.051 A 
HETATM   13  C16 UNL     1      26.446   2.708  50.488  1.00  0.00     0.151 C 
HETATM   14  O3  UNL     1      27.026   1.684  51.239  1.00  0.00    -0.360 OA
HETATM   15  C17 UNL     1      27.606   2.133  52.466  1.00  0.00     0.200 C 
HETATM   16  C18 UNL     1      28.308   1.115  53.257  1.00  0.00     0.194 C 
HETATM   17  O4  UNL     1      27.500   0.045  53.654  1.00  0.00    -0.385 OA
HETATM   18  C19 UNL     1      26.375   0.622  54.242  1.00  0.00     0.195 C 
HETATM   19  C20 UNL     1      25.481  -0.364  54.861  1.00  0.00     0.000 C 
HETATM   20  C21 UNL     1      24.225  -0.587  54.528  1.00  0.00     0.014 C 
ENDROOT
BRANCH  11  21
HETATM   21  C10 UNL     1      27.242   4.662  48.968  1.00  0.00     0.032 C 
BRANCH  21  22
HETATM   22  C11 UNL     1      27.657   6.013  48.531  1.00  0.00     0.197 C 
BRANCH  22  23
HETATM   23  O1  UNL     1      28.808   6.053  47.794  1.00  0.00    -0.385 OA
BRANCH  23  24
HETATM   24  C12 UNL     1      29.989   5.888  48.455  1.00  0.00     0.194 C 
BRANCH  24  25
HETATM   25  C13 UNL     1      30.865   7.107  48.124  1.00  0.00     0.193 C 
BRANCH  25  26
HETATM   26  O2  UNL     1      30.945   7.865  49.292  1.00  0.00    -0.394 OA
HETATM   27  C14 UNL     1      30.220   9.033  49.222  1.00  0.00     0.201 C 
ENDBRANCH  25  26
ENDBRANCH  24  25
ENDBRANCH  23  24
ENDBRANCH  22  23
ENDBRANCH  21  22
ENDBRANCH  11  21
TORSDOF 6
ENDMDL
MODEL 2
REMARK VINA RESULT:      -7.9      3.614      9.370
REMARK  6 active torsions:
REMARK  status: ('A' for Active; 'I' for Inactive)
REMARK    1  A    between atoms: C9_11  and  C10_12 
REMARK    2  A    between atoms: C10_12  and  C11_13 
REMARK    3  A    between atoms: C11_13  and  O1_14 
REMARK    4  A    between atoms: O1_14  and  C12_15 
REMARK    5  A    between atoms: C12_15  and  C13_16 
REMARK    6  A    between atoms: C13_16  and  O2_17 
ROOT
HETATM    1  C1  UNL     1      28.697   5.472  48.185  1.00  0.00     0.017 C 
HETATM    2  C2  UNL     1      27.691   5.109  48.726  1.00  0.00    -0.082 C 
HETATM    3  C3  UNL     1      26.449   4.634  49.403  1.00  0.00    -0.001 C 
HETATM    4  C4  UNL     1      26.107   3.634  50.261  1.00  0.00     0.042 C 
HETATM    5  C5  UNL     1      26.792   2.475  50.968  1.00  0.00     0.013 C 
HETATM    6  C6  UNL     1      25.943   1.836  51.700  1.00  0.00     0.068 C 
HETATM    7  C7  UNL     1      25.235   0.953  52.576  1.00  0.00     0.105 A 
HETATM    8  N1  UNL     1      25.341   0.304  53.570  1.00  0.00    -0.402 NA
HETATM    9  C8  UNL     1      25.332  -0.406  54.586  1.00  0.00     0.299 A 
HETATM   10  N2  UNL     1      24.089  -0.773  54.392  1.00  0.00    -0.230 NA
HETATM   11  C9  UNL     1      23.370  -0.339  53.352  1.00  0.00     0.072 A 
HETATM   12  C15 UNL     1      23.952   0.525  52.453  1.00  0.00     0.051 A 
HETATM   13  C16 UNL     1      23.016   0.909  51.619  1.00  0.00     0.151 C 
HETATM   14  O3  UNL     1      22.522   1.687  50.571  1.00  0.00    -0.360 OA
HETATM   15  C17 UNL     1      21.764   2.818  51.006  1.00  0.00     0.200 C 
HETATM   16  C18 UNL     1      21.146   3.625  49.948  1.00  0.00     0.194 C 
HETATM   17  O4  UNL     1      22.060   4.177  49.045  1.00  0.00    -0.385 OA
HETATM   18  C19 UNL     1      23.024   4.812  49.828  1.00  0.00     0.195 C 
HETATM   19  C20 UNL     1      23.987   5.586  49.036  1.00  0.00     0.000 C 
HETATM   20  C21 UNL     1      25.289   5.383  48.988  1.00  0.00     0.014 C 
ENDROOT
BRANCH  11  21
HETATM   21  C10 UNL     1      22.094  -0.830  53.319  1.00  0.00     0.032 C 
BRANCH  21  22
HETATM   22  C11 UNL     1      21.167  -0.460  54.410  1.00  0.00     0.197 C 
BRANCH  22  23
HETATM   23  O1  UNL     1      19.840  -0.538  54.093  1.00  0.00    -0.385 OA
BRANCH  23  24
HETATM   24  C12 UNL     1      19.480  -0.274  52.804  1.00  0.00     0.194 C 
BRANCH  24  25
HETATM   25  C13 UNL     1      18.089  -0.893  52.589  1.00  0.00     0.193 C 
BRANCH  25  26
HETATM   26  O2  UNL     1      17.804  -1.632  53.736  1.00  0.00    -0.394 OA
HETATM   27  C14 UNL     1      17.418  -2.923  53.457  1.00  0.00     0.201 C 
ENDBRANCH  25  26
ENDBRANCH  24  25
ENDBRANCH  23  24
ENDBRANCH  22  23
ENDBRANCH  21  22
ENDBRANCH  11  21
TORSDOF 6
ENDMDL
MODEL 3
REMARK VINA RESULT:      -7.9      3.356      5.767
REMARK  6 active torsions:
REMARK  status: ('A' for Active; 'I' for Inactive)
REMARK    1  A    between atoms: C9_11  and  C10_12 
REMARK    2  A    between atoms: C10_12  and  C11_13 
REMARK    3  A    between atoms: C11_13  and  O1_14 
REMARK    4  A    between atoms: O1_14  and  C12_15 
REMARK    5  A    between atoms: C12_15  and  C13_16 
REMARK    6  A    between atoms: C13_16  and  O2_17 
ROOT
HETATM    1  C1  UNL     1      16.653   0.061  49.650  1.00  0.00     0.017 C 
HETATM    2  C2  UNL     1      17.621   0.131  50.353  1.00  0.00    -0.082 C 
HETATM    3  C3  UNL     1      18.840   0.225  51.208  1.00  0.00    -0.001 C 
HETATM    4  C4  UNL     1      20.091   0.753  51.100  1.00  0.00     0.042 C 
HETATM    5  C5  UNL     1      20.907   1.507  50.063  1.00  0.00     0.013 C 
HETATM    6  C6  UNL     1      22.080   1.775  50.529  1.00  0.00     0.068 C 
HETATM    7  C7  UNL     1      23.424   2.198  50.778  1.00  0.00     0.105 A 
HETATM    8  N1  UNL     1      24.211   3.065  50.555  1.00  0.00    -0.402 NA
HETATM    9  C8  UNL     1      25.111   3.900  50.393  1.00  0.00     0.299 A 
HETATM   10  N2  UNL     1      25.966   3.208  51.104  1.00  0.00    -0.230 NA
HETATM   11  C9  UNL     1      25.644   2.041  51.670  1.00  0.00     0.072 A 
HETATM   12  C15 UNL     1      24.371   1.547  51.503  1.00  0.00     0.051 A 
HETATM   13  C16 UNL     1      24.263   0.480  52.257  1.00  0.00     0.151 C 
HETATM   14  O3  UNL     1      23.549  -0.565  52.844  1.00  0.00    -0.360 OA
HETATM   15  C17 UNL     1      23.156  -0.302  54.194  1.00  0.00     0.200 C 
HETATM   16  C18 UNL     1      22.478  -1.400  54.892  1.00  0.00     0.194 C 
HETATM   17  O4  UNL     1      21.288  -1.812  54.285  1.00  0.00    -0.385 OA
HETATM   18  C19 UNL     1      20.545  -0.649  54.085  1.00  0.00     0.195 C 
HETATM   19  C20 UNL     1      19.187  -0.912  53.593  1.00  0.00     0.000 C 
HETATM   20  C21 UNL     1      18.684  -0.493  52.449  1.00  0.00     0.014 C 
ENDROOT
BRANCH  11  21
HETATM   21  C10 UNL     1      26.666   1.466  52.374  1.00  0.00     0.032 C 
BRANCH  21  22
HETATM   22  C11 UNL     1      27.362   2.278  53.397  1.00  0.00     0.197 C 
BRANCH  22  23
HETATM   23  O1  UNL     1      28.724   2.308  53.282  1.00  0.00    -0.385 OA
BRANCH  23  24
HETATM   24  C12 UNL     1      29.411   1.176  53.606  1.00  0.00     0.194 C 
BRANCH  24  25
HETATM   25  C13 UNL     1      28.666   0.516  54.777  1.00  0.00     0.193 C 
BRANCH  25  26
HETATM   26  O2  UNL     1      28.463  -0.816  54.416  1.00  0.00    -0.394 OA
HETATM   27  C14 UNL     1      29.320  -1.237  53.425  1.00  0.00     0.201 C 
ENDBRANCH  25  26
ENDBRANCH  24  25
ENDBRANCH  23  24
ENDBRANCH  22  23
ENDBRANCH  21  22
ENDBRANCH  11  21
TORSDOF 6
ENDMDL
MODEL 4
REMARK VINA RESULT:      -7.5      4.664      8.585
REMARK  6 active torsions:
REMARK  status: ('A' for Active; 'I' for Inactive)
REMARK    1  A    between atoms: C9_11  and  C10_12 
REMARK    2  A    between atoms: C10_12  and  C11_13 
REMARK    3  A    between atoms: C11_13  and  O1_14 
REMARK    4  A    between atoms: O1_14  and  C12_15 
REMARK    5  A    between atoms: C12_15  and  C13_16 
REMARK    6  A    between atoms: C13_16  and  O2_17 
ROOT
HETATM    1  C1  UNL     1      29.018  -0.627  53.565  1.00  0.00     0.017 C 
HETATM    2  C2  UNL     1      28.037  -0.062  53.172  1.00  0.00    -0.082 C 
HETATM    3  C3  UNL     1      26.802   0.620  52.685  1.00  0.00    -0.001 C 
HETATM    4  C4  UNL     1      25.462   0.379  52.704  1.00  0.00     0.042 C 
HETATM    5  C5  UNL     1      24.521  -0.702  53.210  1.00  0.00     0.013 C 
HETATM    6  C6  UNL     1      23.298  -0.384  52.950  1.00  0.00     0.068 C 
HETATM    7  C7  UNL     1      21.878  -0.293  52.793  1.00  0.00     0.105 A 
HETATM    8  N1  UNL     1      20.839  -0.557  53.312  1.00  0.00    -0.402 NA
HETATM    9  C8  UNL     1      19.703  -0.780  53.754  1.00  0.00     0.299 A 
HETATM   10  N2  UNL     1      19.125  -0.249  52.705  1.00  0.00    -0.230 NA
HETATM   11  C9  UNL     1      19.824   0.267  51.689  1.00  0.00     0.072 A 
HETATM   12  C15 UNL     1      21.199   0.242  51.744  1.00  0.00     0.051 A 
HETATM   13  C16 UNL     1      21.644   0.921  50.715  1.00  0.00     0.151 C 
HETATM   14  O3  UNL     1      22.651   1.521  49.959  1.00  0.00    -0.360 OA
HETATM   15  C17 UNL     1      22.773   2.928  50.182  1.00  0.00     0.200 C 
HETATM   16  C18 UNL     1      23.758   3.629  49.350  1.00  0.00     0.194 C 
HETATM   17  O4  UNL     1      25.068   3.163  49.503  1.00  0.00    -0.385 OA
HETATM   18  C19 UNL     1      25.307   3.158  50.877  1.00  0.00     0.195 C 
HETATM   19  C20 UNL     1      26.700   2.841  51.216  1.00  0.00     0.000 C 
HETATM   20  C21 UNL     1      27.106   1.812  51.933  1.00  0.00     0.014 C 
ENDROOT
BRANCH  11  21
HETATM   21  C10 UNL     1      19.048   0.776  50.685  1.00  0.00     0.032 C 
BRANCH  21  22
HETATM   22  C11 UNL     1      17.688   1.254  51.018  1.00  0.00     0.197 C 
BRANCH  22  23
HETATM   23  O1  UNL     1      17.626   2.533  51.496  1.00  0.00    -0.385 OA
BRANCH  23  24
HETATM   24  C12 UNL     1      17.113   3.492  50.674  1.00  0.00     0.194 C 
BRANCH  24  25
HETATM   25  C13 UNL     1      15.815   3.997  51.326  1.00  0.00     0.193 C 
BRANCH  25  26
HETATM   26  O2  UNL     1      16.067   4.075  52.696  1.00  0.00    -0.394 OA
HETATM   27  C14 UNL     1      14.941   4.374  53.429  1.00  0.00     0.201 C 
ENDBRANCH  25  26
ENDBRANCH  24  25
ENDBRANCH  23  24
ENDBRANCH  22  23
ENDBRANCH  21  22
ENDBRANCH  11  21
TORSDOF 6
ENDMDL
MODEL 5
REMARK VINA RESULT:      -7.5      3.042      9.056
REMARK  6 active torsions:
REMARK  status: ('A' for Active; 'I' for Inactive)
REMARK    1  A    between atoms: C9_11  and  C10_12 
REMARK    2  A    between atoms: C10_12  and  C11_13 
REMARK    3  A    between atoms: C11_13  and  O1_14 
REMARK    4  A    between atoms: O1_14  and  C12_15 
REMARK    5  A    between atoms: C12_15  and  C13_16 
REMARK    6  A    between atoms: C13_16  and  O2_17 
ROOT
HETATM    1  C1  UNL     1      29.158   8.055  46.054  1.00  0.00     0.017 C 
HETATM    2  C2  UNL     1      28.367   7.740  46.898  1.00  0.00    -0.082 C 
HETATM    3  C3  UNL     1      27.388   7.323  47.943  1.00  0.00    -0.001 C 
HETATM    4  C4  UNL     1      27.078   6.179  48.613  1.00  0.00     0.042 C 
HETATM    5  C5  UNL     1      27.546   4.733  48.647  1.00  0.00     0.013 C 
HETATM    6  C6  UNL     1      26.871   4.067  49.522  1.00  0.00     0.068 C 
HETATM    7  C7  UNL     1      26.291   3.098  50.401  1.00  0.00     0.105 A 
HETATM    8  N1  UNL     1      26.537   2.137  51.061  1.00  0.00    -0.402 NA
HETATM    9  C8  UNL     1      26.671   1.136  51.779  1.00  0.00     0.299 A 
HETATM   10  N2  UNL     1      25.401   1.121  52.100  1.00  0.00    -0.230 NA
HETATM   11  C9  UNL     1      24.535   2.026  51.633  1.00  0.00     0.072 A 
HETATM   12  C15 UNL     1      24.992   3.011  50.787  1.00  0.00     0.051 A 
HETATM   13  C16 UNL     1      23.999   3.843  50.585  1.00  0.00     0.151 C 
HETATM   14  O3  UNL     1      23.441   5.020  50.085  1.00  0.00    -0.360 OA
HETATM   15  C17 UNL     1      23.326   6.059  51.062  1.00  0.00     0.200 C 
HETATM   16  C18 UNL     1      22.666   7.291  50.616  1.00  0.00     0.194 C 
HETATM   17  O4  UNL     1      23.304   7.924  49.545  1.00  0.00    -0.385 OA
HETATM   18  C19 UNL     1      24.643   8.036  49.919  1.00  0.00     0.195 C 
HETATM   19  C20 UNL     1      25.440   8.824  48.970  1.00  0.00     0.000 C 
HETATM   20  C21 UNL     1      26.480   8.389  48.287  1.00  0.00     0.014 C 
ENDROOT
BRANCH  11  21
HETATM   21  C10 UNL     1      23.255   1.849  52.079  1.00  0.00     0.032 C 
BRANCH  21  22
HETATM   22  C11 UNL     1      22.346   0.990  51.289  1.00  0.00     0.197 C 
BRANCH  22  23
HETATM   23  O1  UNL     1      21.610   0.100  52.020  1.00  0.00    -0.385 OA
BRANCH  23  24
HETATM   24  C12 UNL     1      22.179  -0.416  53.147  1.00  0.00     0.194 C 
BRANCH  24  25
HETATM   25  C13 UNL     1      21.038  -0.976  54.012  1.00  0.00     0.193 C 
BRANCH  25  26
HETATM   26  O2  UNL     1      21.627  -1.452  55.183  1.00  0.00    -0.394 OA
HETATM   27  C14 UNL     1      22.998  -1.331  55.178  1.00  0.00     0.201 C 
ENDBRANCH  25  26
ENDBRANCH  24  25
ENDBRANCH  23  24
ENDBRANCH  22  23
ENDBRANCH  21  22
ENDBRANCH  11  21
TORSDOF 6
ENDMDL
MODEL 6
REMARK VINA RESULT:      -7.3      5.673      9.062
REMARK  6 active torsions:
REMARK  status: ('A' for Active; 'I' for Inactive)
REMARK    1  A    between atoms: C9_11  and  C10_12 
REMARK    2  A    between atoms: C10_12  and  C11_13 
REMARK    3  A    between atoms: C11_13  and  O1_14 
REMARK    4  A    between atoms: O1_14  and  C12_15 
REMARK    5  A    between atoms: C12_15  and  C13_16 
REMARK    6  A    between atoms: C13_16  and  O2_17 
ROOT
HETATM    1  C1  UNL     1      28.080   2.365  53.499  1.00  0.00     0.017 C 
HETATM    2  C2  UNL     1      26.947   2.042  53.276  1.00  0.00    -0.082 C 
HETATM    3  C3  UNL     1      25.531   1.665  52.999  1.00  0.00    -0.001 C 
HETATM    4  C4  UNL     1      24.411   2.285  52.533  1.00  0.00     0.042 C 
HETATM    5  C5  UNL     1      24.007   3.673  52.066  1.00  0.00     0.013 C 
HETATM    6  C6  UNL     1      22.766   3.680  51.712  1.00  0.00     0.068 C 
HETATM    7  C7  UNL     1      21.440   3.977  51.263  1.00  0.00     0.105 A 
HETATM    8  N1  UNL     1      20.816   4.634  50.489  1.00  0.00    -0.402 NA
HETATM    9  C8  UNL     1      20.065   5.265  49.733  1.00  0.00     0.299 A 
HETATM   10  N2  UNL     1      18.990   4.720  50.246  1.00  0.00    -0.230 NA
HETATM   11  C9  UNL     1      19.047   3.824  51.236  1.00  0.00     0.072 A 
HETATM   12  C15 UNL     1      20.276   3.458  51.735  1.00  0.00     0.051 A 
HETATM   13  C16 UNL     1      20.077   2.480  52.585  1.00  0.00     0.151 C 
HETATM   14  O3  UNL     1      20.508   1.469  53.445  1.00  0.00    -0.360 OA
HETATM   15  C17 UNL     1      20.476   0.166  52.857  1.00  0.00     0.200 C 
HETATM   16  C18 UNL     1      20.834  -0.949  53.742  1.00  0.00     0.194 C 
HETATM   17  O4  UNL     1      22.126  -0.864  54.270  1.00  0.00    -0.385 OA
HETATM   18  C19 UNL     1      22.964  -0.644  53.177  1.00  0.00     0.195 C 
HETATM   19  C20 UNL     1      24.389  -0.684  53.530  1.00  0.00     0.000 C 
HETATM   20  C21 UNL     1      25.248   0.307  53.392  1.00  0.00     0.014 C 
ENDROOT
BRANCH  11  21
HETATM   21  C10 UNL     1      17.823   3.366  51.640  1.00  0.00     0.032 C 
BRANCH  21  22
HETATM   22  C11 UNL     1      16.684   4.310  51.645  1.00  0.00     0.197 C 
BRANCH  22  23
HETATM   23  O1  UNL     1      16.110   4.517  52.868  1.00  0.00    -0.385 OA
BRANCH  23  24
HETATM   24  C12 UNL     1      14.924   3.894  53.124  1.00  0.00     0.194 C 
BRANCH  24  25
HETATM   25  C13 UNL     1      14.157   3.822  51.793  1.00  0.00     0.193 C 
BRANCH  25  26
HETATM   26  O2  UNL     1      12.802   3.892  52.114  1.00  0.00    -0.394 OA
HETATM   27  C14 UNL     1      12.562   4.611  53.262  1.00  0.00     0.201 C 
ENDBRANCH  25  26
ENDBRANCH  24  25
ENDBRANCH  23  24
ENDBRANCH  22  23
ENDBRANCH  21  22
ENDBRANCH  11  21
TORSDOF 6
ENDMDL
MODEL 7
REMARK VINA RESULT:      -7.2      6.148      9.906
REMARK  6 active torsions:
REMARK  status: ('A' for Active; 'I' for Inactive)
REMARK    1  A    between atoms: C9_11  and  C10_12 
REMARK    2  A    between atoms: C10_12  and  C11_13 
REMARK    3  A    between atoms: C11_13  and  O1_14 
REMARK    4  A    between atoms: O1_14  and  C12_15 
REMARK    5  A    between atoms: C12_15  and  C13_16 
REMARK    6  A    between atoms: C13_16  and  O2_17 
ROOT
HETATM    1  C1  UNL     1      26.754  -0.481  53.498  1.00  0.00     0.017 C 
HETATM    2  C2  UNL     1      25.728   0.120  53.347  1.00  0.00    -0.082 C 
HETATM    3  C3  UNL     1      24.440   0.847  53.152  1.00  0.00    -0.001 C 
HETATM    4  C4  UNL     1      23.123   0.520  53.033  1.00  0.00     0.042 C 
HETATM    5  C5  UNL     1      22.275  -0.741  53.021  1.00  0.00     0.013 C 
HETATM    6  C6  UNL     1      21.029  -0.438  52.882  1.00  0.00     0.068 C 
HETATM    7  C7  UNL     1      19.605  -0.397  52.737  1.00  0.00     0.105 A 
HETATM    8  N1  UNL     1      18.594  -0.931  53.072  1.00  0.00    -0.402 NA
HETATM    9  C8  UNL     1      17.482  -1.401  53.350  1.00  0.00     0.299 A 
HETATM   10  N2  UNL     1      16.857  -0.529  52.599  1.00  0.00    -0.230 NA
HETATM   11  C9  UNL     1      17.507   0.413  51.908  1.00  0.00     0.072 A 
HETATM   12  C15 UNL     1      18.879   0.471  51.986  1.00  0.00     0.051 A 
HETATM   13  C16 UNL     1      19.262   1.547  51.343  1.00  0.00     0.151 C 
HETATM   14  O3  UNL     1      20.213   2.481  50.930  1.00  0.00    -0.360 OA
HETATM   15  C17 UNL     1      20.223   3.674  51.719  1.00  0.00     0.200 C 
HETATM   16  C18 UNL     1      21.144   4.729  51.279  1.00  0.00     0.194 C 
HETATM   17  O4  UNL     1      22.487   4.342  51.261  1.00  0.00    -0.385 OA
HETATM   18  C19 UNL     1      22.734   3.785  52.515  1.00  0.00     0.195 C 
HETATM   19  C20 UNL     1      24.150   3.462  52.731  1.00  0.00     0.000 C 
HETATM   20  C21 UNL     1      24.642   2.263  52.970  1.00  0.00     0.014 C 
ENDROOT
BRANCH  11  21
HETATM   21  C10 UNL     1      16.686   1.233  51.184  1.00  0.00     0.032 C 
BRANCH  21  22
HETATM   22  C11 UNL     1      15.581   1.922  51.885  1.00  0.00     0.197 C 
BRANCH  22  23
HETATM   23  O1  UNL     1      15.010   2.952  51.191  1.00  0.00    -0.385 OA
BRANCH  23  24
HETATM   24  C12 UNL     1      14.157   3.775  51.866  1.00  0.00     0.194 C 
BRANCH  24  25
HETATM   25  C13 UNL     1      14.691   3.893  53.303  1.00  0.00     0.193 C 
BRANCH  25  26
HETATM   26  O2  UNL     1      13.857   4.797  53.961  1.00  0.00    -0.394 OA
HETATM   27  C14 UNL     1      12.575   4.322  54.121  1.00  0.00     0.201 C 
ENDBRANCH  25  26
ENDBRANCH  24  25
ENDBRANCH  23  24
ENDBRANCH  22  23
ENDBRANCH  21  22
ENDBRANCH  11  21
TORSDOF 6
ENDMDL
MODEL 8
REMARK VINA RESULT:      -7.2      2.830      7.131
REMARK  6 active torsions:
REMARK  status: ('A' for Active; 'I' for Inactive)
REMARK    1  A    between atoms: C9_11  and  C10_12 
REMARK    2  A    between atoms: C10_12  and  C11_13 
REMARK    3  A    between atoms: C11_13  and  O1_14 
REMARK    4  A    between atoms: O1_14  and  C12_15 
REMARK    5  A    between atoms: C12_15  and  C13_16 
REMARK    6  A    between atoms: C13_16  and  O2_17 
ROOT
HETATM    1  C1  UNL     1      20.397   8.984  49.775  1.00  0.00     0.017 C 
HETATM    2  C2  UNL     1      21.135   8.039  49.759  1.00  0.00    -0.082 C 
HETATM    3  C3  UNL     1      22.045   6.857  49.762  1.00  0.00    -0.001 C 
HETATM    4  C4  UNL     1      22.122   5.666  50.417  1.00  0.00     0.042 C 
HETATM    5  C5  UNL     1      21.345   4.919  51.489  1.00  0.00     0.013 C 
HETATM    6  C6  UNL     1      21.894   3.775  51.721  1.00  0.00     0.068 C 
HETATM    7  C7  UNL     1      22.284   2.476  52.180  1.00  0.00     0.105 A 
HETATM    8  N1  UNL     1      21.861   1.433  52.571  1.00  0.00    -0.402 NA
HETATM    9  C8  UNL     1      21.540   0.311  52.987  1.00  0.00     0.299 A 
HETATM   10  N2  UNL     1      22.788  -0.069  53.104  1.00  0.00    -0.230 NA
HETATM   11  C9  UNL     1      23.811   0.731  52.789  1.00  0.00     0.072 A 
HETATM   12  C15 UNL     1      23.547   2.000  52.326  1.00  0.00     0.051 A 
HETATM   13  C16 UNL     1      24.690   2.528  51.960  1.00  0.00     0.151 C 
HETATM   14  O3  UNL     1      25.473   3.523  51.375  1.00  0.00    -0.360 OA
HETATM   15  C17 UNL     1      25.863   3.227  50.031  1.00  0.00     0.200 C 
HETATM   16  C18 UNL     1      26.760   4.197  49.393  1.00  0.00     0.194 C 
HETATM   17  O4  UNL     1      26.230   5.488  49.299  1.00  0.00    -0.385 OA
HETATM   18  C19 UNL     1      24.969   5.335  48.723  1.00  0.00     0.195 C 
HETATM   19  C20 UNL     1      24.325   6.615  48.404  1.00  0.00     0.000 C 
HETATM   20  C21 UNL     1      23.183   7.050  48.898  1.00  0.00     0.014 C 
ENDROOT
BRANCH  11  21
HETATM   21  C10 UNL     1      25.039   0.159  52.975  1.00  0.00     0.032 C 
BRANCH  21  22
HETATM   22  C11 UNL     1      25.367  -0.389  54.309  1.00  0.00     0.197 C 
BRANCH  22  23
HETATM   23  O1  UNL     1      26.681  -0.723  54.489  1.00  0.00    -0.385 OA
BRANCH  23  24
HETATM   24  C12 UNL     1      27.568   0.290  54.702  1.00  0.00     0.194 C 
BRANCH  24  25
HETATM   25  C13 UNL     1      28.761   0.048  53.762  1.00  0.00     0.193 C 
BRANCH  25  26
HETATM   26  O2  UNL     1      28.909   1.210  53.005  1.00  0.00    -0.394 OA
HETATM   27  C14 UNL     1      28.342   2.312  53.603  1.00  0.00     0.201 C 
ENDBRANCH  25  26
ENDBRANCH  24  25
ENDBRANCH  23  24
ENDBRANCH  22  23
ENDBRANCH  21  22
ENDBRANCH  11  21
TORSDOF 6
ENDMDL
MODEL 9
REMARK VINA RESULT:      -7.0      4.923      7.819
REMARK  6 active torsions:
REMARK  status: ('A' for Active; 'I' for Inactive)
REMARK    1  A    between atoms: C9_11  and  C10_12 
REMARK    2  A    between atoms: C10_12  and  C11_13 
REMARK    3  A    between atoms: C11_13  and  O1_14 
REMARK    4  A    between atoms: O1_14  and  C12_15 
REMARK    5  A    between atoms: C12_15  and  C13_16 
REMARK    6  A    between atoms: C13_16  and  O2_17 
ROOT
HETATM    1  C1  UNL     1      28.455   0.312  54.898  1.00  0.00     0.017 C 
HETATM    2  C2  UNL     1      27.324   0.239  54.505  1.00  0.00    -0.082 C 
HETATM    3  C3  UNL     1      25.920   0.171  54.006  1.00  0.00    -0.001 C 
HETATM    4  C4  UNL     1      25.180   0.781  53.039  1.00  0.00     0.042 C 
HETATM    5  C5  UNL     1      25.379   1.849  51.976  1.00  0.00     0.013 C 
HETATM    6  C6  UNL     1      24.288   2.024  51.310  1.00  0.00     0.068 C 
HETATM    7  C7  UNL     1      23.237   2.423  50.425  1.00  0.00     0.105 A 
HETATM    8  N1  UNL     1      23.009   2.790  49.314  1.00  0.00    -0.402 NA
HETATM    9  C8  UNL     1      22.652   3.177  48.193  1.00  0.00     0.299 A 
HETATM   10  N2  UNL     1      21.392   3.239  48.549  1.00  0.00    -0.230 NA
HETATM   11  C9  UNL     1      20.982   2.921  49.780  1.00  0.00     0.072 A 
HETATM   12  C15 UNL     1      21.911   2.513  50.709  1.00  0.00     0.051 A 
HETATM   13  C16 UNL     1      21.254   2.130  51.777  1.00  0.00     0.151 C 
HETATM   14  O3  UNL     1      21.163   1.555  53.045  1.00  0.00    -0.360 OA
HETATM   15  C17 UNL     1      20.737   0.190  53.025  1.00  0.00     0.200 C 
HETATM   16  C18 UNL     1      20.539  -0.442  54.334  1.00  0.00     0.194 C 
HETATM   17  O4  UNL     1      21.687  -0.473  55.132  1.00  0.00    -0.385 OA
HETATM   18  C19 UNL     1      22.689  -1.013  54.327  1.00  0.00     0.195 C 
HETATM   19  C20 UNL     1      23.938  -1.266  55.057  1.00  0.00     0.000 C 
HETATM   20  C21 UNL     1      25.109  -0.721  54.796  1.00  0.00     0.014 C 
ENDROOT
BRANCH  11  21
HETATM   21  C10 UNL     1      19.632   3.048  49.963  1.00  0.00     0.032 C 
BRANCH  21  22
HETATM   22  C11 UNL     1      19.130   4.212  50.725  1.00  0.00     0.197 C 
BRANCH  22  23
HETATM   23  O1  UNL     1      18.308   3.905  51.774  1.00  0.00    -0.385 OA
BRANCH  23  24
HETATM   24  C12 UNL     1      17.257   3.071  51.532  1.00  0.00     0.194 C 
BRANCH  24  25
HETATM   25  C13 UNL     1      15.978   3.918  51.637  1.00  0.00     0.193 C 
BRANCH  25  26
HETATM   26  O2  UNL     1      15.944   4.422  52.937  1.00  0.00    -0.394 OA
HETATM   27  C14 UNL     1      14.709   4.291  53.529  1.00  0.00     0.201 C 
ENDBRANCH  25  26
ENDBRANCH  24  25
ENDBRANCH  23  24
ENDBRANCH  22  23
ENDBRANCH  21  22
ENDBRANCH  11  21
TORSDOF 6
ENDMDL
