MODEL 1
REMARK VINA RESULT:      -9.7      0.000      0.000
REMARK  2 active torsions:
REMARK  status: ('A' for Active; 'I' for Inactive)
REMARK    1  A    between atoms: N1_1  and  C1_2 
REMARK    2  A    between atoms: N4_10  and  C7_11 
ROOT
HETATM    1  C1  UNL     1      21.570  -0.473  54.214  1.00  0.00    -0.013 C 
HETATM    2  C2  UNL     1      22.920  -0.502  54.106  1.00  0.00     0.021 C 
HETATM    3  C3  UNL     1      23.910   0.359  53.538  1.00  0.00     0.037 C 
HETATM    4  C4  UNL     1      23.996   1.469  52.888  1.00  0.00     0.105 A 
HETATM    5  C5  UNL     1      22.898   2.333  52.466  1.00  0.00     0.158 A 
HETATM    6  N2  UNL     1      23.058   3.319  51.757  1.00  0.00    -0.220 NA
HETATM    7  C6  UNL     1      24.366   3.734  51.262  1.00  0.00     0.258 A 
HETATM    8  N3  UNL     1      25.393   3.037  51.586  1.00  0.00    -0.160 NA
HETATM    9  N4  UNL     1      25.251   1.906  52.393  1.00  0.00    -0.229 N 
HETATM   10  N5  UNL     1      21.493   2.588  52.547  1.00  0.00    -0.339 N 
HETATM   11  C13 UNL     1      20.440   1.909  51.840  1.00  0.00     0.036 C 
HETATM   12  C14 UNL     1      20.043   0.799  52.573  1.00  0.00    -0.048 C 
HETATM   13  C15 UNL     1      19.116  -0.331  52.567  1.00  0.00     0.040 C 
HETATM   14  C16 UNL     1      18.286  -0.387  51.329  1.00  0.00     0.031 C 
HETATM   15  C17 UNL     1      17.314   0.687  51.114  1.00  0.00    -0.030 C 
HETATM   16  C18 UNL     1      17.198   1.737  50.243  1.00  0.00    -0.027 C 
HETATM   17  C19 UNL     1      18.426   1.476  49.571  1.00  0.00     0.054 C 
HETATM   18  C20 UNL     1      19.354   2.689  49.575  1.00  0.00    -0.021 C 
HETATM   19  C21 UNL     1      20.110   2.641  50.621  1.00  0.00     0.026 C 
HETATM   20  C22 UNL     1      20.747   0.690  53.867  1.00  0.00     0.087 C 
HETATM   21  H10 UNL     1      20.929   3.233  53.052  1.00  0.00     0.167 HD
ENDROOT
BRANCH   9  22
HETATM   22  C7  UNL     1      26.442   1.233  52.692  1.00  0.00     0.060 A 
HETATM   23  C8  UNL     1      27.492   2.035  53.131  1.00  0.00     0.032 A 
HETATM   24  C9  UNL     1      28.712   1.473  53.483  1.00  0.00     0.004 A 
HETATM   25  C10 UNL     1      28.905   0.113  53.405  1.00  0.00     0.019 A 
HETATM   26  C11 UNL     1      27.908  -0.729  52.980  1.00  0.00     0.013 A 
HETATM   27 BR1  UNL     1      28.042  -2.638  52.824  1.00  0.00    -0.051 Br
HETATM   28  C12 UNL     1      26.724  -0.134  52.644  1.00  0.00     0.050 A 
ENDBRANCH   9  22
BRANCH   1  29
HETATM   29  N1  UNL     1      20.862  -1.549  54.858  1.00  0.00    -0.306 NA
HETATM   30  H1  UNL     1      20.785  -2.600  54.891  1.00  0.00     0.124 HD
HETATM   31  H2  UNL     1      20.809  -2.593  54.869  1.00  0.00     0.124 HD
ENDBRANCH   1  29
TORSDOF 2
ENDMDL
MODEL 2
REMARK VINA RESULT:      -9.3      3.749      7.210
REMARK  2 active torsions:
REMARK  status: ('A' for Active; 'I' for Inactive)
REMARK    1  A    between atoms: N1_1  and  C1_2 
REMARK    2  A    between atoms: N4_10  and  C7_11 
ROOT
HETATM    1  C1  UNL     1      25.600   3.013  51.172  1.00  0.00    -0.013 C 
HETATM    2  C2  UNL     1      25.086   3.480  50.009  1.00  0.00     0.021 C 
HETATM    3  C3  UNL     1      23.772   3.766  49.525  1.00  0.00     0.037 C 
HETATM    4  C4  UNL     1      22.544   3.705  49.911  1.00  0.00     0.105 A 
HETATM    5  C5  UNL     1      22.044   3.237  51.199  1.00  0.00     0.158 A 
HETATM    6  N2  UNL     1      20.852   3.109  51.449  1.00  0.00    -0.220 NA
HETATM    7  C6  UNL     1      19.805   3.416  50.480  1.00  0.00     0.258 A 
HETATM    8  N3  UNL     1      20.148   3.838  49.319  1.00  0.00    -0.160 NA
HETATM    9  N4  UNL     1      21.498   3.997  48.998  1.00  0.00    -0.229 N 
HETATM   10  N5  UNL     1      22.391   2.814  52.522  1.00  0.00    -0.339 N 
HETATM   11  C13 UNL     1      22.895   1.527  52.923  1.00  0.00     0.036 C 
HETATM   12  C14 UNL     1      24.279   1.527  52.812  1.00  0.00    -0.048 C 
HETATM   13  C15 UNL     1      25.462   0.691  53.001  1.00  0.00     0.040 C 
HETATM   14  C16 UNL     1      25.124  -0.693  53.443  1.00  0.00     0.031 C 
HETATM   15  C17 UNL     1      24.534  -0.856  54.773  1.00  0.00    -0.030 C 
HETATM   16  C18 UNL     1      23.301  -1.207  55.256  1.00  0.00    -0.027 C 
HETATM   17  C19 UNL     1      22.700  -1.345  53.973  1.00  0.00     0.054 C 
HETATM   18  C20 UNL     1      21.452  -0.477  53.826  1.00  0.00    -0.021 C 
HETATM   19  C21 UNL     1      21.791   0.678  53.357  1.00  0.00     0.026 C 
HETATM   20  C22 UNL     1      24.818   2.839  52.401  1.00  0.00     0.087 C 
HETATM   21  H10 UNL     1      22.375   3.244  53.418  1.00  0.00     0.167 HD
ENDROOT
BRANCH   9  22
HETATM   22  C7  UNL     1      21.752   4.477  47.707  1.00  0.00     0.060 A 
HETATM   23  C8  UNL     1      21.561   3.562  46.676  1.00  0.00     0.032 A 
HETATM   24  C9  UNL     1      21.756   3.935  45.353  1.00  0.00     0.004 A 
HETATM   25  C10 UNL     1      22.140   5.218  45.037  1.00  0.00     0.019 A 
HETATM   26  C11 UNL     1      22.343   6.164  46.009  1.00  0.00     0.013 A 
HETATM   27 BR1  UNL     1      22.878   7.984  45.708  1.00  0.00    -0.051 Br
HETATM   28  C12 UNL     1      22.140   5.755  47.297  1.00  0.00     0.050 A 
ENDBRANCH   9  22
BRANCH   1  29
HETATM   29  N1  UNL     1      27.020   2.821  51.324  1.00  0.00    -0.306 NA
HETATM   30  H1  UNL     1      27.757   2.538  52.022  1.00  0.00     0.124 HD
HETATM   31  H2  UNL     1      27.728   2.537  52.037  1.00  0.00     0.124 HD
ENDBRANCH   1  29
TORSDOF 2
ENDMDL
MODEL 3
REMARK VINA RESULT:      -9.3      5.972      8.674
REMARK  2 active torsions:
REMARK  status: ('A' for Active; 'I' for Inactive)
REMARK    1  A    between atoms: N1_1  and  C1_2 
REMARK    2  A    between atoms: N4_10  and  C7_11 
ROOT
HETATM    1  C1  UNL     1      24.095   7.125  50.329  1.00  0.00    -0.013 C 
HETATM    2  C2  UNL     1      25.062   8.015  50.000  1.00  0.00     0.021 C 
HETATM    3  C3  UNL     1      26.356   7.929  49.401  1.00  0.00     0.037 C 
HETATM    4  C4  UNL     1      27.174   7.044  48.942  1.00  0.00     0.105 A 
HETATM    5  C5  UNL     1      26.977   5.600  48.893  1.00  0.00     0.158 A 
HETATM    6  N2  UNL     1      27.850   4.816  48.539  1.00  0.00    -0.220 NA
HETATM    7  C6  UNL     1      29.180   5.250  48.127  1.00  0.00     0.258 A 
HETATM    8  N3  UNL     1      29.445   6.504  48.133  1.00  0.00    -0.160 NA
HETATM    9  N4  UNL     1      28.476   7.428  48.530  1.00  0.00    -0.229 N 
HETATM   10  N5  UNL     1      26.054   4.522  49.087  1.00  0.00    -0.339 N 
HETATM   11  C13 UNL     1      25.649   3.935  50.336  1.00  0.00     0.036 C 
HETATM   12  C14 UNL     1      24.566   4.643  50.840  1.00  0.00    -0.048 C 
HETATM   13  C15 UNL     1      23.633   4.702  51.963  1.00  0.00     0.040 C 
HETATM   14  C16 UNL     1      23.918   3.669  53.001  1.00  0.00     0.031 C 
HETATM   15  C17 UNL     1      23.719   2.266  52.635  1.00  0.00    -0.030 C 
HETATM   16  C18 UNL     1      24.539   1.190  52.416  1.00  0.00    -0.027 C 
HETATM   17  C19 UNL     1      25.748   1.910  52.634  1.00  0.00     0.054 C 
HETATM   18  C20 UNL     1      26.705   1.800  51.449  1.00  0.00    -0.021 C 
HETATM   19  C21 UNL     1      26.475   2.768  50.626  1.00  0.00     0.026 C 
HETATM   20  C22 UNL     1      24.112   5.714  49.929  1.00  0.00     0.087 C 
HETATM   21  H10 UNL     1      25.512   3.951  48.481  1.00  0.00     0.167 HD
ENDROOT
BRANCH   9  22
HETATM   22  C7  UNL     1      28.875   8.770  48.483  1.00  0.00     0.060 A 
HETATM   23  C8  UNL     1      29.925   9.115  49.329  1.00  0.00     0.032 A 
HETATM   24  C9  UNL     1      30.422  10.410  49.347  1.00  0.00     0.004 A 
HETATM   25  C10 UNL     1      29.887  11.377  48.527  1.00  0.00     0.019 A 
HETATM   26  C11 UNL     1      28.852  11.098  47.672  1.00  0.00     0.013 A 
HETATM   27 BR1  UNL     1      28.014  12.347  46.478  1.00  0.00    -0.051 Br
HETATM   28  C12 UNL     1      28.393   9.810  47.686  1.00  0.00     0.050 A 
ENDBRANCH   9  22
BRANCH   1  29
HETATM   29  N1  UNL     1      22.875   7.564  50.957  1.00  0.00    -0.306 NA
HETATM   30  H1  UNL     1      21.968   7.212  51.364  1.00  0.00     0.124 HD
HETATM   31  H2  UNL     1      21.985   7.186  51.353  1.00  0.00     0.124 HD
ENDBRANCH   1  29
TORSDOF 2
ENDMDL
MODEL 4
REMARK VINA RESULT:      -8.9      3.353      5.248
REMARK  2 active torsions:
REMARK  status: ('A' for Active; 'I' for Inactive)
REMARK    1  A    between atoms: N1_1  and  C1_2 
REMARK    2  A    between atoms: N4_10  and  C7_11 
ROOT
HETATM    1  C1  UNL     1      21.159   2.336  48.360  1.00  0.00    -0.013 C 
HETATM    2  C2  UNL     1      22.166   3.242  48.365  1.00  0.00     0.021 C 
HETATM    3  C3  UNL     1      23.377   3.406  49.106  1.00  0.00     0.037 C 
HETATM    4  C4  UNL     1      24.034   2.839  50.059  1.00  0.00     0.105 A 
HETATM    5  C5  UNL     1      23.661   1.638  50.798  1.00  0.00     0.158 A 
HETATM    6  N2  UNL     1      24.289   1.224  51.765  1.00  0.00    -0.220 NA
HETATM    7  C6  UNL     1      25.481   1.891  52.277  1.00  0.00     0.258 A 
HETATM    8  N3  UNL     1      25.889   2.954  51.688  1.00  0.00    -0.160 NA
HETATM    9  N4  UNL     1      25.199   3.457  50.583  1.00  0.00    -0.229 N 
HETATM   10  N5  UNL     1      22.747   0.540  50.891  1.00  0.00    -0.339 N 
HETATM   11  C13 UNL     1      21.410   0.560  51.421  1.00  0.00     0.036 C 
HETATM   12  C14 UNL     1      20.525   0.907  50.408  1.00  0.00    -0.048 C 
HETATM   13  C15 UNL     1      19.111   1.136  50.125  1.00  0.00     0.040 C 
HETATM   14  C16 UNL     1      18.252   0.995  51.337  1.00  0.00     0.031 C 
HETATM   15  C17 UNL     1      18.135  -0.337  51.935  1.00  0.00    -0.030 C 
HETATM   16  C18 UNL     1      18.567  -0.926  53.094  1.00  0.00    -0.027 C 
HETATM   17  C19 UNL     1      19.252   0.228  53.572  1.00  0.00     0.054 C 
HETATM   18  C20 UNL     1      20.719  -0.061  53.881  1.00  0.00    -0.021 C 
HETATM   19  C21 UNL     1      21.428   0.162  52.825  1.00  0.00     0.026 C 
HETATM   20  C22 UNL     1      21.193   1.071  49.101  1.00  0.00     0.087 C 
HETATM   21  H10 UNL     1      22.787  -0.423  50.648  1.00  0.00     0.167 HD
ENDROOT
BRANCH   9  22
HETATM   22  C7  UNL     1      25.745   4.614  50.014  1.00  0.00     0.060 A 
HETATM   23  C8  UNL     1      26.848   4.416  49.188  1.00  0.00     0.032 A 
HETATM   24  C9  UNL     1      27.454   5.489  48.548  1.00  0.00     0.004 A 
HETATM   25  C10 UNL     1      26.975   6.767  48.717  1.00  0.00     0.019 A 
HETATM   26  C11 UNL     1      25.892   7.025  49.518  1.00  0.00     0.013 A 
HETATM   27 BR1  UNL     1      25.122   8.755  49.841  1.00  0.00    -0.051 Br
HETATM   28  C12 UNL     1      25.325   5.941  50.128  1.00  0.00     0.050 A 
ENDBRANCH   9  22
BRANCH   1  29
HETATM   29  N1  UNL     1      20.042   2.485  47.463  1.00  0.00    -0.306 NA
HETATM   30  H1  UNL     1      19.754   2.362  46.456  1.00  0.00     0.124 HD
HETATM   31  H2  UNL     1      19.785   2.352  46.458  1.00  0.00     0.124 HD
ENDBRANCH   1  29
TORSDOF 2
ENDMDL
MODEL 5
REMARK VINA RESULT:      -8.8      3.168      8.194
REMARK  2 active torsions:
REMARK  status: ('A' for Active; 'I' for Inactive)
REMARK    1  A    between atoms: N1_1  and  C1_2 
REMARK    2  A    between atoms: N4_10  and  C7_11 
ROOT
HETATM    1  C1  UNL     1      22.490   3.925  51.276  1.00  0.00    -0.013 C 
HETATM    2  C2  UNL     1      21.231   3.550  50.944  1.00  0.00     0.021 C 
HETATM    3  C3  UNL     1      20.340   2.514  51.361  1.00  0.00     0.037 C 
HETATM    4  C4  UNL     1      20.306   1.507  52.165  1.00  0.00     0.105 A 
HETATM    5  C5  UNL     1      21.370   1.047  53.051  1.00  0.00     0.158 A 
HETATM    6  N2  UNL     1      21.295   0.015  53.707  1.00  0.00    -0.220 NA
HETATM    7  C6  UNL     1      20.130  -0.862  53.671  1.00  0.00     0.258 A 
HETATM    8  N3  UNL     1      19.141  -0.537  52.922  1.00  0.00    -0.160 NA
HETATM    9  N4  UNL     1      19.189   0.632  52.160  1.00  0.00    -0.229 N 
HETATM   10  N5  UNL     1      22.663   1.329  53.596  1.00  0.00    -0.339 N 
HETATM   11  C13 UNL     1      23.938   1.155  52.954  1.00  0.00     0.036 C 
HETATM   12  C14 UNL     1      24.246   2.304  52.238  1.00  0.00    -0.048 C 
HETATM   13  C15 UNL     1      25.263   2.902  51.377  1.00  0.00     0.040 C 
HETATM   14  C16 UNL     1      26.397   1.974  51.097  1.00  0.00     0.031 C 
HETATM   15  C17 UNL     1      27.262   1.601  52.219  1.00  0.00    -0.030 C 
HETATM   16  C18 UNL     1      27.488   0.457  52.937  1.00  0.00    -0.027 C 
HETATM   17  C19 UNL     1      26.524  -0.322  52.235  1.00  0.00     0.054 C 
HETATM   18  C20 UNL     1      25.498  -0.951  53.173  1.00  0.00    -0.021 C 
HETATM   19  C21 UNL     1      24.497  -0.145  53.310  1.00  0.00     0.026 C 
HETATM   20  C22 UNL     1      23.237   3.369  52.409  1.00  0.00     0.087 C 
HETATM   21  H10 UNL     1      22.991   1.677  54.468  1.00  0.00     0.167 HD
ENDROOT
BRANCH   9  22
HETATM   22  C7  UNL     1      18.046   0.891  51.392  1.00  0.00     0.060 A 
HETATM   23  C8  UNL     1      17.766  -0.041  50.397  1.00  0.00     0.032 A 
HETATM   24  C9  UNL     1      16.644   0.098  49.593  1.00  0.00     0.004 A 
HETATM   25  C10 UNL     1      15.787   1.160  49.765  1.00  0.00     0.019 A 
HETATM   26  C11 UNL     1      16.010   2.111  50.728  1.00  0.00     0.013 A 
HETATM   27 BR1  UNL     1      14.899   3.639  51.075  1.00  0.00    -0.051 Br
HETATM   28  C12 UNL     1      17.125   1.935  51.498  1.00  0.00     0.050 A 
ENDBRANCH   9  22
BRANCH   1  29
HETATM   29  N1  UNL     1      23.117   5.048  50.626  1.00  0.00    -0.306 NA
HETATM   30  H1  UNL     1      23.482   5.380  49.695  1.00  0.00     0.124 HD
HETATM   31  H2  UNL     1      23.470   5.349  49.690  1.00  0.00     0.124 HD
ENDBRANCH   1  29
TORSDOF 2
ENDMDL
MODEL 6
REMARK VINA RESULT:      -8.6      6.468     10.517
REMARK  2 active torsions:
REMARK  status: ('A' for Active; 'I' for Inactive)
REMARK    1  A    between atoms: N1_1  and  C1_2 
REMARK    2  A    between atoms: N4_10  and  C7_11 
ROOT
HETATM    1  C1  UNL     1      29.278   5.782  48.083  1.00  0.00    -0.013 C 
HETATM    2  C2  UNL     1      28.243   5.071  48.592  1.00  0.00     0.021 C 
HETATM    3  C3  UNL     1      26.836   5.285  48.724  1.00  0.00     0.037 C 
HETATM    4  C4  UNL     1      25.947   6.182  48.469  1.00  0.00     0.105 A 
HETATM    5  C5  UNL     1      26.160   7.489  47.855  1.00  0.00     0.158 A 
HETATM    6  N2  UNL     1      25.275   8.329  47.745  1.00  0.00    -0.220 NA
HETATM    7  C6  UNL     1      23.912   8.108  48.217  1.00  0.00     0.258 A 
HETATM    8  N3  UNL     1      23.629   6.985  48.768  1.00  0.00    -0.160 NA
HETATM    9  N4  UNL     1      24.611   6.003  48.910  1.00  0.00    -0.229 N 
HETATM   10  N5  UNL     1      27.094   8.351  47.198  1.00  0.00    -0.339 N 
HETATM   11  C13 UNL     1      28.140   9.130  47.806  1.00  0.00     0.036 C 
HETATM   12  C14 UNL     1      29.285   8.352  47.908  1.00  0.00    -0.048 C 
HETATM   13  C15 UNL     1      30.672   8.375  48.367  1.00  0.00     0.040 C 
HETATM   14  C16 UNL     1      31.046   9.673  49.001  1.00  0.00     0.031 C 
HETATM   15  C17 UNL     1      31.087  10.860  48.144  1.00  0.00    -0.030 C 
HETATM   16  C18 UNL     1      30.334  11.999  48.020  1.00  0.00    -0.027 C 
HETATM   17  C19 UNL     1      29.399  11.640  49.033  1.00  0.00     0.054 C 
HETATM   18  C20 UNL     1      27.961  11.655  48.520  1.00  0.00    -0.021 C 
HETATM   19  C21 UNL     1      27.661  10.484  48.064  1.00  0.00     0.026 C 
HETATM   20  C22 UNL     1      29.120   7.014  47.304  1.00  0.00     0.087 C 
HETATM   21  H10 UNL     1      27.252   8.618  46.253  1.00  0.00     0.167 HD
ENDROOT
BRANCH   9  22
HETATM   22  C7  UNL     1      24.182   4.813  49.513  1.00  0.00     0.060 A 
HETATM   23  C8  UNL     1      23.423   3.970  48.707  1.00  0.00     0.032 A 
HETATM   24  C9  UNL     1      22.967   2.751  49.190  1.00  0.00     0.004 A 
HETATM   25  C10 UNL     1      23.257   2.354  50.475  1.00  0.00     0.019 A 
HETATM   26  C11 UNL     1      24.000   3.142  51.317  1.00  0.00     0.013 A 
HETATM   27 BR1  UNL     1      24.477   2.712  53.127  1.00  0.00    -0.051 Br
HETATM   28  C12 UNL     1      24.429   4.333  50.801  1.00  0.00     0.050 A 
ENDBRANCH   9  22
BRANCH   1  29
HETATM   29  N1  UNL     1      30.620   5.258  48.127  1.00  0.00    -0.306 NA
HETATM   30  H1  UNL     1      31.193   4.453  48.493  1.00  0.00     0.124 HD
HETATM   31  H2  UNL     1      31.162   4.448  48.503  1.00  0.00     0.124 HD
ENDBRANCH   1  29
TORSDOF 2
ENDMDL
MODEL 7
REMARK VINA RESULT:      -8.6      3.261      7.503
REMARK  2 active torsions:
REMARK  status: ('A' for Active; 'I' for Inactive)
REMARK    1  A    between atoms: N1_1  and  C1_2 
REMARK    2  A    between atoms: N4_10  and  C7_11 
ROOT
HETATM    1  C1  UNL     1      21.082   5.009  51.023  1.00  0.00    -0.013 C 
HETATM    2  C2  UNL     1      20.261   3.948  51.212  1.00  0.00     0.021 C 
HETATM    3  C3  UNL     1      20.422   2.620  51.715  1.00  0.00     0.037 C 
HETATM    4  C4  UNL     1      21.344   1.843  52.172  1.00  0.00     0.105 A 
HETATM    5  C5  UNL     1      22.759   2.155  52.340  1.00  0.00     0.158 A 
HETATM    6  N2  UNL     1      23.592   1.324  52.681  1.00  0.00    -0.220 NA
HETATM    7  C6  UNL     1      23.252  -0.068  52.958  1.00  0.00     0.258 A 
HETATM    8  N3  UNL     1      22.029  -0.434  52.842  1.00  0.00    -0.160 NA
HETATM    9  N4  UNL     1      21.051   0.485  52.455  1.00  0.00    -0.229 N 
HETATM   10  N5  UNL     1      23.761   3.176  52.294  1.00  0.00    -0.339 N 
HETATM   11  C13 UNL     1      24.390   3.731  51.126  1.00  0.00     0.036 C 
HETATM   12  C14 UNL     1      23.623   4.789  50.657  1.00  0.00    -0.048 C 
HETATM   13  C15 UNL     1      23.554   5.803  49.607  1.00  0.00     0.040 C 
HETATM   14  C16 UNL     1      24.674   5.692  48.627  1.00  0.00     0.031 C 
HETATM   15  C17 UNL     1      26.028   5.975  49.107  1.00  0.00    -0.030 C 
HETATM   16  C18 UNL     1      27.155   5.232  49.340  1.00  0.00    -0.027 C 
HETATM   17  C19 UNL     1      26.561   3.989  48.979  1.00  0.00     0.054 C 
HETATM   18  C20 UNL     1      26.678   2.951  50.091  1.00  0.00    -0.021 C 
HETATM   19  C21 UNL     1      25.642   3.031  50.858  1.00  0.00     0.026 C 
HETATM   20  C22 UNL     1      22.459   5.076  51.521  1.00  0.00     0.087 C 
HETATM   21  H10 UNL     1      24.241   3.713  52.980  1.00  0.00     0.167 HD
ENDROOT
BRANCH   9  22
HETATM   22  C7  UNL     1      19.750  -0.027  52.375  1.00  0.00     0.060 A 
HETATM   23  C8  UNL     1      19.349  -0.823  53.445  1.00  0.00     0.032 A 
HETATM   24  C9  UNL     1      18.070  -1.361  53.486  1.00  0.00     0.004 A 
HETATM   25  C10 UNL     1      17.175  -1.117  52.471  1.00  0.00     0.019 A 
HETATM   26  C11 UNL     1      17.511  -0.341  51.391  1.00  0.00     0.013 A 
HETATM   27 BR1  UNL     1      16.363   0.078  49.910  1.00  0.00    -0.051 Br
HETATM   28  C12 UNL     1      18.779   0.169  51.390  1.00  0.00     0.050 A 
ENDBRANCH   9  22
BRANCH   1  29
HETATM   29  N1  UNL     1      20.578   6.236  50.460  1.00  0.00    -0.306 NA
HETATM   30  H1  UNL     1      19.686   6.731  50.193  1.00  0.00     0.124 HD
HETATM   31  H2  UNL     1      19.678   6.702  50.206  1.00  0.00     0.124 HD
ENDBRANCH   1  29
TORSDOF 2
ENDMDL
MODEL 8
REMARK VINA RESULT:      -8.5      3.197      6.967
REMARK  2 active torsions:
REMARK  status: ('A' for Active; 'I' for Inactive)
REMARK    1  A    between atoms: N1_1  and  C1_2 
REMARK    2  A    between atoms: N4_10  and  C7_11 
ROOT
HETATM    1  C1  UNL     1      25.372   2.843  50.889  1.00  0.00    -0.013 C 
HETATM    2  C2  UNL     1      24.442   2.094  51.529  1.00  0.00     0.021 C 
HETATM    3  C3  UNL     1      23.099   1.692  51.251  1.00  0.00     0.037 C 
HETATM    4  C4  UNL     1      22.189   1.848  50.351  1.00  0.00     0.105 A 
HETATM    5  C5  UNL     1      22.285   2.629  49.123  1.00  0.00     0.158 A 
HETATM    6  N2  UNL     1      21.335   2.815  48.371  1.00  0.00    -0.220 NA
HETATM    7  C6  UNL     1      20.007   2.270  48.627  1.00  0.00     0.258 A 
HETATM    8  N3  UNL     1      19.827   1.565  49.683  1.00  0.00    -0.160 NA
HETATM    9  N4  UNL     1      20.885   1.331  50.563  1.00  0.00    -0.229 N 
HETATM   10  N5  UNL     1      23.147   3.377  48.259  1.00  0.00    -0.339 N 
HETATM   11  C13 UNL     1      23.616   4.724  48.446  1.00  0.00     0.036 C 
HETATM   12  C14 UNL     1      24.782   4.698  49.200  1.00  0.00    -0.048 C 
HETATM   13  C15 UNL     1      25.807   5.555  49.790  1.00  0.00     0.040 C 
HETATM   14  C16 UNL     1      25.543   7.006  49.564  1.00  0.00     0.031 C 
HETATM   15  C17 UNL     1      25.617   7.503  48.189  1.00  0.00    -0.030 C 
HETATM   16  C18 UNL     1      24.712   7.965  47.270  1.00  0.00    -0.027 C 
HETATM   17  C19 UNL     1      23.575   7.769  48.105  1.00  0.00     0.054 C 
HETATM   18  C20 UNL     1      22.517   6.891  47.441  1.00  0.00    -0.021 C 
HETATM   19  C21 UNL     1      22.741   5.655  47.741  1.00  0.00     0.026 C 
HETATM   20  C22 UNL     1      25.228   3.324  49.511  1.00  0.00     0.087 C 
HETATM   21  H10 UNL     1      23.598   3.190  47.392  1.00  0.00     0.167 HD
ENDROOT
BRANCH   9  22
HETATM   22  C7  UNL     1      20.573   0.536  51.674  1.00  0.00     0.060 A 
HETATM   23  C8  UNL     1      19.238   0.160  51.788  1.00  0.00     0.032 A 
HETATM   24  C9  UNL     1      18.819  -0.651  52.834  1.00  0.00     0.004 A 
HETATM   25  C10 UNL     1      19.716  -1.098  53.776  1.00  0.00     0.019 A 
HETATM   26  C11 UNL     1      21.044  -0.760  53.718  1.00  0.00     0.013 A 
HETATM   27 BR1  UNL     1      22.398  -1.312  54.962  1.00  0.00    -0.051 Br
HETATM   28  C12 UNL     1      21.414   0.038  52.672  1.00  0.00     0.050 A 
ENDBRANCH   9  22
BRANCH   1  29
HETATM   29  N1  UNL     1      26.666   3.068  51.480  1.00  0.00    -0.306 NA
HETATM   30  H1  UNL     1      27.349   2.670  52.177  1.00  0.00     0.124 HD
HETATM   31  H2  UNL     1      27.324   2.650  52.176  1.00  0.00     0.124 HD
ENDBRANCH   1  29
TORSDOF 2
ENDMDL
MODEL 9
REMARK VINA RESULT:      -8.1      3.629      8.230
REMARK  2 active torsions:
REMARK  status: ('A' for Active; 'I' for Inactive)
REMARK    1  A    between atoms: N1_1  and  C1_2 
REMARK    2  A    between atoms: N4_10  and  C7_11 
ROOT
HETATM    1  C1  UNL     1      24.930   4.197  49.792  1.00  0.00    -0.013 C 
HETATM    2  C2  UNL     1      23.833   4.385  49.019  1.00  0.00     0.021 C 
HETATM    3  C3  UNL     1      22.428   4.186  49.188  1.00  0.00     0.037 C 
HETATM    4  C4  UNL     1      21.593   3.752  50.068  1.00  0.00     0.105 A 
HETATM    5  C5  UNL     1      21.898   3.239  51.400  1.00  0.00     0.158 A 
HETATM    6  N2  UNL     1      21.053   2.743  52.136  1.00  0.00    -0.220 NA
HETATM    7  C6  UNL     1      19.650   2.618  51.757  1.00  0.00     0.258 A 
HETATM    8  N3  UNL     1      19.286   3.046  50.605  1.00  0.00    -0.160 NA
HETATM    9  N4  UNL     1      20.220   3.617  49.738  1.00  0.00    -0.229 N 
HETATM   10  N5  UNL     1      22.911   3.049  52.393  1.00  0.00    -0.339 N 
HETATM   11  C13 UNL     1      23.928   2.033  52.419  1.00  0.00     0.036 C 
HETATM   12  C14 UNL     1      25.036   2.480  51.711  1.00  0.00    -0.048 C 
HETATM   13  C15 UNL     1      26.380   2.097  51.288  1.00  0.00     0.040 C 
HETATM   14  C16 UNL     1      26.744   0.714  51.712  1.00  0.00     0.031 C 
HETATM   15  C17 UNL     1      26.894   0.461  53.147  1.00  0.00    -0.030 C 
HETATM   16  C18 UNL     1      26.192  -0.241  54.091  1.00  0.00    -0.027 C 
HETATM   17  C19 UNL     1      25.166  -0.661  53.196  1.00  0.00     0.054 C 
HETATM   18  C20 UNL     1      23.776  -0.265  53.688  1.00  0.00    -0.021 C 
HETATM   19  C21 UNL     1      23.475   0.900  53.220  1.00  0.00     0.026 C 
HETATM   20  C22 UNL     1      24.876   3.864  51.220  1.00  0.00     0.087 C 
HETATM   21  H10 UNL     1      23.154   3.513  53.238  1.00  0.00     0.167 HD
ENDROOT
BRANCH   9  22
HETATM   22  C7  UNL     1      19.704   4.061  48.513  1.00  0.00     0.060 A 
HETATM   23  C8  UNL     1      19.665   3.111  47.497  1.00  0.00     0.032 A 
HETATM   24  C9  UNL     1      19.148   3.430  46.249  1.00  0.00     0.004 A 
HETATM   25  C10 UNL     1      18.664   4.692  45.994  1.00  0.00     0.019 A 
HETATM   26  C11 UNL     1      18.675   5.671  46.955  1.00  0.00     0.013 A 
HETATM   27 BR1  UNL     1      18.033   7.467  46.735  1.00  0.00    -0.051 Br
HETATM   28  C12 UNL     1      19.192   5.314  48.169  1.00  0.00     0.050 A 
ENDBRANCH   9  22
BRANCH   1  29
HETATM   29  N1  UNL     1      26.245   4.496  49.287  1.00  0.00    -0.306 NA
HETATM   30  H1  UNL     1      26.759   5.105  48.597  1.00  0.00     0.124 HD
HETATM   31  H2  UNL     1      26.727   5.113  48.594  1.00  0.00     0.124 HD
ENDBRANCH   1  29
TORSDOF 2
ENDMDL
