MODEL 1
REMARK VINA RESULT:      -7.6      0.000      0.000
REMARK  7 active torsions:
REMARK  status: ('A' for Active; 'I' for Inactive)
REMARK    1  A    between atoms: C4_7  and  C5_8 
REMARK    2  A    between atoms: C5_8  and  O3_9 
REMARK    3  A    between atoms: O3_9  and  C6_10 
REMARK    4  A    between atoms: C14_19  and  N2_20 
REMARK    5  A    between atoms: C14_19  and  C16_23 
REMARK    6  A    between atoms: N2_20  and  C15_21 
REMARK    7  A    between atoms: C15_21  and  N3_22 
ROOT
HETATM    1  C1  UNL     1      29.849  -2.120  53.156  1.00  0.00     0.000 C 
HETATM    2  O1  UNL     1      28.865  -3.077  53.612  1.00  0.00     0.000 OA
HETATM    3  S1  UNL     1      28.058  -0.258  53.553  1.00  0.00    -0.147 SA
HETATM    4  O2  UNL     1      28.480  -1.826  53.668  1.00  0.00     0.000 OA
HETATM    5  C2  UNL     1      27.728   0.954  53.496  1.00  0.00     0.045 A 
HETATM    6  C3  UNL     1      27.375   2.158  53.438  1.00  0.00     0.028 A 
HETATM    7  C4  UNL     1      26.315   1.284  53.598  1.00  0.00     0.029 A 
HETATM    8  C14 UNL     1      26.438  -0.256  53.693  1.00  0.00     0.062 A 
HETATM    9  C16 UNL     1      28.104  -0.442  53.562  1.00  0.00     0.163 A 
HETATM   10  H4  UNL     1      28.405  -2.009  54.785  1.00  0.00     0.000 HD
ENDROOT
BRANCH   7  11
HETATM   11  C5  UNL     1      25.339   2.440  53.599  1.00  0.00     0.182 C 
BRANCH  11  12
HETATM   12  O3  UNL     1      24.918   2.603  52.364  1.00  0.00    -0.377 OA
BRANCH  12  13
HETATM   13  C6  UNL     1      23.899   3.205  51.888  1.00  0.00     0.166 C 
HETATM   14  C7  UNL     1      22.894   1.787  51.721  1.00  0.00     0.005 C 
HETATM   15  C8  UNL     1      22.090   0.924  51.051  1.00  0.00    -0.017 C 
HETATM   16  C9  UNL     1      21.942   1.405  49.708  1.00  0.00     0.058 C 
HETATM   17  C10 UNL     1      21.494   1.368  48.459  1.00  0.00     0.065 C 
HETATM   18  N1  UNL     1      21.976   2.525  47.728  1.00  0.00    -0.398 N 
HETATM   19  C11 UNL     1      22.500   3.674  48.513  1.00  0.00     0.146 C 
HETATM   20  H13 UNL     1      22.014   2.670  46.703  1.00  0.00     0.158 HD
HETATM   21  C12 UNL     1      23.768   3.235  49.136  1.00  0.00    -0.009 C 
HETATM   22  C13 UNL     1      24.431   3.008  50.243  1.00  0.00     0.006 C 
ENDBRANCH  12  13
ENDBRANCH  11  12
ENDBRANCH   7  11
BRANCH   8  23
HETATM   23  N2  UNL     1      24.816  -0.386  53.845  1.00  0.00    -0.261 NA
BRANCH  23  24
HETATM   24  C15 UNL     1      24.515  -0.931  54.941  1.00  0.00     0.185 C 
BRANCH  24  25
HETATM   25  N3  UNL     1      24.708  -1.534  56.063  1.00  0.00    -0.279 NA
HETATM   26  H18 UNL     1      24.042  -1.429  56.869  1.00  0.00     0.189 HD
ENDBRANCH  24  25
ENDBRANCH  23  24
ENDBRANCH   8  23
TORSDOF 7
ENDMDL
MODEL 2
REMARK VINA RESULT:      -7.3      3.904      7.792
REMARK  7 active torsions:
REMARK  status: ('A' for Active; 'I' for Inactive)
REMARK    1  A    between atoms: C4_7  and  C5_8 
REMARK    2  A    between atoms: C5_8  and  O3_9 
REMARK    3  A    between atoms: O3_9  and  C6_10 
REMARK    4  A    between atoms: C14_19  and  N2_20 
REMARK    5  A    between atoms: C14_19  and  C16_23 
REMARK    6  A    between atoms: N2_20  and  C15_21 
REMARK    7  A    between atoms: C15_21  and  N3_22 
ROOT
HETATM    1  C1  UNL     1      27.580   8.101  47.913  1.00  0.00     0.000 C 
HETATM    2  O1  UNL     1      26.420   8.867  48.314  1.00  0.00     0.000 OA
HETATM    3  S1  UNL     1      26.407   6.003  48.940  1.00  0.00    -0.147 SA
HETATM    4  O2  UNL     1      26.337   7.583  48.555  1.00  0.00     0.000 OA
HETATM    5  C2  UNL     1      26.435   4.776  49.219  1.00  0.00     0.045 A 
HETATM    6  C3  UNL     1      26.447   3.556  49.516  1.00  0.00     0.028 A 
HETATM    7  C4  UNL     1      25.462   4.270  50.175  1.00  0.00     0.029 A 
HETATM    8  C14 UNL     1      25.210   5.789  50.019  1.00  0.00     0.062 A 
HETATM    9  C16 UNL     1      26.400   6.188  48.901  1.00  0.00     0.163 A 
HETATM   10  H4  UNL     1      25.457   7.612  47.840  1.00  0.00     0.000 HD
ENDROOT
BRANCH   7  11
HETATM   11  C5  UNL     1      25.002   3.015  50.882  1.00  0.00     0.182 C 
BRANCH  11  12
HETATM   12  O3  UNL     1      25.957   2.655  51.712  1.00  0.00    -0.377 OA
BRANCH  12  13
HETATM   13  C6  UNL     1      25.953   1.879  52.724  1.00  0.00     0.166 C 
HETATM   14  C7  UNL     1      27.583   2.227  53.244  1.00  0.00     0.005 C 
HETATM   15  C8  UNL     1      28.848   1.906  53.615  1.00  0.00    -0.017 C 
HETATM   16  C9  UNL     1      28.972   0.478  53.587  1.00  0.00     0.058 C 
HETATM   17  C10 UNL     1      29.612  -0.678  53.719  1.00  0.00     0.065 C 
HETATM   18  N1  UNL     1      28.713  -1.776  53.421  1.00  0.00    -0.398 N 
HETATM   19  C11 UNL     1      27.253  -1.497  53.415  1.00  0.00     0.146 C 
HETATM   20  H13 UNL     1      28.949  -2.760  53.198  1.00  0.00     0.158 HD
HETATM   21  C12 UNL     1      26.977  -0.633  52.246  1.00  0.00    -0.009 C 
HETATM   22  C13 UNL     1      26.546   0.523  51.809  1.00  0.00     0.006 C 
ENDBRANCH  12  13
ENDBRANCH  11  12
ENDBRANCH   7  11
BRANCH   8  23
HETATM   23  N2  UNL     1      23.980   5.704  51.092  1.00  0.00    -0.261 NA
BRANCH  23  24
HETATM   24  C15 UNL     1      23.157   6.640  50.901  1.00  0.00     0.185 C 
BRANCH  24  25
HETATM   25  N3  UNL     1      22.098   7.348  51.085  1.00  0.00    -0.279 NA
HETATM   26  H18 UNL     1      21.382   7.094  51.812  1.00  0.00     0.189 HD
ENDBRANCH  24  25
ENDBRANCH  23  24
ENDBRANCH   8  23
TORSDOF 7
ENDMDL
MODEL 3
REMARK VINA RESULT:      -7.1      3.898      7.258
REMARK  7 active torsions:
REMARK  status: ('A' for Active; 'I' for Inactive)
REMARK    1  A    between atoms: C4_7  and  C5_8 
REMARK    2  A    between atoms: C5_8  and  O3_9 
REMARK    3  A    between atoms: O3_9  and  C6_10 
REMARK    4  A    between atoms: C14_19  and  N2_20 
REMARK    5  A    between atoms: C14_19  and  C16_23 
REMARK    6  A    between atoms: N2_20  and  C15_21 
REMARK    7  A    between atoms: C15_21  and  N3_22 
ROOT
HETATM    1  C1  UNL     1      18.163  -2.154  53.615  1.00  0.00     0.000 C 
HETATM    2  O1  UNL     1      17.330  -1.285  52.813  1.00  0.00     0.000 OA
HETATM    3  S1  UNL     1      20.050  -0.359  53.397  1.00  0.00    -0.147 SA
HETATM    4  O2  UNL     1      18.510  -0.797  53.103  1.00  0.00     0.000 OA
HETATM    5  C2  UNL     1      21.229   0.007  53.640  1.00  0.00     0.045 A 
HETATM    6  C3  UNL     1      22.405   0.385  53.864  1.00  0.00     0.028 A 
HETATM    7  C4  UNL     1      21.776   1.111  52.868  1.00  0.00     0.029 A 
HETATM    8  C14 UNL     1      20.331   0.871  52.370  1.00  0.00     0.062 A 
HETATM    9  C16 UNL     1      19.872  -0.411  53.357  1.00  0.00     0.163 A 
HETATM   10  H4  UNL     1      17.927   0.013  53.642  1.00  0.00     0.000 HD
ENDROOT
BRANCH   7  11
HETATM   11  C5  UNL     1      23.015   1.959  52.680  1.00  0.00     0.182 C 
BRANCH  11  12
HETATM   12  O3  UNL     1      24.037   1.143  52.551  1.00  0.00    -0.377 OA
BRANCH  12  13
HETATM   13  C6  UNL     1      25.199   1.310  52.051  1.00  0.00     0.166 C 
HETATM   14  C7  UNL     1      25.809  -0.281  52.433  1.00  0.00     0.005 C 
HETATM   15  C8  UNL     1      26.695  -1.161  52.960  1.00  0.00    -0.017 C 
HETATM   16  C9  UNL     1      27.770  -0.414  53.547  1.00  0.00     0.058 C 
HETATM   17  C10 UNL     1      28.915  -0.265  54.201  1.00  0.00     0.065 C 
HETATM   18  N1  UNL     1      29.238   1.145  54.316  1.00  0.00    -0.398 N 
HETATM   19  C11 UNL     1      28.528   2.095  53.419  1.00  0.00     0.146 C 
HETATM   20  H13 UNL     1      29.910   1.602  54.958  1.00  0.00     0.158 HD
HETATM   21  C12 UNL     1      27.114   2.132  53.853  1.00  0.00    -0.009 C 
HETATM   22  C13 UNL     1      25.861   1.911  53.544  1.00  0.00     0.006 C 
ENDBRANCH  12  13
ENDBRANCH  11  12
ENDBRANCH   7  11
BRANCH   8  23
HETATM   23  N2  UNL     1      20.490   2.089  51.293  1.00  0.00    -0.261 NA
BRANCH  23  24
HETATM   24  C15 UNL     1      19.613   2.974  51.490  1.00  0.00     0.185 C 
BRANCH  24  25
HETATM   25  N3  UNL     1      18.533   3.494  51.962  1.00  0.00    -0.279 NA
HETATM   26  H18 UNL     1      17.730   3.763  51.338  1.00  0.00     0.189 HD
ENDBRANCH  24  25
ENDBRANCH  23  24
ENDBRANCH   8  23
TORSDOF 7
ENDMDL
MODEL 4
REMARK VINA RESULT:      -7.1      4.384      5.678
REMARK  7 active torsions:
REMARK  status: ('A' for Active; 'I' for Inactive)
REMARK    1  A    between atoms: C4_7  and  C5_8 
REMARK    2  A    between atoms: C5_8  and  O3_9 
REMARK    3  A    between atoms: O3_9  and  C6_10 
REMARK    4  A    between atoms: C14_19  and  N2_20 
REMARK    5  A    between atoms: C14_19  and  C16_23 
REMARK    6  A    between atoms: N2_20  and  C15_21 
REMARK    7  A    between atoms: C15_21  and  N3_22 
ROOT
HETATM    1  C1  UNL     1      27.740   0.297  54.496  1.00  0.00     0.000 C 
HETATM    2  O1  UNL     1      26.685   0.705  55.398  1.00  0.00     0.000 OA
HETATM    3  S1  UNL     1      26.666   1.872  52.708  1.00  0.00    -0.147 SA
HETATM    4  O2  UNL     1      26.672   1.305  54.234  1.00  0.00     0.000 OA
HETATM    5  C2  UNL     1      26.665   2.341  51.541  1.00  0.00     0.045 A 
HETATM    6  C3  UNL     1      26.640   2.814  50.377  1.00  0.00     0.028 A 
HETATM    7  C4  UNL     1      25.463   3.015  51.075  1.00  0.00     0.029 A 
HETATM    8  C14 UNL     1      25.194   2.539  52.523  1.00  0.00     0.062 A 
HETATM    9  C16 UNL     1      26.662   1.803  52.885  1.00  0.00     0.163 A 
HETATM   10  H4  UNL     1      26.837   2.252  54.837  1.00  0.00     0.000 HD
ENDROOT
BRANCH   7  11
HETATM   11  C5  UNL     1      24.861   3.732  49.886  1.00  0.00     0.182 C 
BRANCH  11  12
HETATM   12  O3  UNL     1      25.337   4.957  49.881  1.00  0.00    -0.377 OA
BRANCH  12  13
HETATM   13  C6  UNL     1      25.220   5.909  49.039  1.00  0.00     0.166 C 
HETATM   14  C7  UNL     1      26.885   5.912  48.513  1.00  0.00     0.005 C 
HETATM   15  C8  UNL     1      28.088   6.480  48.252  1.00  0.00    -0.017 C 
HETATM   16  C9  UNL     1      27.999   7.877  48.562  1.00  0.00     0.058 C 
HETATM   17  C10 UNL     1      28.459   9.117  48.677  1.00  0.00     0.065 C 
HETATM   18  N1  UNL     1      27.406   9.992  49.156  1.00  0.00    -0.398 N 
HETATM   19  C11 UNL     1      26.004   9.508  49.061  1.00  0.00     0.146 C 
HETATM   20  H13 UNL     1      27.493  10.936  49.574  1.00  0.00     0.158 HD
HETATM   21  C12 UNL     1      25.858   8.399  50.030  1.00  0.00    -0.009 C 
HETATM   22  C13 UNL     1      25.602   7.129  50.220  1.00  0.00     0.006 C 
ENDBRANCH  12  13
ENDBRANCH  11  12
ENDBRANCH   7  11
BRANCH   8  23
HETATM   23  N2  UNL     1      23.688   3.171  52.461  1.00  0.00    -0.261 NA
BRANCH  23  24
HETATM   24  C15 UNL     1      23.649   4.283  53.054  1.00  0.00     0.185 C 
BRANCH  24  25
HETATM   25  N3  UNL     1      23.903   5.528  53.266  1.00  0.00    -0.279 NA
HETATM   26  H18 UNL     1      24.077   5.900  54.234  1.00  0.00     0.189 HD
ENDBRANCH  24  25
ENDBRANCH  23  24
ENDBRANCH   8  23
TORSDOF 7
ENDMDL
MODEL 5
REMARK VINA RESULT:      -7.1      3.366      4.960
REMARK  7 active torsions:
REMARK  status: ('A' for Active; 'I' for Inactive)
REMARK    1  A    between atoms: C4_7  and  C5_8 
REMARK    2  A    between atoms: C5_8  and  O3_9 
REMARK    3  A    between atoms: O3_9  and  C6_10 
REMARK    4  A    between atoms: C14_19  and  N2_20 
REMARK    5  A    between atoms: C14_19  and  C16_23 
REMARK    6  A    between atoms: N2_20  and  C15_21 
REMARK    7  A    between atoms: C15_21  and  N3_22 
ROOT
HETATM    1  C1  UNL     1      24.348  -1.158  55.578  1.00  0.00     0.000 C 
HETATM    2  O1  UNL     1      25.756  -1.023  55.277  1.00  0.00     0.000 OA
HETATM    3  S1  UNL     1      23.862   0.027  53.300  1.00  0.00    -0.147 SA
HETATM    4  O2  UNL     1      24.952  -0.601  54.333  1.00  0.00     0.000 OA
HETATM    5  C2  UNL     1      23.031   0.492  52.478  1.00  0.00     0.045 A 
HETATM    6  C3  UNL     1      22.217   0.970  51.649  1.00  0.00     0.028 A 
HETATM    7  C4  UNL     1      23.520   1.387  51.442  1.00  0.00     0.029 A 
HETATM    8  C14 UNL     1      24.736   0.972  52.305  1.00  0.00     0.062 A 
HETATM    9  C16 UNL     1      23.990  -0.041  53.422  1.00  0.00     0.163 A 
HETATM   10  H4  UNL     1      25.432  -1.413  53.705  1.00  0.00     0.000 HD
ENDROOT
BRANCH   7  11
HETATM   11  C5  UNL     1      23.084   2.217  50.254  1.00  0.00     0.182 C 
BRANCH  11  12
HETATM   12  O3  UNL     1      23.638   3.403  50.375  1.00  0.00    -0.377 OA
BRANCH  12  13
HETATM   13  C6  UNL     1      23.401   4.513  49.793  1.00  0.00     0.166 C 
HETATM   14  C7  UNL     1      25.010   4.749  49.155  1.00  0.00     0.005 C 
HETATM   15  C8  UNL     1      26.157   5.440  48.944  1.00  0.00    -0.017 C 
HETATM   16  C9  UNL     1      26.031   6.719  49.580  1.00  0.00     0.058 C 
HETATM   17  C10 UNL     1      26.441   7.926  49.948  1.00  0.00     0.065 C 
HETATM   18  N1  UNL     1      25.397   8.595  50.700  1.00  0.00    -0.398 N 
HETATM   19  C11 UNL     1      24.016   8.054  50.603  1.00  0.00     0.146 C 
HETATM   20  H13 UNL     1      25.478   9.421  51.321  1.00  0.00     0.158 HD
HETATM   21  C12 UNL     1      24.010   6.744  51.291  1.00  0.00    -0.009 C 
HETATM   22  C13 UNL     1      23.832   5.450  51.195  1.00  0.00     0.006 C 
ENDBRANCH  12  13
ENDBRANCH  11  12
ENDBRANCH   7  11
BRANCH   8  23
HETATM   23  N2  UNL     1      25.720   1.888  51.376  1.00  0.00    -0.261 NA
BRANCH  23  24
HETATM   24  C15 UNL     1      26.683   2.336  52.056  1.00  0.00     0.185 C 
BRANCH  24  25
HETATM   25  N3  UNL     1      27.903   2.641  52.333  1.00  0.00    -0.279 NA
HETATM   26  H18 UNL     1      28.663   1.915  52.359  1.00  0.00     0.189 HD
ENDBRANCH  24  25
ENDBRANCH  23  24
ENDBRANCH   8  23
TORSDOF 7
ENDMDL
MODEL 6
REMARK VINA RESULT:      -7.1      3.569      6.986
REMARK  7 active torsions:
REMARK  status: ('A' for Active; 'I' for Inactive)
REMARK    1  A    between atoms: C4_7  and  C5_8 
REMARK    2  A    between atoms: C5_8  and  O3_9 
REMARK    3  A    between atoms: O3_9  and  C6_10 
REMARK    4  A    between atoms: C14_19  and  N2_20 
REMARK    5  A    between atoms: C14_19  and  C16_23 
REMARK    6  A    between atoms: N2_20  and  C15_21 
REMARK    7  A    between atoms: C15_21  and  N3_22 
ROOT
HETATM    1  C1  UNL     1      17.334  -0.428  51.561  1.00  0.00     0.000 C 
HETATM    2  O1  UNL     1      17.543  -1.294  52.701  1.00  0.00     0.000 OA
HETATM    3  S1  UNL     1      19.792   0.403  51.886  1.00  0.00    -0.147 SA
HETATM    4  O2  UNL     1      18.597  -0.607  52.335  1.00  0.00     0.000 OA
HETATM    5  C2  UNL     1      20.734   1.157  51.532  1.00  0.00     0.045 A 
HETATM    6  C3  UNL     1      21.684   1.909  51.201  1.00  0.00     0.028 A 
HETATM    7  C4  UNL     1      21.848   1.336  52.449  1.00  0.00     0.029 A 
HETATM    8  C14 UNL     1      20.842   0.375  53.127  1.00  0.00     0.062 A 
HETATM    9  C16 UNL     1      19.651   0.288  51.943  1.00  0.00     0.163 A 
HETATM   10  H4  UNL     1      19.062  -1.624  52.142  1.00  0.00     0.000 HD
ENDROOT
BRANCH   7  11
HETATM   11  C5  UNL     1      23.174   2.046  52.619  1.00  0.00     0.182 C 
BRANCH  11  12
HETATM   12  O3  UNL     1      24.125   1.170  52.379  1.00  0.00    -0.377 OA
BRANCH  12  13
HETATM   13  C6  UNL     1      25.326   1.312  51.973  1.00  0.00     0.166 C 
HETATM   14  C7  UNL     1      25.915  -0.222  52.563  1.00  0.00     0.005 C 
HETATM   15  C8  UNL     1      26.758  -1.030  53.251  1.00  0.00    -0.017 C 
HETATM   16  C9  UNL     1      27.766  -0.209  53.859  1.00  0.00     0.058 C 
HETATM   17  C10 UNL     1      28.844   0.025  54.596  1.00  0.00     0.065 C 
HETATM   18  N1  UNL     1      29.138   1.445  54.602  1.00  0.00    -0.398 N 
HETATM   19  C11 UNL     1      28.504   2.291  53.556  1.00  0.00     0.146 C 
HETATM   20  H13 UNL     1      29.743   1.975  55.255  1.00  0.00     0.158 HD
HETATM   21  C12 UNL     1      27.056   2.341  53.854  1.00  0.00    -0.009 C 
HETATM   22  C13 UNL     1      25.839   2.066  53.455  1.00  0.00     0.006 C 
ENDBRANCH  12  13
ENDBRANCH  11  12
ENDBRANCH   7  11
BRANCH   8  23
HETATM   23  N2  UNL     1      21.815   0.263  54.435  1.00  0.00    -0.261 NA
BRANCH  23  24
HETATM   24  C15 UNL     1      22.107  -0.941  54.670  1.00  0.00     0.185 C 
BRANCH  24  25
HETATM   25  N3  UNL     1      22.356  -1.988  55.377  1.00  0.00    -0.279 NA
HETATM   26  H18 UNL     1      22.110  -2.037  56.398  1.00  0.00     0.189 HD
ENDBRANCH  24  25
ENDBRANCH  23  24
ENDBRANCH   8  23
TORSDOF 7
ENDMDL
MODEL 7
REMARK VINA RESULT:      -6.8      3.353      7.622
REMARK  7 active torsions:
REMARK  status: ('A' for Active; 'I' for Inactive)
REMARK    1  A    between atoms: C4_7  and  C5_8 
REMARK    2  A    between atoms: C5_8  and  O3_9 
REMARK    3  A    between atoms: O3_9  and  C6_10 
REMARK    4  A    between atoms: C14_19  and  N2_20 
REMARK    5  A    between atoms: C14_19  and  C16_23 
REMARK    6  A    between atoms: N2_20  and  C15_21 
REMARK    7  A    between atoms: C15_21  and  N3_22 
ROOT
HETATM    1  C1  UNL     1      21.925   3.638  45.601  1.00  0.00     0.000 C 
HETATM    2  O1  UNL     1      21.940   4.979  46.142  1.00  0.00     0.000 OA
HETATM    3  S1  UNL     1      21.677   2.772  48.055  1.00  0.00    -0.147 SA
HETATM    4  O2  UNL     1      21.753   4.034  47.028  1.00  0.00     0.000 OA
HETATM    5  C2  UNL     1      21.589   1.808  48.858  1.00  0.00     0.045 A 
HETATM    6  C3  UNL     1      21.510   0.859  49.677  1.00  0.00     0.028 A 
HETATM    7  C4  UNL     1      21.809   2.073  50.271  1.00  0.00     0.029 A 
HETATM    8  C14 UNL     1      21.978   3.415  49.518  1.00  0.00     0.062 A 
HETATM    9  C16 UNL     1      21.691   2.920  47.937  1.00  0.00     0.163 A 
HETATM   10  H4  UNL     1      20.752   4.539  47.202  1.00  0.00     0.000 HD
ENDROOT
BRANCH   7  11
HETATM   11  C5  UNL     1      21.850   1.415  51.633  1.00  0.00     0.182 C 
BRANCH  11  12
HETATM   12  O3  UNL     1      23.109   1.154  51.908  1.00  0.00    -0.377 OA
BRANCH  12  13
HETATM   13  C6  UNL     1      23.883   1.584  52.827  1.00  0.00     0.166 C 
HETATM   14  C7  UNL     1      25.334   1.629  51.856  1.00  0.00     0.005 C 
HETATM   15  C8  UNL     1      26.629   1.345  51.571  1.00  0.00    -0.017 C 
HETATM   16  C9  UNL     1      27.166   0.574  52.655  1.00  0.00     0.058 C 
HETATM   17  C10 UNL     1      28.107  -0.105  53.299  1.00  0.00     0.065 C 
HETATM   18  N1  UNL     1      27.588  -0.589  54.565  1.00  0.00    -0.398 N 
HETATM   19  C11 UNL     1      26.343   0.032  55.088  1.00  0.00     0.146 C 
HETATM   20  H13 UNL     1      27.970  -1.333  55.175  1.00  0.00     0.158 HD
HETATM   21  C12 UNL     1      25.238  -0.385  54.196  1.00  0.00    -0.009 C 
HETATM   22  C13 UNL     1      24.301  -0.020  53.358  1.00  0.00     0.006 C 
ENDBRANCH  12  13
ENDBRANCH  11  12
ENDBRANCH   7  11
BRANCH   8  23
HETATM   23  N2  UNL     1      22.294   4.177  50.929  1.00  0.00    -0.261 NA
BRANCH  23  24
HETATM   24  C15 UNL     1      23.410   4.761  50.877  1.00  0.00     0.185 C 
BRANCH  24  25
HETATM   25  N3  UNL     1      24.681   4.884  50.711  1.00  0.00    -0.279 NA
HETATM   26  H18 UNL     1      25.225   5.663  51.163  1.00  0.00     0.189 HD
ENDBRANCH  24  25
ENDBRANCH  23  24
ENDBRANCH   8  23
TORSDOF 7
ENDMDL
MODEL 8
REMARK VINA RESULT:      -6.7      3.903      7.790
REMARK  7 active torsions:
REMARK  status: ('A' for Active; 'I' for Inactive)
REMARK    1  A    between atoms: C4_7  and  C5_8 
REMARK    2  A    between atoms: C5_8  and  O3_9 
REMARK    3  A    between atoms: O3_9  and  C6_10 
REMARK    4  A    between atoms: C14_19  and  N2_20 
REMARK    5  A    between atoms: C14_19  and  C16_23 
REMARK    6  A    between atoms: N2_20  and  C15_21 
REMARK    7  A    between atoms: C15_21  and  N3_22 
ROOT
HETATM    1  C1  UNL     1      19.603   6.294  48.046  1.00  0.00     0.000 C 
HETATM    2  O1  UNL     1      19.625   7.109  49.241  1.00  0.00     0.000 OA
HETATM    3  S1  UNL     1      21.427   4.796  49.171  1.00  0.00    -0.147 SA
HETATM    4  O2  UNL     1      20.396   6.051  49.286  1.00  0.00     0.000 OA
HETATM    5  C2  UNL     1      22.208   3.812  49.107  1.00  0.00     0.045 A 
HETATM    6  C3  UNL     1      23.003   2.840  49.060  1.00  0.00     0.028 A 
HETATM    7  C4  UNL     1      23.281   3.727  50.086  1.00  0.00     0.029 A 
HETATM    8  C14 UNL     1      22.483   5.018  50.387  1.00  0.00     0.062 A 
HETATM    9  C16 UNL     1      21.311   4.946  49.183  1.00  0.00     0.163 A 
HETATM   10  H4  UNL     1      19.732   5.733  50.149  1.00  0.00     0.000 HD
ENDROOT
BRANCH   7  11
HETATM   11  C5  UNL     1      24.458   2.881  50.520  1.00  0.00     0.182 C 
BRANCH  11  12
HETATM   12  O3  UNL     1      24.004   1.971  51.353  1.00  0.00    -0.377 OA
BRANCH  12  13
HETATM   13  C6  UNL     1      23.495   2.066  52.519  1.00  0.00     0.166 C 
HETATM   14  C7  UNL     1      24.316   0.687  53.207  1.00  0.00     0.005 C 
HETATM   15  C8  UNL     1      24.387  -0.496  53.866  1.00  0.00    -0.017 C 
HETATM   16  C9  UNL     1      23.056  -0.877  54.242  1.00  0.00     0.058 C 
HETATM   17  C10 UNL     1      22.139  -1.665  54.788  1.00  0.00     0.065 C 
HETATM   18  N1  UNL     1      20.825  -1.071  54.639  1.00  0.00    -0.398 N 
HETATM   19  C11 UNL     1      20.751   0.376  54.302  1.00  0.00     0.146 C 
HETATM   20  H13 UNL     1      19.898  -1.524  54.732  1.00  0.00     0.158 HD
HETATM   21  C12 UNL     1      21.245   0.527  52.916  1.00  0.00    -0.009 C 
HETATM   22  C13 UNL     1      22.142   1.047  52.117  1.00  0.00     0.006 C 
ENDBRANCH  12  13
ENDBRANCH  11  12
ENDBRANCH   7  11
BRANCH   8  23
HETATM   23  N2  UNL     1      23.478   5.352  51.639  1.00  0.00    -0.261 NA
BRANCH  23  24
HETATM   24  C15 UNL     1      24.012   6.485  51.493  1.00  0.00     0.185 C 
BRANCH  24  25
HETATM   25  N3  UNL     1      24.073   7.768  51.401  1.00  0.00    -0.279 NA
HETATM   26  H18 UNL     1      24.653   8.243  50.664  1.00  0.00     0.189 HD
ENDBRANCH  24  25
ENDBRANCH  23  24
ENDBRANCH   8  23
TORSDOF 7
ENDMDL
MODEL 9
REMARK VINA RESULT:      -6.7      3.452      7.653
REMARK  7 active torsions:
REMARK  status: ('A' for Active; 'I' for Inactive)
REMARK    1  A    between atoms: C4_7  and  C5_8 
REMARK    2  A    between atoms: C5_8  and  O3_9 
REMARK    3  A    between atoms: O3_9  and  C6_10 
REMARK    4  A    between atoms: C14_19  and  N2_20 
REMARK    5  A    between atoms: C14_19  and  C16_23 
REMARK    6  A    between atoms: N2_20  and  C15_21 
REMARK    7  A    between atoms: C15_21  and  N3_22 
ROOT
HETATM    1  C1  UNL     1      23.065   7.825  49.000  1.00  0.00     0.000 C 
HETATM    2  O1  UNL     1      21.981   8.099  49.918  1.00  0.00     0.000 OA
HETATM    3  S1  UNL     1      22.752   5.292  49.564  1.00  0.00    -0.147 SA
HETATM    4  O2  UNL     1      22.241   6.828  49.743  1.00  0.00     0.000 OA
HETATM    5  C2  UNL     1      23.116   4.098  49.414  1.00  0.00     0.045 A 
HETATM    6  C3  UNL     1      23.471   2.899  49.286  1.00  0.00     0.028 A 
HETATM    7  C4  UNL     1      22.645   3.113  50.375  1.00  0.00     0.029 A 
HETATM    8  C14 UNL     1      22.056   4.482  50.791  1.00  0.00     0.062 A 
HETATM    9  C16 UNL     1      22.694   5.471  49.590  1.00  0.00     0.163 A 
HETATM   10  H4  UNL     1      21.185   6.774  49.335  1.00  0.00     0.000 HD
ENDROOT
BRANCH   7  11
HETATM   11  C5  UNL     1      22.710   1.644  50.733  1.00  0.00     0.182 C 
BRANCH  11  12
HETATM   12  O3  UNL     1      23.852   1.439  51.353  1.00  0.00    -0.377 OA
BRANCH  12  13
HETATM   13  C6  UNL     1      24.242   1.734  52.531  1.00  0.00     0.166 C 
HETATM   14  C7  UNL     1      25.851   2.245  52.083  1.00  0.00     0.005 C 
HETATM   15  C8  UNL     1      27.204   2.244  52.160  1.00  0.00    -0.017 C 
HETATM   16  C9  UNL     1      27.592   1.314  53.181  1.00  0.00     0.058 C 
HETATM   17  C10 UNL     1      28.456   0.646  53.936  1.00  0.00     0.065 C 
HETATM   18  N1  UNL     1      27.742  -0.216  54.858  1.00  0.00    -0.398 N 
HETATM   19  C11 UNL     1      26.297   0.055  55.085  1.00  0.00     0.146 C 
HETATM   20  H13 UNL     1      28.103  -1.024  55.396  1.00  0.00     0.158 HD
HETATM   21  C12 UNL     1      25.587  -0.287  53.833  1.00  0.00    -0.009 C 
HETATM   22  C13 UNL     1      24.847   0.131  52.837  1.00  0.00     0.006 C 
ENDBRANCH  12  13
ENDBRANCH  11  12
ENDBRANCH   7  11
BRANCH   8  23
HETATM   23  N2  UNL     1      21.304   3.783  52.063  1.00  0.00    -0.261 NA
BRANCH  23  24
HETATM   24  C15 UNL     1      20.077   3.625  51.821  1.00  0.00     0.185 C 
BRANCH  24  25
HETATM   25  N3  UNL     1      18.827   3.452  52.078  1.00  0.00    -0.279 NA
HETATM   26  H18 UNL     1      18.439   2.508  52.330  1.00  0.00     0.189 HD
ENDBRANCH  24  25
ENDBRANCH  23  24
ENDBRANCH   8  23
TORSDOF 7
ENDMDL
