MODEL 1
REMARK VINA RESULT:      -8.5      0.000      0.000
REMARK  6 active torsions:
REMARK  status: ('A' for Active; 'I' for Inactive)
REMARK    1  A    between atoms: C1_3  and  O2_4 
REMARK    2  A    between atoms: C2_5  and  C3_6 
REMARK    3  A    between atoms: C6_9  and  O3_10 
REMARK    4  A    between atoms: C7_11  and  O4_12 
REMARK    5  A    between atoms: C11_17  and  O6_18 
REMARK    6  A    between atoms: C13_20  and  O7_21 
ROOT
HETATM    1  O1  UNL     1      21.806  -2.415  54.958  1.00  0.00    -0.245 OA
HETATM    2  S1  UNL     1      22.301  -0.992  54.921  1.00  0.00     0.117 S 
HETATM    3  C1  UNL     1      24.068  -0.881  54.842  1.00  0.00     0.174 A 
HETATM    4  C2  UNL     1      24.643  -0.297  53.810  1.00  0.00     0.129 A 
HETATM    5  O5  UNL     1      23.998   0.261  52.741  1.00  0.00    -0.305 OA
HETATM    6  C9  UNL     1      22.648   0.303  52.563  1.00  0.00     0.101 A 
HETATM    7  C10 UNL     1      22.184   0.908  51.419  1.00  0.00     0.075 A 
HETATM    8  C11 UNL     1      20.821   0.991  51.167  1.00  0.00     0.071 A 
HETATM    9  C12 UNL     1      19.918   0.463  52.070  1.00  0.00     0.074 A 
HETATM   10  C13 UNL     1      20.384  -0.146  53.223  1.00  0.00     0.090 A 
HETATM   11  C14 UNL     1      21.722  -0.210  53.439  1.00  0.00     0.105 A 
ENDROOT
BRANCH   4  12
HETATM   12  C3  UNL     1      26.096  -0.279  53.883  1.00  0.00     0.004 A 
HETATM   13  C4  UNL     1      26.740  -1.275  53.149  1.00  0.00     0.017 A 
HETATM   14  C5  UNL     1      28.120  -1.428  53.082  1.00  0.00     0.040 A 
HETATM   15  C6  UNL     1      28.879  -0.518  53.802  1.00  0.00     0.098 A 
HETATM   16  C7  UNL     1      28.249   0.458  54.519  1.00  0.00     0.099 A 
HETATM   17  C8  UNL     1      26.886   0.608  54.584  1.00  0.00     0.053 A 
BRANCH  15  18
HETATM   18  O3  UNL     1      30.256  -0.690  53.720  1.00  0.00    -0.358 OA
HETATM   19  H4  UNL     1      30.581  -1.660  53.766  1.00  0.00     0.217 HD
ENDBRANCH  15  18
BRANCH  16  20
HETATM   20  O4  UNL     1      29.043   1.355  55.229  1.00  0.00    -0.358 OA
HETATM   21  H5  UNL     1      30.037   1.438  55.038  1.00  0.00     0.217 HD
ENDBRANCH  16  20
ENDBRANCH   4  12
BRANCH   3  22
HETATM   22  O2  UNL     1      24.584  -1.466  55.950  1.00  0.00    -0.350 OA
HETATM   23  H1  UNL     1      24.117  -2.267  56.376  1.00  0.00     0.218 HD
ENDBRANCH   3  22
BRANCH  10  24
HETATM   24  O7  UNL     1      19.487  -0.673  54.128  1.00  0.00    -0.359 OA
HETATM   25  H10 UNL     1      18.655  -0.164  54.411  1.00  0.00     0.217 HD
ENDBRANCH  10  24
BRANCH   8  26
HETATM   26  O6  UNL     1      20.423   1.623  49.979  1.00  0.00    -0.361 OA
HETATM   27  H8  UNL     1      20.072   0.994  49.266  1.00  0.00     0.217 HD
ENDBRANCH   8  26
TORSDOF 6
ENDMDL
MODEL 2
REMARK VINA RESULT:      -8.4      2.101      7.247
REMARK  6 active torsions:
REMARK  status: ('A' for Active; 'I' for Inactive)
REMARK    1  A    between atoms: C1_3  and  O2_4 
REMARK    2  A    between atoms: C2_5  and  C3_6 
REMARK    3  A    between atoms: C6_9  and  O3_10 
REMARK    4  A    between atoms: C7_11  and  O4_12 
REMARK    5  A    between atoms: C11_17  and  O6_18 
REMARK    6  A    between atoms: C13_20  and  O7_21 
ROOT
HETATM    1  O1  UNL     1      27.630   2.679  51.915  1.00  0.00    -0.245 OA
HETATM    2  S1  UNL     1      27.014   1.969  53.093  1.00  0.00     0.117 S 
HETATM    3  C1  UNL     1      25.256   1.802  52.953  1.00  0.00     0.174 A 
HETATM    4  C2  UNL     1      24.711   0.603  52.925  1.00  0.00     0.129 A 
HETATM    5  O5  UNL     1      25.384  -0.586  52.995  1.00  0.00    -0.305 OA
HETATM    6  C9  UNL     1      26.734  -0.728  53.105  1.00  0.00     0.101 A 
HETATM    7  C10 UNL     1      27.228  -2.010  53.161  1.00  0.00     0.075 A 
HETATM    8  C11 UNL     1      28.593  -2.236  53.274  1.00  0.00     0.071 A 
HETATM    9  C12 UNL     1      29.469  -1.168  53.329  1.00  0.00     0.074 A 
HETATM   10  C13 UNL     1      28.972   0.124  53.273  1.00  0.00     0.090 A 
HETATM   11  C14 UNL     1      27.633   0.310  53.163  1.00  0.00     0.105 A 
ENDROOT
BRANCH   4  12
HETATM   12  C3  UNL     1      23.262   0.620  52.809  1.00  0.00     0.004 A 
HETATM   13  C4  UNL     1      22.770   0.995  51.558  1.00  0.00     0.017 A 
HETATM   14  C5  UNL     1      21.418   1.070  51.240  1.00  0.00     0.040 A 
HETATM   15  C6  UNL     1      20.526   0.748  52.251  1.00  0.00     0.098 A 
HETATM   16  C7  UNL     1      21.007   0.382  53.475  1.00  0.00     0.099 A 
HETATM   17  C8  UNL     1      22.342   0.307  53.787  1.00  0.00     0.053 A 
BRANCH  15  18
HETATM   18  O3  UNL     1      19.181   0.831  51.910  1.00  0.00    -0.358 OA
HETATM   19  H4  UNL     1      18.626   1.487  52.466  1.00  0.00     0.217 HD
ENDBRANCH  15  18
BRANCH  16  20
HETATM   20  O4  UNL     1      20.082   0.065  54.466  1.00  0.00    -0.358 OA
HETATM   21  H5  UNL     1      20.378  -0.353  55.344  1.00  0.00     0.217 HD
ENDBRANCH  16  20
ENDBRANCH   4  12
BRANCH   3  22
HETATM   22  O2  UNL     1      24.711   3.041  52.891  1.00  0.00    -0.350 OA
HETATM   23  H1  UNL     1      24.192   3.337  52.064  1.00  0.00     0.218 HD
ENDBRANCH   3  22
BRANCH  10  24
HETATM   24  O7  UNL     1      29.841   1.193  53.329  1.00  0.00    -0.359 OA
HETATM   25  H10 UNL     1      30.367   1.495  52.515  1.00  0.00     0.217 HD
ENDBRANCH  10  24
BRANCH   8  26
HETATM   26  O6  UNL     1      29.023  -3.571  53.326  1.00  0.00    -0.361 OA
HETATM   27  H8  UNL     1      28.443  -4.220  52.806  1.00  0.00     0.217 HD
ENDBRANCH   8  26
TORSDOF 6
ENDMDL
MODEL 3
REMARK VINA RESULT:      -8.1      1.954      7.228
REMARK  6 active torsions:
REMARK  status: ('A' for Active; 'I' for Inactive)
REMARK    1  A    between atoms: C1_3  and  O2_4 
REMARK    2  A    between atoms: C2_5  and  C3_6 
REMARK    3  A    between atoms: C6_9  and  O3_10 
REMARK    4  A    between atoms: C7_11  and  O4_12 
REMARK    5  A    between atoms: C11_17  and  O6_18 
REMARK    6  A    between atoms: C13_20  and  O7_21 
ROOT
HETATM    1  O1  UNL     1      26.859   2.612  51.858  1.00  0.00    -0.245 OA
HETATM    2  S1  UNL     1      26.410   1.872  53.092  1.00  0.00     0.117 S 
HETATM    3  C1  UNL     1      24.683   1.476  53.065  1.00  0.00     0.174 A 
HETATM    4  C2  UNL     1      24.298   0.216  53.105  1.00  0.00     0.129 A 
HETATM    5  O5  UNL     1      25.123  -0.873  53.168  1.00  0.00    -0.305 OA
HETATM    6  C9  UNL     1      26.484  -0.837  53.198  1.00  0.00     0.101 A 
HETATM    7  C10 UNL     1      27.144  -2.041  53.260  1.00  0.00     0.075 A 
HETATM    8  C11 UNL     1      28.531  -2.087  53.294  1.00  0.00     0.071 A 
HETATM    9  C12 UNL     1      29.261  -0.914  53.265  1.00  0.00     0.074 A 
HETATM   10  C13 UNL     1      28.598   0.300  53.202  1.00  0.00     0.090 A 
HETATM   11  C14 UNL     1      27.242   0.309  53.171  1.00  0.00     0.105 A 
ENDROOT
BRANCH   4  12
HETATM   12  C3  UNL     1      22.854   0.044  53.079  1.00  0.00     0.004 A 
HETATM   13  C4  UNL     1      22.301  -0.508  54.234  1.00  0.00     0.017 A 
HETATM   14  C5  UNL     1      20.942  -0.749  54.412  1.00  0.00     0.040 A 
HETATM   15  C6  UNL     1      20.111  -0.411  53.355  1.00  0.00     0.098 A 
HETATM   16  C7  UNL     1      20.653   0.129  52.225  1.00  0.00     0.099 A 
HETATM   17  C8  UNL     1      21.994   0.367  52.051  1.00  0.00     0.053 A 
BRANCH  15  18
HETATM   18  O3  UNL     1      18.758  -0.661  53.556  1.00  0.00    -0.358 OA
HETATM   19  H4  UNL     1      18.339  -0.191  54.363  1.00  0.00     0.217 HD
ENDBRANCH  15  18
BRANCH  16  20
HETATM   20  O4  UNL     1      19.787   0.456  51.184  1.00  0.00    -0.358 OA
HETATM   21  H5  UNL     1      20.056   0.311  50.215  1.00  0.00     0.217 HD
ENDBRANCH  16  20
ENDBRANCH   4  12
BRANCH   3  22
HETATM   22  O2  UNL     1      23.979   2.631  53.002  1.00  0.00    -0.350 OA
HETATM   23  H1  UNL     1      23.130   2.751  53.557  1.00  0.00     0.218 HD
ENDBRANCH   3  22
BRANCH  10  24
HETATM   24  O7  UNL     1      29.322   1.474  53.175  1.00  0.00    -0.359 OA
HETATM   25  H10 UNL     1      29.208   2.186  53.889  1.00  0.00     0.217 HD
ENDBRANCH  10  24
BRANCH   8  26
HETATM   26  O6  UNL     1      29.133  -3.353  53.358  1.00  0.00    -0.361 OA
HETATM   27  H8  UNL     1      28.929  -3.956  52.568  1.00  0.00     0.217 HD
ENDBRANCH   8  26
TORSDOF 6
ENDMDL
MODEL 4
REMARK VINA RESULT:      -7.8      1.592      2.927
REMARK  6 active torsions:
REMARK  status: ('A' for Active; 'I' for Inactive)
REMARK    1  A    between atoms: C1_3  and  O2_4 
REMARK    2  A    between atoms: C2_5  and  C3_6 
REMARK    3  A    between atoms: C6_9  and  O3_10 
REMARK    4  A    between atoms: C7_11  and  O4_12 
REMARK    5  A    between atoms: C11_17  and  O6_18 
REMARK    6  A    between atoms: C13_20  and  O7_21 
ROOT
HETATM    1  O1  UNL     1      22.513   3.337  51.872  1.00  0.00    -0.245 OA
HETATM    2  S1  UNL     1      22.874   1.923  51.497  1.00  0.00     0.117 S 
HETATM    3  C1  UNL     1      24.493   1.458  52.049  1.00  0.00     0.174 A 
HETATM    4  C2  UNL     1      24.636   0.455  52.892  1.00  0.00     0.129 A 
HETATM    5  O5  UNL     1      23.625  -0.305  53.414  1.00  0.00    -0.305 OA
HETATM    6  C9  UNL     1      22.298  -0.149  53.151  1.00  0.00     0.101 A 
HETATM    7  C10 UNL     1      21.428  -1.011  53.774  1.00  0.00     0.075 A 
HETATM    8  C11 UNL     1      20.060  -0.916  53.556  1.00  0.00     0.071 A 
HETATM    9  C12 UNL     1      19.562   0.053  52.706  1.00  0.00     0.074 A 
HETATM   10  C13 UNL     1      20.437   0.923  52.076  1.00  0.00     0.090 A 
HETATM   11  C14 UNL     1      21.768   0.802  52.312  1.00  0.00     0.105 A 
ENDROOT
BRANCH   4  12
HETATM   12  C3  UNL     1      26.018   0.186  53.254  1.00  0.00     0.004 A 
HETATM   13  C4  UNL     1      26.585  -0.934  52.646  1.00  0.00     0.017 A 
HETATM   14  C5  UNL     1      27.893  -1.359  52.854  1.00  0.00     0.040 A 
HETATM   15  C6  UNL     1      28.657  -0.601  53.727  1.00  0.00     0.098 A 
HETATM   16  C7  UNL     1      28.103   0.496  54.321  1.00  0.00     0.099 A 
HETATM   17  C8  UNL     1      26.812   0.914  54.115  1.00  0.00     0.053 A 
BRANCH  15  18
HETATM   18  O3  UNL     1      29.961  -1.045  53.920  1.00  0.00    -0.358 OA
HETATM   19  H4  UNL     1      30.158  -1.990  53.579  1.00  0.00     0.217 HD
ENDBRANCH  15  18
BRANCH  16  20
HETATM   20  O4  UNL     1      28.901   1.233  55.193  1.00  0.00    -0.358 OA
HETATM   21  H5  UNL     1      28.529   1.588  56.069  1.00  0.00     0.217 HD
ENDBRANCH  16  20
ENDBRANCH   4  12
BRANCH   3  22
HETATM   22  O2  UNL     1      25.397   2.279  51.465  1.00  0.00    -0.350 OA
HETATM   23  H1  UNL     1      25.657   3.161  51.909  1.00  0.00     0.218 HD
ENDBRANCH   3  22
BRANCH  10  24
HETATM   24  O7  UNL     1      19.946   1.891  51.226  1.00  0.00    -0.359 OA
HETATM   25  H10 UNL     1      19.541   1.652  50.326  1.00  0.00     0.217 HD
ENDBRANCH  10  24
BRANCH   8  26
HETATM   26  O6  UNL     1      19.235  -1.831  54.227  1.00  0.00    -0.361 OA
HETATM   27  H8  UNL     1      19.537  -2.059  55.167  1.00  0.00     0.217 HD
ENDBRANCH   8  26
TORSDOF 6
ENDMDL
MODEL 5
REMARK VINA RESULT:      -7.7      3.857      4.869
REMARK  6 active torsions:
REMARK  status: ('A' for Active; 'I' for Inactive)
REMARK    1  A    between atoms: C1_3  and  O2_4 
REMARK    2  A    between atoms: C2_5  and  C3_6 
REMARK    3  A    between atoms: C6_9  and  O3_10 
REMARK    4  A    between atoms: C7_11  and  O4_12 
REMARK    5  A    between atoms: C11_17  and  O6_18 
REMARK    6  A    between atoms: C13_20  and  O7_21 
ROOT
HETATM    1  O1  UNL     1      22.677   2.194  51.224  1.00  0.00    -0.245 OA
HETATM    2  S1  UNL     1      23.924   2.671  51.922  1.00  0.00     0.117 S 
HETATM    3  C1  UNL     1      25.005   1.344  52.381  1.00  0.00     0.174 A 
HETATM    4  C2  UNL     1      26.226   1.292  51.888  1.00  0.00     0.129 A 
HETATM    5  O5  UNL     1      26.780   2.191  51.018  1.00  0.00    -0.305 OA
HETATM    6  C9  UNL     1      26.157   3.293  50.515  1.00  0.00     0.101 A 
HETATM    7  C10 UNL     1      26.879   4.081  49.649  1.00  0.00     0.075 A 
HETATM    8  C11 UNL     1      26.314   5.221  49.094  1.00  0.00     0.071 A 
HETATM    9  C12 UNL     1      25.016   5.573  49.410  1.00  0.00     0.074 A 
HETATM   10  C13 UNL     1      24.288   4.781  50.282  1.00  0.00     0.090 A 
HETATM   11  C14 UNL     1      24.870   3.673  50.806  1.00  0.00     0.105 A 
ENDROOT
BRANCH   4  12
HETATM   12  C3  UNL     1      26.998   0.151  52.354  1.00  0.00     0.004 A 
HETATM   13  C4  UNL     1      26.446  -1.097  52.065  1.00  0.00     0.017 A 
HETATM   14  C5  UNL     1      27.028  -2.310  52.418  1.00  0.00     0.040 A 
HETATM   15  C6  UNL     1      28.232  -2.242  53.102  1.00  0.00     0.098 A 
HETATM   16  C7  UNL     1      28.772  -1.021  53.385  1.00  0.00     0.099 A 
HETATM   17  C8  UNL     1      28.197   0.175  53.035  1.00  0.00     0.053 A 
BRANCH  15  18
HETATM   18  O3  UNL     1      28.794  -3.466  53.445  1.00  0.00    -0.358 OA
HETATM   19  H4  UNL     1      28.418  -3.902  54.292  1.00  0.00     0.217 HD
ENDBRANCH  15  18
BRANCH  16  20
HETATM   20  O4  UNL     1      29.982  -0.991  54.073  1.00  0.00    -0.358 OA
HETATM   21  H5  UNL     1      30.688  -1.707  53.922  1.00  0.00     0.217 HD
ENDBRANCH  16  20
ENDBRANCH   4  12
BRANCH   3  22
HETATM   22  O2  UNL     1      24.344   0.529  53.237  1.00  0.00    -0.350 OA
HETATM   23  H1  UNL     1      24.777  -0.334  53.568  1.00  0.00     0.218 HD
ENDBRANCH   3  22
BRANCH  10  24
HETATM   24  O7  UNL     1      22.992   5.128  50.602  1.00  0.00    -0.359 OA
HETATM   25  H10 UNL     1      22.204   4.814  50.044  1.00  0.00     0.217 HD
ENDBRANCH  10  24
BRANCH   8  26
HETATM   26  O6  UNL     1      27.112   5.976  48.220  1.00  0.00    -0.361 OA
HETATM   27  H8  UNL     1      27.066   6.978  48.368  1.00  0.00     0.217 HD
ENDBRANCH   8  26
TORSDOF 6
ENDMDL
MODEL 6
REMARK VINA RESULT:      -7.7      2.137      3.751
REMARK  6 active torsions:
REMARK  status: ('A' for Active; 'I' for Inactive)
REMARK    1  A    between atoms: C1_3  and  O2_4 
REMARK    2  A    between atoms: C2_5  and  C3_6 
REMARK    3  A    between atoms: C6_9  and  O3_10 
REMARK    4  A    between atoms: C7_11  and  O4_12 
REMARK    5  A    between atoms: C11_17  and  O6_18 
REMARK    6  A    between atoms: C13_20  and  O7_21 
ROOT
HETATM    1  O1  UNL     1      20.836   2.674  50.046  1.00  0.00    -0.245 OA
HETATM    2  S1  UNL     1      21.320   1.285  50.373  1.00  0.00     0.117 S 
HETATM    3  C1  UNL     1      22.832   1.284  51.297  1.00  0.00     0.174 A 
HETATM    4  C2  UNL     1      22.865   0.747  52.501  1.00  0.00     0.129 A 
HETATM    5  O5  UNL     1      21.810   0.163  53.148  1.00  0.00    -0.305 OA
HETATM    6  C9  UNL     1      20.547   0.040  52.655  1.00  0.00     0.101 A 
HETATM    7  C10 UNL     1      19.617  -0.579  53.456  1.00  0.00     0.075 A 
HETATM    8  C11 UNL     1      18.308  -0.743  53.024  1.00  0.00     0.071 A 
HETATM    9  C12 UNL     1      17.930  -0.282  51.778  1.00  0.00     0.074 A 
HETATM   10  C13 UNL     1      18.865   0.342  50.969  1.00  0.00     0.090 A 
HETATM   11  C14 UNL     1      20.136   0.486  51.422  1.00  0.00     0.105 A 
ENDROOT
BRANCH   4  12
HETATM   12  C3  UNL     1      24.170   0.817  53.138  1.00  0.00     0.004 A 
HETATM   13  C4  UNL     1      24.628  -0.381  53.687  1.00  0.00     0.017 A 
HETATM   14  C5  UNL     1      25.850  -0.528  54.334  1.00  0.00     0.040 A 
HETATM   15  C6  UNL     1      26.641   0.607  54.425  1.00  0.00     0.098 A 
HETATM   16  C7  UNL     1      26.193   1.779  53.888  1.00  0.00     0.099 A 
HETATM   17  C8  UNL     1      24.987   1.922  53.249  1.00  0.00     0.053 A 
BRANCH  15  18
HETATM   18  O3  UNL     1      27.858   0.437  55.076  1.00  0.00    -0.358 OA
HETATM   19  H4  UNL     1      28.197  -0.528  55.129  1.00  0.00     0.217 HD
ENDBRANCH  15  18
BRANCH  16  20
HETATM   20  O4  UNL     1      27.015   2.898  53.998  1.00  0.00    -0.358 OA
HETATM   21  H5  UNL     1      27.327   3.231  54.906  1.00  0.00     0.217 HD
ENDBRANCH  16  20
ENDBRANCH   4  12
BRANCH   3  22
HETATM   22  O2  UNL     1      23.790   1.886  50.553  1.00  0.00    -0.350 OA
HETATM   23  H1  UNL     1      24.692   2.125  50.967  1.00  0.00     0.218 HD
ENDBRANCH   3  22
BRANCH  10  24
HETATM   24  O7  UNL     1      18.493   0.803  49.723  1.00  0.00    -0.359 OA
HETATM   25  H10 UNL     1      18.664   0.260  48.882  1.00  0.00     0.217 HD
ENDBRANCH  10  24
BRANCH   8  26
HETATM   26  O6  UNL     1      17.417  -1.384  53.897  1.00  0.00    -0.361 OA
HETATM   27  H8  UNL     1      17.709  -1.389  54.868  1.00  0.00     0.217 HD
ENDBRANCH   8  26
TORSDOF 6
ENDMDL
MODEL 7
REMARK VINA RESULT:      -7.6      3.510      4.685
REMARK  6 active torsions:
REMARK  status: ('A' for Active; 'I' for Inactive)
REMARK    1  A    between atoms: C1_3  and  O2_4 
REMARK    2  A    between atoms: C2_5  and  C3_6 
REMARK    3  A    between atoms: C6_9  and  O3_10 
REMARK    4  A    between atoms: C7_11  and  O4_12 
REMARK    5  A    between atoms: C11_17  and  O6_18 
REMARK    6  A    between atoms: C13_20  and  O7_21 
ROOT
HETATM    1  O1  UNL     1      25.103   5.951  50.455  1.00  0.00    -0.245 OA
HETATM    2  S1  UNL     1      24.731   4.514  50.192  1.00  0.00     0.117 S 
HETATM    3  C1  UNL     1      25.774   3.366  51.047  1.00  0.00     0.174 A 
HETATM    4  C2  UNL     1      25.253   2.536  51.928  1.00  0.00     0.129 A 
HETATM    5  O5  UNL     1      23.931   2.458  52.274  1.00  0.00    -0.305 OA
HETATM    6  C9  UNL     1      22.932   3.230  51.764  1.00  0.00     0.101 A 
HETATM    7  C10 UNL     1      21.661   3.006  52.238  1.00  0.00     0.075 A 
HETATM    8  C11 UNL     1      20.589   3.752  51.767  1.00  0.00     0.071 A 
HETATM    9  C12 UNL     1      20.794   4.731  50.814  1.00  0.00     0.074 A 
HETATM   10  C13 UNL     1      22.074   4.958  50.335  1.00  0.00     0.090 A 
HETATM   11  C14 UNL     1      23.099   4.211  50.817  1.00  0.00     0.105 A 
ENDROOT
BRANCH   4  12
HETATM   12  C3  UNL     1      26.227   1.652  52.548  1.00  0.00     0.004 A 
HETATM   13  C4  UNL     1      26.260   0.353  52.038  1.00  0.00     0.017 A 
HETATM   14  C5  UNL     1      27.121  -0.642  52.488  1.00  0.00     0.040 A 
HETATM   15  C6  UNL     1      27.988  -0.292  53.511  1.00  0.00     0.098 A 
HETATM   16  C7  UNL     1      27.957   0.978  54.010  1.00  0.00     0.099 A 
HETATM   17  C8  UNL     1      27.107   1.959  53.564  1.00  0.00     0.053 A 
BRANCH  15  18
HETATM   18  O3  UNL     1      28.839  -1.303  53.945  1.00  0.00    -0.358 OA
HETATM   19  H4  UNL     1      28.659  -2.230  53.549  1.00  0.00     0.217 HD
ENDBRANCH  15  18
BRANCH  16  20
HETATM   20  O4  UNL     1      28.843   1.294  55.037  1.00  0.00    -0.358 OA
HETATM   21  H5  UNL     1      29.491   0.600  55.400  1.00  0.00     0.217 HD
ENDBRANCH  16  20
ENDBRANCH   4  12
BRANCH   3  22
HETATM   22  O2  UNL     1      27.047   3.543  50.619  1.00  0.00    -0.350 OA
HETATM   23  H1  UNL     1      27.243   4.136  49.812  1.00  0.00     0.218 HD
ENDBRANCH   3  22
BRANCH  10  24
HETATM   24  O7  UNL     1      22.285   5.933  49.382  1.00  0.00    -0.359 OA
HETATM   25  H10 UNL     1      21.577   6.164  48.692  1.00  0.00     0.217 HD
ENDBRANCH  10  24
BRANCH   8  26
HETATM   26  O6  UNL     1      19.322   3.465  52.297  1.00  0.00    -0.361 OA
HETATM   27  H8  UNL     1      18.566   3.498  51.622  1.00  0.00     0.217 HD
ENDBRANCH   8  26
TORSDOF 6
ENDMDL
MODEL 8
REMARK VINA RESULT:      -7.2      3.663      5.336
REMARK  6 active torsions:
REMARK  status: ('A' for Active; 'I' for Inactive)
REMARK    1  A    between atoms: C1_3  and  O2_4 
REMARK    2  A    between atoms: C2_5  and  C3_6 
REMARK    3  A    between atoms: C6_9  and  O3_10 
REMARK    4  A    between atoms: C7_11  and  O4_12 
REMARK    5  A    between atoms: C11_17  and  O6_18 
REMARK    6  A    between atoms: C13_20  and  O7_21 
ROOT
HETATM    1  O1  UNL     1      26.992  -0.976  53.711  1.00  0.00    -0.245 OA
HETATM    2  S1  UNL     1      26.209   0.264  54.057  1.00  0.00     0.117 S 
HETATM    3  C1  UNL     1      26.306   1.511  52.803  1.00  0.00     0.174 A 
HETATM    4  C2  UNL     1      25.209   1.919  52.197  1.00  0.00     0.129 A 
HETATM    5  O5  UNL     1      23.942   1.464  52.440  1.00  0.00    -0.305 OA
HETATM    6  C9  UNL     1      23.603   0.510  53.351  1.00  0.00     0.101 A 
HETATM    7  C10 UNL     1      22.271   0.183  53.452  1.00  0.00     0.075 A 
HETATM    8  C11 UNL     1      21.847  -0.780  54.357  1.00  0.00     0.071 A 
HETATM    9  C12 UNL     1      22.766  -1.420  55.167  1.00  0.00     0.074 A 
HETATM   10  C13 UNL     1      24.107  -1.091  55.067  1.00  0.00     0.090 A 
HETATM   11  C14 UNL     1      24.488  -0.146  54.172  1.00  0.00     0.105 A 
ENDROOT
BRANCH   4  12
HETATM   12  C3  UNL     1      25.441   2.946  51.194  1.00  0.00     0.004 A 
HETATM   13  C4  UNL     1      24.415   3.881  51.053  1.00  0.00     0.017 A 
HETATM   14  C5  UNL     1      24.443   4.942  50.155  1.00  0.00     0.040 A 
HETATM   15  C6  UNL     1      25.575   5.051  49.362  1.00  0.00     0.098 A 
HETATM   16  C7  UNL     1      26.579   4.137  49.501  1.00  0.00     0.099 A 
HETATM   17  C8  UNL     1      26.550   3.090  50.388  1.00  0.00     0.053 A 
BRANCH  15  18
HETATM   18  O3  UNL     1      25.581   6.119  48.472  1.00  0.00    -0.358 OA
HETATM   19  H4  UNL     1      26.507   6.463  48.203  1.00  0.00     0.217 HD
ENDBRANCH  15  18
BRANCH  16  20
HETATM   20  O4  UNL     1      27.701   4.278  48.687  1.00  0.00    -0.358 OA
HETATM   21  H5  UNL     1      28.073   3.488  48.167  1.00  0.00     0.217 HD
ENDBRANCH  16  20
ENDBRANCH   4  12
BRANCH   3  22
HETATM   22  O2  UNL     1      27.603   1.873  52.658  1.00  0.00    -0.350 OA
HETATM   23  H1  UNL     1      28.066   2.435  53.374  1.00  0.00     0.218 HD
ENDBRANCH   3  22
BRANCH  10  24
HETATM   24  O7  UNL     1      25.029  -1.725  55.874  1.00  0.00    -0.359 OA
HETATM   25  H10 UNL     1      25.892  -1.270  56.155  1.00  0.00     0.217 HD
ENDBRANCH  10  24
BRANCH   8  26
HETATM   26  O6  UNL     1      20.472  -1.060  54.403  1.00  0.00    -0.361 OA
HETATM   27  H8  UNL     1      20.106  -1.215  55.336  1.00  0.00     0.217 HD
ENDBRANCH   8  26
TORSDOF 6
ENDMDL
MODEL 9
REMARK VINA RESULT:      -7.2      9.182     10.724
REMARK  6 active torsions:
REMARK  status: ('A' for Active; 'I' for Inactive)
REMARK    1  A    between atoms: C1_3  and  O2_4 
REMARK    2  A    between atoms: C2_5  and  C3_6 
REMARK    3  A    between atoms: C6_9  and  O3_10 
REMARK    4  A    between atoms: C7_11  and  O4_12 
REMARK    5  A    between atoms: C11_17  and  O6_18 
REMARK    6  A    between atoms: C13_20  and  O7_21 
ROOT
HETATM    1  O1  UNL     1      29.943   8.924  49.311  1.00  0.00    -0.245 OA
HETATM    2  S1  UNL     1      29.693   8.053  48.106  1.00  0.00     0.117 S 
HETATM    3  C1  UNL     1      31.081   7.031  47.697  1.00  0.00     0.174 A 
HETATM    4  C2  UNL     1      30.957   5.719  47.712  1.00  0.00     0.129 A 
HETATM    5  O5  UNL     1      29.821   5.024  48.025  1.00  0.00    -0.305 OA
HETATM    6  C9  UNL     1      28.625   5.575  48.375  1.00  0.00     0.101 A 
HETATM    7  C10 UNL     1      27.594   4.710  48.656  1.00  0.00     0.075 A 
HETATM    8  C11 UNL     1      26.345   5.195  49.020  1.00  0.00     0.071 A 
HETATM    9  C12 UNL     1      26.130   6.558  49.102  1.00  0.00     0.074 A 
HETATM   10  C13 UNL     1      27.168   7.430  48.819  1.00  0.00     0.090 A 
HETATM   11  C14 UNL     1      28.376   6.923  48.466  1.00  0.00     0.105 A 
ENDROOT
BRANCH   4  12
HETATM   12  C3  UNL     1      32.175   5.011  47.354  1.00  0.00     0.004 A 
HETATM   13  C4  UNL     1      32.401   4.873  45.984  1.00  0.00     0.017 A 
HETATM   14  C5  UNL     1      33.508   4.235  45.434  1.00  0.00     0.040 A 
HETATM   15  C6  UNL     1      34.427   3.711  46.330  1.00  0.00     0.098 A 
HETATM   16  C7  UNL     1      34.207   3.847  47.670  1.00  0.00     0.099 A 
HETATM   17  C8  UNL     1      33.114   4.477  48.211  1.00  0.00     0.053 A 
BRANCH  15  18
HETATM   18  O3  UNL     1      35.525   3.078  45.758  1.00  0.00    -0.358 OA
HETATM   19  H4  UNL     1      35.802   2.196  46.198  1.00  0.00     0.217 HD
ENDBRANCH  15  18
BRANCH  16  20
HETATM   20  O4  UNL     1      35.152   3.308  48.540  1.00  0.00    -0.358 OA
HETATM   21  H5  UNL     1      35.961   2.805  48.187  1.00  0.00     0.217 HD
ENDBRANCH  16  20
ENDBRANCH   4  12
BRANCH   3  22
HETATM   22  O2  UNL     1      32.134   7.833  47.410  1.00  0.00    -0.350 OA
HETATM   23  H1  UNL     1      31.997   8.834  47.263  1.00  0.00     0.218 HD
ENDBRANCH   3  22
BRANCH  10  24
HETATM   24  O7  UNL     1      26.958   8.791  48.898  1.00  0.00    -0.359 OA
HETATM   25  H10 UNL     1      26.907   9.270  49.792  1.00  0.00     0.217 HD
ENDBRANCH  10  24
BRANCH   8  26
HETATM   26  O6  UNL     1      25.342   4.252  49.291  1.00  0.00    -0.361 OA
HETATM   27  H8  UNL     1      24.452   4.445  48.845  1.00  0.00     0.217 HD
ENDBRANCH   8  26
TORSDOF 6
ENDMDL
