MODEL 1
REMARK VINA RESULT:      -6.5      0.000      0.000
REMARK  8 active torsions:
REMARK  status: ('A' for Active; 'I' for Inactive)
REMARK    1  A    between atoms: O1_2  and  C2_3 
REMARK    2  A    between atoms: C2_3  and  C3_5 
REMARK    3  A    between atoms: C3_5  and  C4_6 
REMARK    4  A    between atoms: C4_6  and  C5_7 
REMARK    5  A    between atoms: C5_7  and  C6_8 
REMARK    6  A    between atoms: C6_8  and  C7_9 
REMARK    7  A    between atoms: C7_9  and  C8_10 
REMARK    8  A    between atoms: C8_10  and  O4_12 
ROOT
HETATM    1  C5  UNL     1      25.488  -0.126  53.013  1.00  0.00     0.030 A 
HETATM    2  C10 UNL     1      26.578  -0.555  52.088  1.00  0.00     0.147 A 
HETATM    3  S1  UNL     1      26.621  -2.036  52.616  1.00  0.00    -0.066 SA
HETATM    4  N1  UNL     1      26.760   0.762  51.409  1.00  0.00    -0.018 N 
HETATM    5  C11 UNL     1      26.222   2.431  51.469  1.00  0.00     0.149 A 
HETATM    6  C12 UNL     1      26.513   1.469  51.457  1.00  0.00     0.328 A 
HETATM    7  C13 UNL     1      25.445   1.385  52.635  1.00  0.00     0.059 A 
HETATM    8  C14 UNL     1      25.194   2.600  52.532  1.00  0.00    -0.059 A 
HETATM    9  C15 UNL     1      24.207   3.391  53.367  1.00  0.00     0.042 C 
HETATM   10  H15 UNL     1      27.334  -0.262  51.075  1.00  0.00     0.352 HD
ENDROOT
BRANCH   1  11
HETATM   11  C4  UNL     1      24.121  -0.572  52.769  1.00  0.00     0.027 C 
BRANCH  11  12
HETATM   12  C3  UNL     1      22.891  -0.157  53.382  1.00  0.00     0.112 C 
BRANCH  12  13
HETATM   13  C2  UNL     1      22.187  -1.104  54.258  1.00  0.00     0.258 C 
HETATM   14  O2  UNL     1      21.824  -1.938  55.161  1.00  0.00    -0.265 OA
BRANCH  13  15
HETATM   15  O1  UNL     1      20.893  -1.386  53.968  1.00  0.00    -0.326 OA
HETATM   16  C1  UNL     1      19.843  -0.592  53.562  1.00  0.00     0.213 C 
ENDBRANCH  13  15
ENDBRANCH  12  13
ENDBRANCH  11  12
ENDBRANCH   1  11
BRANCH   1  17
HETATM   17  C6  UNL     1      25.878  -0.343  54.406  1.00  0.00     0.027 C 
BRANCH  17  18
HETATM   18  C7  UNL     1      26.749   0.720  55.019  1.00  0.00     0.112 C 
BRANCH  18  19
HETATM   19  C8  UNL     1      28.161   0.396  54.837  1.00  0.00     0.258 C 
HETATM   20  O3  UNL     1      28.821   1.491  54.782  1.00  0.00    -0.265 OA
BRANCH  19  21
HETATM   21  O4  UNL     1      29.291  -0.324  54.682  1.00  0.00    -0.326 OA
HETATM   22  C9  UNL     1      30.027  -0.524  53.493  1.00  0.00     0.213 C 
ENDBRANCH  19  21
ENDBRANCH  18  19
ENDBRANCH  17  18
ENDBRANCH   1  17
TORSDOF 8
ENDMDL
MODEL 2
REMARK VINA RESULT:      -6.4      2.840      4.208
REMARK  8 active torsions:
REMARK  status: ('A' for Active; 'I' for Inactive)
REMARK    1  A    between atoms: O1_2  and  C2_3 
REMARK    2  A    between atoms: C2_3  and  C3_5 
REMARK    3  A    between atoms: C3_5  and  C4_6 
REMARK    4  A    between atoms: C4_6  and  C5_7 
REMARK    5  A    between atoms: C5_7  and  C6_8 
REMARK    6  A    between atoms: C6_8  and  C7_9 
REMARK    7  A    between atoms: C7_9  and  C8_10 
REMARK    8  A    between atoms: C8_10  and  O4_12 
ROOT
HETATM    1  C5  UNL     1      24.999   1.211  52.736  1.00  0.00     0.030 A 
HETATM    2  C10 UNL     1      25.354   2.338  53.649  1.00  0.00     0.147 A 
HETATM    3  S1  UNL     1      24.191   3.275  53.153  1.00  0.00    -0.066 SA
HETATM    4  N1  UNL     1      26.527   1.680  54.293  1.00  0.00    -0.018 N 
HETATM    5  C11 UNL     1      27.519   0.235  54.207  1.00  0.00     0.149 A 
HETATM    6  C12 UNL     1      26.935   1.053  54.235  1.00  0.00     0.328 A 
HETATM    7  C13 UNL     1      26.181   0.255  53.081  1.00  0.00     0.059 A 
HETATM    8  C14 UNL     1      26.993  -0.685  53.162  1.00  0.00    -0.059 A 
HETATM    9  C15 UNL     1      26.991  -1.952  52.330  1.00  0.00     0.042 C 
HETATM   10  H15 UNL     1      26.077   2.761  54.639  1.00  0.00     0.352 HD
ENDROOT
BRANCH   1  11
HETATM   11  C4  UNL     1      23.819   0.402  53.019  1.00  0.00     0.027 C 
BRANCH  11  12
HETATM   12  C3  UNL     1      23.601  -0.588  54.035  1.00  0.00     0.112 C 
BRANCH  12  13
HETATM   13  C2  UNL     1      22.223  -1.014  54.318  1.00  0.00     0.258 C 
HETATM   14  O2  UNL     1      21.148  -1.553  54.759  1.00  0.00    -0.265 OA
BRANCH  13  15
HETATM   15  O1  UNL     1      21.228  -0.442  53.596  1.00  0.00    -0.326 OA
HETATM   16  C1  UNL     1      19.867  -0.655  53.568  1.00  0.00     0.213 C 
ENDBRANCH  13  15
ENDBRANCH  12  13
ENDBRANCH  11  12
ENDBRANCH   1  11
BRANCH   1  17
HETATM   17  C6  UNL     1      25.023   1.649  51.341  1.00  0.00     0.027 C 
BRANCH  17  18
HETATM   18  C7  UNL     1      26.350   2.137  50.826  1.00  0.00     0.112 C 
BRANCH  18  19
HETATM   19  C8  UNL     1      26.167   3.275  49.930  1.00  0.00     0.258 C 
HETATM   20  O3  UNL     1      24.984   3.218  49.445  1.00  0.00    -0.265 OA
BRANCH  19  21
HETATM   21  O4  UNL     1      26.426   4.403  49.238  1.00  0.00    -0.326 OA
HETATM   22  C9  UNL     1      27.656   4.800  48.668  1.00  0.00     0.213 C 
ENDBRANCH  19  21
ENDBRANCH  18  19
ENDBRANCH  17  18
ENDBRANCH   1  17
TORSDOF 8
ENDMDL
MODEL 3
REMARK VINA RESULT:      -6.3      3.234      4.376
REMARK  8 active torsions:
REMARK  status: ('A' for Active; 'I' for Inactive)
REMARK    1  A    between atoms: O1_2  and  C2_3 
REMARK    2  A    between atoms: C2_3  and  C3_5 
REMARK    3  A    between atoms: C3_5  and  C4_6 
REMARK    4  A    between atoms: C4_6  and  C5_7 
REMARK    5  A    between atoms: C5_7  and  C6_8 
REMARK    6  A    between atoms: C6_8  and  C7_9 
REMARK    7  A    between atoms: C7_9  and  C8_10 
REMARK    8  A    between atoms: C8_10  and  O4_12 
ROOT
HETATM    1  C5  UNL     1      24.308   2.229  51.741  1.00  0.00     0.030 A 
HETATM    2  C10 UNL     1      23.126   1.369  51.438  1.00  0.00     0.147 A 
HETATM    3  S1  UNL     1      23.197   0.573  52.793  1.00  0.00    -0.066 SA
HETATM    4  N1  UNL     1      22.829   1.945  50.094  1.00  0.00    -0.018 N 
HETATM    5  C11 UNL     1      23.451   3.082  48.911  1.00  0.00     0.149 A 
HETATM    6  C12 UNL     1      23.117   2.436  49.606  1.00  0.00     0.328 A 
HETATM    7  C13 UNL     1      24.387   2.996  50.386  1.00  0.00     0.059 A 
HETATM    8  C14 UNL     1      24.678   3.743  49.433  1.00  0.00    -0.059 A 
HETATM    9  C15 UNL     1      25.860   4.689  49.358  1.00  0.00     0.042 C 
HETATM   10  H15 UNL     1      22.124   1.120  50.653  1.00  0.00     0.352 HD
ENDROOT
BRANCH   1  11
HETATM   11  C4  UNL     1      24.185   3.299  52.724  1.00  0.00     0.027 C 
BRANCH  11  12
HETATM   12  C3  UNL     1      23.411   4.508  52.683  1.00  0.00     0.112 C 
BRANCH  12  13
HETATM   13  C2  UNL     1      21.982   4.416  52.355  1.00  0.00     0.258 C 
HETATM   14  O2  UNL     1      20.731   4.146  52.285  1.00  0.00    -0.265 OA
BRANCH  13  15
HETATM   15  O1  UNL     1      21.518   5.188  51.342  1.00  0.00    -0.326 OA
HETATM   16  C1  UNL     1      22.094   6.212  50.623  1.00  0.00     0.213 C 
ENDBRANCH  13  15
ENDBRANCH  12  13
ENDBRANCH  11  12
ENDBRANCH   1  11
BRANCH   1  17
HETATM   17  C6  UNL     1      25.493   1.410  51.990  1.00  0.00     0.027 C 
BRANCH  17  18
HETATM   18  C7  UNL     1      26.817   2.122  51.904  1.00  0.00     0.112 C 
BRANCH  18  19
HETATM   19  C8  UNL     1      27.577   1.946  53.138  1.00  0.00     0.258 C 
HETATM   20  O3  UNL     1      28.704   2.537  53.004  1.00  0.00    -0.265 OA
BRANCH  19  21
HETATM   21  O4  UNL     1      27.899   1.557  54.388  1.00  0.00    -0.326 OA
HETATM   22  C9  UNL     1      28.539   0.361  54.779  1.00  0.00     0.213 C 
ENDBRANCH  19  21
ENDBRANCH  18  19
ENDBRANCH  17  18
ENDBRANCH   1  17
TORSDOF 8
ENDMDL
MODEL 4
REMARK VINA RESULT:      -6.3      3.294      4.808
REMARK  8 active torsions:
REMARK  status: ('A' for Active; 'I' for Inactive)
REMARK    1  A    between atoms: O1_2  and  C2_3 
REMARK    2  A    between atoms: C2_3  and  C3_5 
REMARK    3  A    between atoms: C3_5  and  C4_6 
REMARK    4  A    between atoms: C4_6  and  C5_7 
REMARK    5  A    between atoms: C5_7  and  C6_8 
REMARK    6  A    between atoms: C6_8  and  C7_9 
REMARK    7  A    between atoms: C7_9  and  C8_10 
REMARK    8  A    between atoms: C8_10  and  O4_12 
ROOT
HETATM    1  C5  UNL     1      24.179   2.432  51.545  1.00  0.00     0.030 A 
HETATM    2  C10 UNL     1      24.004   3.585  52.479  1.00  0.00     0.147 A 
HETATM    3  S1  UNL     1      22.953   4.326  51.572  1.00  0.00    -0.066 SA
HETATM    4  N1  UNL     1      24.967   3.117  53.517  1.00  0.00    -0.018 N 
HETATM    5  C11 UNL     1      26.147   1.858  53.840  1.00  0.00     0.149 A 
HETATM    6  C12 UNL     1      25.466   2.567  53.630  1.00  0.00     0.328 A 
HETATM    7  C13 UNL     1      25.303   1.678  52.318  1.00  0.00     0.059 A 
HETATM    8  C14 UNL     1      26.176   0.884  52.714  1.00  0.00    -0.059 A 
HETATM    9  C15 UNL     1      26.671  -0.348  51.984  1.00  0.00     0.042 C 
HETATM   10  H15 UNL     1      24.256   4.101  53.642  1.00  0.00     0.352 HD
ENDROOT
BRANCH   1  11
HETATM   11  C4  UNL     1      23.123   1.434  51.431  1.00  0.00     0.027 C 
BRANCH  11  12
HETATM   12  C3  UNL     1      22.708   0.418  52.357  1.00  0.00     0.112 C 
BRANCH  12  13
HETATM   13  C2  UNL     1      21.554   0.687  53.225  1.00  0.00     0.258 C 
HETATM   14  O2  UNL     1      20.459   1.080  53.761  1.00  0.00    -0.265 OA
BRANCH  13  15
HETATM   15  O1  UNL     1      21.541   0.106  54.450  1.00  0.00    -0.326 OA
HETATM   16  C1  UNL     1      22.128  -1.042  54.935  1.00  0.00     0.213 C 
ENDBRANCH  13  15
ENDBRANCH  12  13
ENDBRANCH  11  12
ENDBRANCH   1  11
BRANCH   1  17
HETATM   17  C6  UNL     1      24.619   2.895  50.230  1.00  0.00     0.027 C 
BRANCH  17  18
HETATM   18  C7  UNL     1      26.105   3.048  50.048  1.00  0.00     0.112 C 
BRANCH  18  19
HETATM   19  C8  UNL     1      26.428   4.380  49.546  1.00  0.00     0.258 C 
HETATM   20  O3  UNL     1      27.594   4.340  49.020  1.00  0.00    -0.265 OA
BRANCH  19  21
HETATM   21  O4  UNL     1      26.312   5.691  49.251  1.00  0.00    -0.326 OA
HETATM   22  C9  UNL     1      25.622   6.680  49.987  1.00  0.00     0.213 C 
ENDBRANCH  19  21
ENDBRANCH  18  19
ENDBRANCH  17  18
ENDBRANCH   1  17
TORSDOF 8
ENDMDL
MODEL 5
REMARK VINA RESULT:      -6.0      3.587      4.336
REMARK  8 active torsions:
REMARK  status: ('A' for Active; 'I' for Inactive)
REMARK    1  A    between atoms: O1_2  and  C2_3 
REMARK    2  A    between atoms: C2_3  and  C3_5 
REMARK    3  A    between atoms: C3_5  and  C4_6 
REMARK    4  A    between atoms: C4_6  and  C5_7 
REMARK    5  A    between atoms: C5_7  and  C6_8 
REMARK    6  A    between atoms: C6_8  and  C7_9 
REMARK    7  A    between atoms: C7_9  and  C8_10 
REMARK    8  A    between atoms: C8_10  and  O4_12 
ROOT
HETATM    1  C5  UNL     1      23.067   1.982  51.574  1.00  0.00     0.030 A 
HETATM    2  C10 UNL     1      22.100   0.935  51.130  1.00  0.00     0.147 A 
HETATM    3  S1  UNL     1      21.965   0.274  52.552  1.00  0.00    -0.066 SA
HETATM    4  N1  UNL     1      22.040   1.347  49.698  1.00  0.00    -0.018 N 
HETATM    5  C11 UNL     1      22.764   2.460  48.550  1.00  0.00     0.149 A 
HETATM    6  C12 UNL     1      22.366   1.833  49.228  1.00  0.00     0.328 A 
HETATM    7  C13 UNL     1      23.351   2.637  50.188  1.00  0.00     0.059 A 
HETATM    8  C14 UNL     1      23.751   3.336  49.239  1.00  0.00    -0.059 A 
HETATM    9  C15 UNL     1      24.792   4.435  49.306  1.00  0.00     0.042 C 
HETATM   10  H15 UNL     1      21.337   0.477  50.186  1.00  0.00     0.352 HD
ENDROOT
BRANCH   1  11
HETATM   11  C4  UNL     1      22.595   3.100  52.383  1.00  0.00     0.027 C 
BRANCH  11  12
HETATM   12  C3  UNL     1      21.640   4.126  52.072  1.00  0.00     0.112 C 
BRANCH  12  13
HETATM   13  C2  UNL     1      20.224   3.754  51.946  1.00  0.00     0.258 C 
HETATM   14  O2  UNL     1      18.988   3.465  52.120  1.00  0.00    -0.265 OA
BRANCH  13  15
HETATM   15  O1  UNL     1      19.755   3.477  50.704  1.00  0.00    -0.326 OA
HETATM   16  C1  UNL     1      18.742   2.655  50.262  1.00  0.00     0.213 C 
ENDBRANCH  13  15
ENDBRANCH  12  13
ENDBRANCH  11  12
ENDBRANCH   1  11
BRANCH   1  17
HETATM   17  C6  UNL     1      24.260   1.370  52.157  1.00  0.00     0.027 C 
BRANCH  17  18
HETATM   18  C7  UNL     1      25.143   2.282  52.965  1.00  0.00     0.112 C 
BRANCH  18  19
HETATM   19  C8  UNL     1      26.052   1.508  53.805  1.00  0.00     0.258 C 
HETATM   20  O3  UNL     1      27.029   2.263  54.142  1.00  0.00    -0.265 OA
BRANCH  19  21
HETATM   21  O4  UNL     1      26.574   0.477  54.500  1.00  0.00    -0.326 OA
HETATM   22  C9  UNL     1      27.937   0.224  54.769  1.00  0.00     0.213 C 
ENDBRANCH  19  21
ENDBRANCH  18  19
ENDBRANCH  17  18
ENDBRANCH   1  17
TORSDOF 8
ENDMDL
MODEL 6
REMARK VINA RESULT:      -6.0      3.633      6.171
REMARK  8 active torsions:
REMARK  status: ('A' for Active; 'I' for Inactive)
REMARK    1  A    between atoms: O1_2  and  C2_3 
REMARK    2  A    between atoms: C2_3  and  C3_5 
REMARK    3  A    between atoms: C3_5  and  C4_6 
REMARK    4  A    between atoms: C4_6  and  C5_7 
REMARK    5  A    between atoms: C5_7  and  C6_8 
REMARK    6  A    between atoms: C6_8  and  C7_9 
REMARK    7  A    between atoms: C7_9  and  C8_10 
REMARK    8  A    between atoms: C8_10  and  O4_12 
ROOT
HETATM    1  C5  UNL     1      23.558   2.299  52.084  1.00  0.00     0.030 A 
HETATM    2  C10 UNL     1      23.745   2.283  50.603  1.00  0.00     0.147 A 
HETATM    3  S1  UNL     1      24.974   3.264  50.618  1.00  0.00    -0.066 SA
HETATM    4  N1  UNL     1      22.616   1.357  50.294  1.00  0.00    -0.018 N 
HETATM    5  C11 UNL     1      21.274   0.516  51.049  1.00  0.00     0.149 A 
HETATM    6  C12 UNL     1      22.050   1.009  50.641  1.00  0.00     0.328 A 
HETATM    7  C13 UNL     1      22.271   1.422  52.164  1.00  0.00     0.059 A 
HETATM    8  C14 UNL     1      21.274   0.767  52.516  1.00  0.00    -0.059 A 
HETATM    9  C15 UNL     1      20.737   0.630  53.927  1.00  0.00     0.042 C 
HETATM   10  H15 UNL     1      23.412   1.763  49.462  1.00  0.00     0.352 HD
ENDROOT
BRANCH   1  11
HETATM   11  C4  UNL     1      24.503   1.585  52.936  1.00  0.00     0.027 C 
BRANCH  11  12
HETATM   12  C3  UNL     1      24.881   0.200  52.936  1.00  0.00     0.112 C 
BRANCH  12  13
HETATM   13  C2  UNL     1      25.366  -0.396  54.189  1.00  0.00     0.258 C 
HETATM   14  O2  UNL     1      25.512  -0.909  55.354  1.00  0.00    -0.265 OA
BRANCH  13  15
HETATM   15  O1  UNL     1      26.697  -0.624  54.302  1.00  0.00    -0.326 OA
HETATM   16  C1  UNL     1      27.745   0.188  54.678  1.00  0.00     0.213 C 
ENDBRANCH  13  15
ENDBRANCH  12  13
ENDBRANCH  11  12
ENDBRANCH   1  11
BRANCH   1  17
HETATM   17  C6  UNL     1      23.336   3.663  52.562  1.00  0.00     0.027 C 
BRANCH  17  18
HETATM   18  C7  UNL     1      21.913   4.152  52.521  1.00  0.00     0.112 C 
BRANCH  18  19
HETATM   19  C8  UNL     1      21.680   4.959  51.327  1.00  0.00     0.258 C 
HETATM   20  O3  UNL     1      20.945   4.286  50.524  1.00  0.00    -0.265 OA
BRANCH  19  21
HETATM   21  O4  UNL     1      21.724   5.993  50.463  1.00  0.00    -0.326 OA
HETATM   22  C9  UNL     1      21.600   7.368  50.760  1.00  0.00     0.213 C 
ENDBRANCH  19  21
ENDBRANCH  18  19
ENDBRANCH  17  18
ENDBRANCH   1  17
TORSDOF 8
ENDMDL
MODEL 7
REMARK VINA RESULT:      -5.9      3.829      4.959
REMARK  8 active torsions:
REMARK  status: ('A' for Active; 'I' for Inactive)
REMARK    1  A    between atoms: O1_2  and  C2_3 
REMARK    2  A    between atoms: C2_3  and  C3_5 
REMARK    3  A    between atoms: C3_5  and  C4_6 
REMARK    4  A    between atoms: C4_6  and  C5_7 
REMARK    5  A    between atoms: C5_7  and  C6_8 
REMARK    6  A    between atoms: C6_8  and  C7_9 
REMARK    7  A    between atoms: C7_9  and  C8_10 
REMARK    8  A    between atoms: C8_10  and  O4_12 
ROOT
HETATM    1  C5  UNL     1      25.026   3.850  50.298  1.00  0.00     0.030 A 
HETATM    2  C10 UNL     1      25.079   5.342  50.295  1.00  0.00     0.147 A 
HETATM    3  S1  UNL     1      26.083   5.432  49.087  1.00  0.00    -0.066 SA
HETATM    4  N1  UNL     1      24.147   5.554  51.440  1.00  0.00    -0.018 N 
HETATM    5  C11 UNL     1      23.247   4.680  52.668  1.00  0.00     0.149 A 
HETATM    6  C12 UNL     1      23.773   5.156  51.955  1.00  0.00     0.328 A 
HETATM    7  C13 UNL     1      24.121   3.655  51.553  1.00  0.00     0.059 A 
HETATM    8  C14 UNL     1      23.432   3.214  52.490  1.00  0.00    -0.059 A 
HETATM    9  C15 UNL     1      23.221   1.756  52.847  1.00  0.00     0.042 C 
HETATM   10  H15 UNL     1      24.605   6.457  50.759  1.00  0.00     0.352 HD
ENDROOT
BRANCH   1  11
HETATM   11  C4  UNL     1      24.293   3.155  49.246  1.00  0.00     0.027 C 
BRANCH  11  12
HETATM   12  C3  UNL     1      22.922   3.281  48.838  1.00  0.00     0.112 C 
BRANCH  12  13
HETATM   13  C2  UNL     1      22.178   2.063  48.489  1.00  0.00     0.258 C 
HETATM   14  O2  UNL     1      21.791   0.887  48.160  1.00  0.00    -0.265 OA
BRANCH  13  15
HETATM   15  O1  UNL     1      20.824   2.135  48.476  1.00  0.00    -0.326 OA
HETATM   16  C1  UNL     1      19.892   2.182  49.490  1.00  0.00     0.213 C 
ENDBRANCH  13  15
ENDBRANCH  12  13
ENDBRANCH  11  12
ENDBRANCH   1  11
BRANCH   1  17
HETATM   17  C6  UNL     1      26.362   3.285  50.479  1.00  0.00     0.027 C 
BRANCH  17  18
HETATM   18  C7  UNL     1      26.440   2.022  51.293  1.00  0.00     0.112 C 
BRANCH  18  19
HETATM   19  C8  UNL     1      27.395   2.173  52.387  1.00  0.00     0.258 C 
HETATM   20  O3  UNL     1      26.749   2.136  53.492  1.00  0.00    -0.265 OA
BRANCH  19  21
HETATM   21  O4  UNL     1      28.562   2.332  53.044  1.00  0.00    -0.326 OA
HETATM   22  C9  UNL     1      29.079   1.530  54.085  1.00  0.00     0.213 C 
ENDBRANCH  19  21
ENDBRANCH  18  19
ENDBRANCH  17  18
ENDBRANCH   1  17
TORSDOF 8
ENDMDL
MODEL 8
REMARK VINA RESULT:      -5.8      3.945      5.103
REMARK  8 active torsions:
REMARK  status: ('A' for Active; 'I' for Inactive)
REMARK    1  A    between atoms: O1_2  and  C2_3 
REMARK    2  A    between atoms: C2_3  and  C3_5 
REMARK    3  A    between atoms: C3_5  and  C4_6 
REMARK    4  A    between atoms: C4_6  and  C5_7 
REMARK    5  A    between atoms: C5_7  and  C6_8 
REMARK    6  A    between atoms: C6_8  and  C7_9 
REMARK    7  A    between atoms: C7_9  and  C8_10 
REMARK    8  A    between atoms: C8_10  and  O4_12 
ROOT
HETATM    1  C5  UNL     1      22.899   1.442  51.869  1.00  0.00     0.030 A 
HETATM    2  C10 UNL     1      21.993   0.288  52.145  1.00  0.00     0.147 A 
HETATM    3  S1  UNL     1      22.526   0.054  53.607  1.00  0.00    -0.066 SA
HETATM    4  N1  UNL     1      21.314   0.275  50.817  1.00  0.00    -0.018 N 
HETATM    5  C11 UNL     1      21.360   1.035  49.236  1.00  0.00     0.149 A 
HETATM    6  C12 UNL     1      21.355   0.616  50.149  1.00  0.00     0.328 A 
HETATM    7  C13 UNL     1      22.515   1.683  50.377  1.00  0.00     0.059 A 
HETATM    8  C14 UNL     1      22.405   2.094  49.207  1.00  0.00    -0.059 A 
HETATM    9  C15 UNL     1      23.221   3.194  48.557  1.00  0.00     0.042 C 
HETATM   10  H15 UNL     1      20.991  -0.438  51.754  1.00  0.00     0.352 HD
ENDROOT
BRANCH   1  11
HETATM   11  C4  UNL     1      22.633   2.731  52.496  1.00  0.00     0.027 C 
BRANCH  11  12
HETATM   12  C3  UNL     1      21.566   3.665  52.270  1.00  0.00     0.112 C 
BRANCH  12  13
HETATM   13  C2  UNL     1      21.888   4.972  51.681  1.00  0.00     0.258 C 
HETATM   14  O2  UNL     1      21.885   6.138  51.149  1.00  0.00    -0.265 OA
BRANCH  13  15
HETATM   15  O1  UNL     1      23.198   5.303  51.564  1.00  0.00    -0.326 OA
HETATM   16  C1  UNL     1      23.827   6.487  51.249  1.00  0.00     0.213 C 
ENDBRANCH  13  15
ENDBRANCH  12  13
ENDBRANCH  11  12
ENDBRANCH   1  11
BRANCH   1  17
HETATM   17  C6  UNL     1      24.298   1.050  52.030  1.00  0.00     0.027 C 
BRANCH  17  18
HETATM   18  C7  UNL     1      25.321   2.090  51.662  1.00  0.00     0.112 C 
BRANCH  18  19
HETATM   19  C8  UNL     1      26.649   1.691  52.119  1.00  0.00     0.258 C 
HETATM   20  O3  UNL     1      27.485   2.592  51.762  1.00  0.00    -0.265 OA
BRANCH  19  21
HETATM   21  O4  UNL     1      27.632   0.970  52.697  1.00  0.00    -0.326 OA
HETATM   22  C9  UNL     1      28.713   1.452  53.467  1.00  0.00     0.213 C 
ENDBRANCH  19  21
ENDBRANCH  18  19
ENDBRANCH  17  18
ENDBRANCH   1  17
TORSDOF 8
ENDMDL
MODEL 9
REMARK VINA RESULT:      -5.7      3.648      6.623
REMARK  8 active torsions:
REMARK  status: ('A' for Active; 'I' for Inactive)
REMARK    1  A    between atoms: O1_2  and  C2_3 
REMARK    2  A    between atoms: C2_3  and  C3_5 
REMARK    3  A    between atoms: C3_5  and  C4_6 
REMARK    4  A    between atoms: C4_6  and  C5_7 
REMARK    5  A    between atoms: C5_7  and  C6_8 
REMARK    6  A    between atoms: C6_8  and  C7_9 
REMARK    7  A    between atoms: C7_9  and  C8_10 
REMARK    8  A    between atoms: C8_10  and  O4_12 
ROOT
HETATM    1  C5  UNL     1      23.426   2.156  51.908  1.00  0.00     0.030 A 
HETATM    2  C10 UNL     1      24.593   2.513  52.769  1.00  0.00     0.147 A 
HETATM    3  S1  UNL     1      25.282   1.104  52.641  1.00  0.00    -0.066 SA
HETATM    4  N1  UNL     1      24.171   3.912  53.066  1.00  0.00    -0.018 N 
HETATM    5  C11 UNL     1      22.843   5.034  52.827  1.00  0.00     0.149 A 
HETATM    6  C12 UNL     1      23.589   4.372  52.950  1.00  0.00     0.328 A 
HETATM    7  C13 UNL     1      22.614   3.479  52.062  1.00  0.00     0.059 A 
HETATM    8  C14 UNL     1      21.778   4.398  52.003  1.00  0.00    -0.059 A 
HETATM    9  C15 UNL     1      20.441   4.357  51.291  1.00  0.00     0.042 C 
HETATM   10  H15 UNL     1      25.241   3.436  53.409  1.00  0.00     0.352 HD
ENDROOT
BRANCH   1  11
HETATM   11  C4  UNL     1      23.606   2.039  50.466  1.00  0.00     0.027 C 
BRANCH  11  12
HETATM   12  C3  UNL     1      24.015   3.024  49.503  1.00  0.00     0.112 C 
BRANCH  12  13
HETATM   13  C2  UNL     1      25.413   3.476  49.511  1.00  0.00     0.258 C 
HETATM   14  O2  UNL     1      26.675   3.638  49.355  1.00  0.00    -0.265 OA
BRANCH  13  15
HETATM   15  O1  UNL     1      25.704   4.609  50.196  1.00  0.00    -0.326 OA
HETATM   16  C1  UNL     1      25.282   5.912  50.048  1.00  0.00     0.213 C 
ENDBRANCH  13  15
ENDBRANCH  12  13
ENDBRANCH  11  12
ENDBRANCH   1  11
BRANCH   1  17
HETATM   17  C6  UNL     1      22.718   0.999  52.452  1.00  0.00     0.027 C 
BRANCH  17  18
HETATM   18  C7  UNL     1      21.676   0.383  51.557  1.00  0.00     0.112 C 
BRANCH  18  19
HETATM   19  C8  UNL     1      20.362   0.422  52.193  1.00  0.00     0.258 C 
HETATM   20  O3  UNL     1      20.498   0.919  53.365  1.00  0.00    -0.265 OA
BRANCH  19  21
HETATM   21  O4  UNL     1      19.035   0.278  52.379  1.00  0.00    -0.326 OA
HETATM   22  C9  UNL     1      18.357  -0.840  52.913  1.00  0.00     0.213 C 
ENDBRANCH  19  21
ENDBRANCH  18  19
ENDBRANCH  17  18
ENDBRANCH   1  17
TORSDOF 8
ENDMDL
