MODEL 1
REMARK VINA RESULT:      -9.1      0.000      0.000
REMARK  3 active torsions:
REMARK  status: ('A' for Active; 'I' for Inactive)
REMARK    1  A    between atoms: N1_8  and  C8_9 
REMARK    2  A    between atoms: C8_9  and  C9_10 
REMARK    3  A    between atoms: C9_10  and  N2_11 
ROOT
HETATM    1  C1  UNL     1      21.691  -1.287  54.140  1.00  0.00     0.048 C 
HETATM    2  C2  UNL     1      21.771   0.053  53.468  1.00  0.00    -0.058 A 
HETATM    3  C3  UNL     1      20.614   0.777  53.276  1.00  0.00     0.036 A 
HETATM    4  C4  UNL     1      20.579   2.012  52.668  1.00  0.00     0.036 A 
HETATM    5  C5  UNL     1      21.897   2.263  52.359  1.00  0.00     0.070 A 
HETATM    6  C6  UNL     1      23.119   1.655  52.479  1.00  0.00     0.175 A 
HETATM    7  C7  UNL     1      23.034   0.450  53.089  1.00  0.00     0.047 A 
HETATM    8  N1  UNL     1      24.262   2.329  51.844  1.00  0.00     0.126 N 
HETATM    9  C16 UNL     1      24.617   3.038  50.602  1.00  0.00     0.382 A 
HETATM   10  O1  UNL     1      23.552   2.559  50.519  1.00  0.00    -0.141 OA
HETATM   11  C17 UNL     1      24.198   3.446  49.234  1.00  0.00     0.249 C 
HETATM   12  O2  UNL     1      23.204   2.845  48.539  1.00  0.00    -0.382 OA
HETATM   13  C18 UNL     1      22.074   2.454  49.062  1.00  0.00     0.197 C 
HETATM   14  C19 UNL     1      20.846   2.064  48.325  1.00  0.00     0.026 C 
HETATM   15  C20 UNL     1      19.767   2.822  48.691  1.00  0.00     0.041 C 
HETATM   16  C21 UNL     1      19.539   3.964  49.651  1.00  0.00     0.137 C 
HETATM   17  C22 UNL     1      19.222   3.222  50.939  1.00  0.00     0.111 C 
HETATM   18  N3  UNL     1      18.145   2.554  50.801  1.00  0.00    -0.228 NA
HETATM   19  C23 UNL     1      17.666   2.163  49.477  1.00  0.00     0.235 C 
HETATM   20  N4  UNL     1      18.370   2.506  48.349  1.00  0.00    -0.246 NA
HETATM   21  N5  UNL     1      19.524   2.865  52.318  1.00  0.00    -0.344 N 
HETATM   22  H31 UNL     1      19.123   3.076  53.229  1.00  0.00     0.167 HD
ENDROOT
BRANCH   8  23
HETATM   23  C8  UNL     1      25.315   2.273  52.821  1.00  0.00     0.315 C 
BRANCH  23  24
HETATM   24  C9  UNL     1      26.483   1.424  52.296  1.00  0.00     0.304 C 
BRANCH  24  25
HETATM   25  N2  UNL     1      27.318   0.906  53.313  1.00  0.00     0.094 N 
HETATM   26  C10 UNL     1      28.643   1.466  53.347  1.00  0.00     0.273 C 
HETATM   27  C11 UNL     1      29.371   0.814  54.508  1.00  0.00     0.030 C 
HETATM   28  C12 UNL     1      29.786  -0.565  53.992  1.00  0.00     0.004 C 
HETATM   29  C13 UNL     1      28.729  -1.105  53.081  1.00  0.00     0.035 C 
HETATM   30  C14 UNL     1      27.381  -0.498  53.489  1.00  0.00     0.219 C 
HETATM   31  C15 UNL     1      26.306  -1.310  52.858  1.00  0.00     0.043 C 
ENDBRANCH  24  25
ENDBRANCH  23  24
ENDBRANCH   8  23
TORSDOF 3
ENDMDL
MODEL 2
REMARK VINA RESULT:      -8.8      2.828      3.676
REMARK  3 active torsions:
REMARK  status: ('A' for Active; 'I' for Inactive)
REMARK    1  A    between atoms: N1_8  and  C8_9 
REMARK    2  A    between atoms: C8_9  and  C9_10 
REMARK    3  A    between atoms: C9_10  and  N2_11 
ROOT
HETATM    1  C1  UNL     1      19.969   1.628  50.808  1.00  0.00     0.048 C 
HETATM    2  C2  UNL     1      21.143   2.520  51.087  1.00  0.00    -0.058 A 
HETATM    3  C3  UNL     1      20.923   3.856  51.344  1.00  0.00     0.036 A 
HETATM    4  C4  UNL     1      21.930   4.759  51.608  1.00  0.00     0.036 A 
HETATM    5  C5  UNL     1      23.076   3.999  51.546  1.00  0.00     0.070 A 
HETATM    6  C6  UNL     1      23.441   2.701  51.303  1.00  0.00     0.175 A 
HETATM    7  C7  UNL     1      22.374   1.905  51.056  1.00  0.00     0.047 A 
HETATM    8  N1  UNL     1      24.883   2.418  51.233  1.00  0.00     0.126 N 
HETATM    9  C16 UNL     1      26.127   2.985  50.683  1.00  0.00     0.382 A 
HETATM   10  O1  UNL     1      25.194   3.580  50.302  1.00  0.00    -0.141 OA
HETATM   11  C17 UNL     1      26.753   4.033  49.832  1.00  0.00     0.249 C 
HETATM   12  O2  UNL     1      26.083   4.739  48.892  1.00  0.00    -0.382 OA
HETATM   13  C18 UNL     1      24.872   5.202  49.043  1.00  0.00     0.197 C 
HETATM   14  C19 UNL     1      24.197   6.213  48.191  1.00  0.00     0.026 C 
HETATM   15  C20 UNL     1      23.783   7.297  48.916  1.00  0.00     0.041 C 
HETATM   16  C21 UNL     1      23.863   7.710  50.365  1.00  0.00     0.137 C 
HETATM   17  C22 UNL     1      22.602   7.079  50.933  1.00  0.00     0.111 C 
HETATM   18  N3  UNL     1      21.573   7.605  50.393  1.00  0.00    -0.228 NA
HETATM   19  C23 UNL     1      21.660   8.264  49.092  1.00  0.00     0.235 C 
HETATM   20  N4  UNL     1      22.856   8.329  48.419  1.00  0.00    -0.246 NA
HETATM   21  N5  UNL     1      21.927   6.143  51.820  1.00  0.00    -0.344 N 
HETATM   22  H31 UNL     1      21.362   6.218  52.663  1.00  0.00     0.167 HD
ENDROOT
BRANCH   8  23
HETATM   23  C8  UNL     1      25.063   1.217  52.002  1.00  0.00     0.315 C 
BRANCH  23  24
HETATM   24  C9  UNL     1      26.464   0.636  51.760  1.00  0.00     0.304 C 
BRANCH  24  25
HETATM   25  N2  UNL     1      27.169   0.326  52.946  1.00  0.00     0.094 N 
HETATM   26  C10 UNL     1      28.285   1.191  53.226  1.00  0.00     0.273 C 
HETATM   27  C11 UNL     1      28.891   0.724  54.537  1.00  0.00     0.030 C 
HETATM   28  C12 UNL     1      29.722  -0.507  54.173  1.00  0.00     0.004 C 
HETATM   29  C13 UNL     1      29.039  -1.279  53.089  1.00  0.00     0.035 C 
HETATM   30  C14 UNL     1      27.530  -1.023  53.188  1.00  0.00     0.219 C 
HETATM   31  C15 UNL     1      26.837  -2.065  52.385  1.00  0.00     0.043 C 
ENDBRANCH  24  25
ENDBRANCH  23  24
ENDBRANCH   8  23
TORSDOF 3
ENDMDL
MODEL 3
REMARK VINA RESULT:      -8.6      1.426      3.655
REMARK  3 active torsions:
REMARK  status: ('A' for Active; 'I' for Inactive)
REMARK    1  A    between atoms: N1_8  and  C8_9 
REMARK    2  A    between atoms: C8_9  and  C9_10 
REMARK    3  A    between atoms: C9_10  and  N2_11 
ROOT
HETATM    1  C1  UNL     1      24.971   6.185  48.991  1.00  0.00     0.048 C 
HETATM    2  C2  UNL     1      24.379   4.829  49.240  1.00  0.00    -0.058 A 
HETATM    3  C3  UNL     1      23.348   4.389  48.437  1.00  0.00     0.036 A 
HETATM    4  C4  UNL     1      22.736   3.164  48.584  1.00  0.00     0.036 A 
HETATM    5  C5  UNL     1      23.398   2.592  49.646  1.00  0.00     0.070 A 
HETATM    6  C6  UNL     1      24.408   2.899  50.520  1.00  0.00     0.175 A 
HETATM    7  C7  UNL     1      24.934   4.124  50.283  1.00  0.00     0.047 A 
HETATM    8  N1  UNL     1      24.664   1.939  51.605  1.00  0.00     0.126 N 
HETATM    9  C16 UNL     1      23.938   1.097  52.572  1.00  0.00     0.382 A 
HETATM   10  O1  UNL     1      23.202   1.808  52.003  1.00  0.00    -0.141 OA
HETATM   11  C17 UNL     1      22.625   0.721  53.162  1.00  0.00     0.249 C 
HETATM   12  O2  UNL     1      21.520   1.500  53.099  1.00  0.00    -0.382 OA
HETATM   13  C18 UNL     1      21.157   2.177  52.043  1.00  0.00     0.197 C 
HETATM   14  C19 UNL     1      19.833   2.804  51.805  1.00  0.00     0.026 C 
HETATM   15  C20 UNL     1      19.248   2.344  50.656  1.00  0.00     0.041 C 
HETATM   16  C21 UNL     1      19.626   1.345  49.590  1.00  0.00     0.137 C 
HETATM   17  C22 UNL     1      20.414   2.213  48.623  1.00  0.00     0.111 C 
HETATM   18  N3  UNL     1      19.655   3.109  48.125  1.00  0.00    -0.228 NA
HETATM   19  C23 UNL     1      18.433   3.525  48.810  1.00  0.00     0.235 C 
HETATM   20  N4  UNL     1      18.077   2.961  50.010  1.00  0.00    -0.246 NA
HETATM   21  N5  UNL     1      21.647   2.567  47.935  1.00  0.00    -0.344 N 
HETATM   22  H31 UNL     1      21.989   2.509  46.978  1.00  0.00     0.167 HD
ENDROOT
BRANCH   8  23
HETATM   23  C8  UNL     1      26.094   1.800  51.646  1.00  0.00     0.315 C 
BRANCH  23  24
HETATM   24  C9  UNL     1      26.478   0.330  51.871  1.00  0.00     0.304 C 
BRANCH  24  25
HETATM   25  N2  UNL     1      27.282   0.117  53.015  1.00  0.00     0.094 N 
HETATM   26  C10 UNL     1      28.331   1.085  53.203  1.00  0.00     0.273 C 
HETATM   27  C11 UNL     1      29.059   0.710  54.480  1.00  0.00     0.030 C 
HETATM   28  C12 UNL     1      29.973  -0.452  54.089  1.00  0.00     0.004 C 
HETATM   29  C13 UNL     1      29.295  -1.311  53.069  1.00  0.00     0.035 C 
HETATM   30  C14 UNL     1      27.778  -1.187  53.261  1.00  0.00     0.219 C 
HETATM   31  C15 UNL     1      27.133  -2.309  52.528  1.00  0.00     0.043 C 
ENDBRANCH  24  25
ENDBRANCH  23  24
ENDBRANCH   8  23
TORSDOF 3
ENDMDL
MODEL 4
REMARK VINA RESULT:      -8.5      1.911      7.938
REMARK  3 active torsions:
REMARK  status: ('A' for Active; 'I' for Inactive)
REMARK    1  A    between atoms: N1_8  and  C8_9 
REMARK    2  A    between atoms: C8_9  and  C9_10 
REMARK    3  A    between atoms: C9_10  and  N2_11 
ROOT
HETATM    1  C1  UNL     1      22.641   2.117  47.772  1.00  0.00     0.048 C 
HETATM    2  C2  UNL     1      22.725   2.216  49.266  1.00  0.00    -0.058 A 
HETATM    3  C3  UNL     1      23.873   2.719  49.841  1.00  0.00     0.036 A 
HETATM    4  C4  UNL     1      24.052   2.849  51.201  1.00  0.00     0.036 A 
HETATM    5  C5  UNL     1      22.872   2.381  51.733  1.00  0.00     0.070 A 
HETATM    6  C6  UNL     1      21.680   1.860  51.302  1.00  0.00     0.175 A 
HETATM    7  C7  UNL     1      21.615   1.778  49.953  1.00  0.00     0.047 A 
HETATM    8  N1  UNL     1      20.751   1.381  52.337  1.00  0.00     0.126 N 
HETATM    9  C16 UNL     1      20.749   0.622  53.600  1.00  0.00     0.382 A 
HETATM   10  O1  UNL     1      21.804   0.587  53.093  1.00  0.00    -0.141 OA
HETATM   11  C17 UNL     1      21.531  -0.193  54.568  1.00  0.00     0.249 C 
HETATM   12  O2  UNL     1      22.695  -0.814  54.264  1.00  0.00    -0.382 OA
HETATM   13  C18 UNL     1      23.638  -0.289  53.529  1.00  0.00     0.197 C 
HETATM   14  C19 UNL     1      25.033  -0.777  53.398  1.00  0.00     0.026 C 
HETATM   15  C20 UNL     1      25.946   0.184  53.739  1.00  0.00     0.041 C 
HETATM   16  C21 UNL     1      25.865   1.609  54.229  1.00  0.00     0.137 C 
HETATM   17  C22 UNL     1      25.819   2.380  52.920  1.00  0.00     0.111 C 
HETATM   18  N3  UNL     1      26.905   2.207  52.275  1.00  0.00    -0.228 NA
HETATM   19  C23 UNL     1      27.750   1.041  52.524  1.00  0.00     0.235 C 
HETATM   20  N4  UNL     1      27.389   0.102  53.459  1.00  0.00    -0.246 NA
HETATM   21  N5  UNL     1      25.144   3.260  51.976  1.00  0.00    -0.344 N 
HETATM   22  H31 UNL     1      25.264   4.221  51.664  1.00  0.00     0.167 HD
ENDROOT
BRANCH   8  23
HETATM   23  C8  UNL     1      19.464   1.889  51.943  1.00  0.00     0.315 C 
BRANCH  23  24
HETATM   24  C9  UNL     1      19.446   3.422  52.039  1.00  0.00     0.304 C 
BRANCH  24  25
HETATM   25  N2  UNL     1      18.744   4.054  50.988  1.00  0.00     0.094 N 
HETATM   26  C10 UNL     1      17.887   3.182  50.227  1.00  0.00     0.273 C 
HETATM   27  C11 UNL     1      17.205   4.036  49.175  1.00  0.00     0.030 C 
HETATM   28  C12 UNL     1      18.256   4.232  48.081  1.00  0.00     0.004 C 
HETATM   29  C13 UNL     1      19.614   4.350  48.697  1.00  0.00     0.035 C 
HETATM   30  C14 UNL     1      19.457   4.912  50.115  1.00  0.00     0.219 C 
HETATM   31  C15 UNL     1      20.793   5.384  50.570  1.00  0.00     0.043 C 
ENDBRANCH  24  25
ENDBRANCH  23  24
ENDBRANCH   8  23
TORSDOF 3
ENDMDL
MODEL 5
REMARK VINA RESULT:      -8.5      3.013      6.489
REMARK  3 active torsions:
REMARK  status: ('A' for Active; 'I' for Inactive)
REMARK    1  A    between atoms: N1_8  and  C8_9 
REMARK    2  A    between atoms: C8_9  and  C9_10 
REMARK    3  A    between atoms: C9_10  and  N2_11 
ROOT
HETATM    1  C1  UNL     1      27.058   1.612  52.428  1.00  0.00     0.048 C 
HETATM    2  C2  UNL     1      26.153   2.305  51.452  1.00  0.00    -0.058 A 
HETATM    3  C3  UNL     1      26.691   3.219  50.571  1.00  0.00     0.036 A 
HETATM    4  C4  UNL     1      25.948   3.910  49.639  1.00  0.00     0.036 A 
HETATM    5  C5  UNL     1      24.665   3.454  49.839  1.00  0.00     0.070 A 
HETATM    6  C6  UNL     1      23.996   2.579  50.655  1.00  0.00     0.175 A 
HETATM    7  C7  UNL     1      24.823   1.959  51.528  1.00  0.00     0.047 A 
HETATM    8  N1  UNL     1      22.530   2.547  50.535  1.00  0.00     0.126 N 
HETATM    9  C16 UNL     1      21.381   3.459  50.390  1.00  0.00     0.382 A 
HETATM   10  O1  UNL     1      22.367   4.058  50.590  1.00  0.00    -0.141 OA
HETATM   11  C17 UNL     1      20.899   4.865  50.369  1.00  0.00     0.249 C 
HETATM   12  O2  UNL     1      21.583   5.905  50.901  1.00  0.00    -0.382 OA
HETATM   13  C18 UNL     1      22.875   6.062  50.805  1.00  0.00     0.197 C 
HETATM   14  C19 UNL     1      23.642   7.298  51.100  1.00  0.00     0.026 C 
HETATM   15  C20 UNL     1      24.372   7.717  50.022  1.00  0.00     0.041 C 
HETATM   16  C21 UNL     1      24.567   7.230  48.607  1.00  0.00     0.137 C 
HETATM   17  C22 UNL     1      25.721   6.255  48.777  1.00  0.00     0.111 C 
HETATM   18  N3  UNL     1      26.763   6.879  49.164  1.00  0.00    -0.228 NA
HETATM   19  C23 UNL     1      26.659   8.169  49.841  1.00  0.00     0.235 C 
HETATM   20  N4  UNL     1      25.432   8.738  50.077  1.00  0.00    -0.246 NA
HETATM   21  N5  UNL     1      26.281   4.912  48.719  1.00  0.00    -0.344 N 
HETATM   22  H31 UNL     1      26.950   4.428  48.124  1.00  0.00     0.167 HD
ENDROOT
BRANCH   8  23
HETATM   23  C8  UNL     1      22.190   1.150  50.522  1.00  0.00     0.315 C 
BRANCH  23  24
HETATM   24  C9  UNL     1      20.828   0.929  51.198  1.00  0.00     0.304 C 
BRANCH  24  25
HETATM   25  N2  UNL     1      20.918   0.583  52.566  1.00  0.00     0.094 N 
HETATM   26  C10 UNL     1      22.167  -0.016  52.956  1.00  0.00     0.273 C 
HETATM   27  C11 UNL     1      22.084  -0.287  54.446  1.00  0.00     0.030 C 
HETATM   28  C12 UNL     1      21.245  -1.559  54.571  1.00  0.00     0.004 C 
HETATM   29  C13 UNL     1      20.179  -1.570  53.521  1.00  0.00     0.035 C 
HETATM   30  C14 UNL     1      19.839  -0.118  53.160  1.00  0.00     0.219 C 
HETATM   31  C15 UNL     1      18.545  -0.122  52.426  1.00  0.00     0.043 C 
ENDBRANCH  24  25
ENDBRANCH  23  24
ENDBRANCH   8  23
TORSDOF 3
ENDMDL
MODEL 6
REMARK VINA RESULT:      -8.3      2.237      8.275
REMARK  3 active torsions:
REMARK  status: ('A' for Active; 'I' for Inactive)
REMARK    1  A    between atoms: N1_8  and  C8_9 
REMARK    2  A    between atoms: C8_9  and  C9_10 
REMARK    3  A    between atoms: C9_10  and  N2_11 
ROOT
HETATM    1  C1  UNL     1      22.630   2.123  48.346  1.00  0.00     0.048 C 
HETATM    2  C2  UNL     1      22.770   2.094  49.840  1.00  0.00    -0.058 A 
HETATM    3  C3  UNL     1      23.875   2.678  50.422  1.00  0.00     0.036 A 
HETATM    4  C4  UNL     1      24.098   2.703  51.781  1.00  0.00     0.036 A 
HETATM    5  C5  UNL     1      23.007   2.047  52.304  1.00  0.00     0.070 A 
HETATM    6  C6  UNL     1      21.867   1.427  51.866  1.00  0.00     0.175 A 
HETATM    7  C7  UNL     1      21.752   1.462  50.517  1.00  0.00     0.047 A 
HETATM    8  N1  UNL     1      21.049   0.744  52.880  1.00  0.00     0.126 N 
HETATM    9  C16 UNL     1      21.195  -0.123  54.063  1.00  0.00     0.382 A 
HETATM   10  O1  UNL     1      22.223   0.019  53.520  1.00  0.00    -0.141 OA
HETATM   11  C17 UNL     1      22.111  -0.921  54.920  1.00  0.00     0.249 C 
HETATM   12  O2  UNL     1      23.326  -1.364  54.518  1.00  0.00    -0.382 OA
HETATM   13  C18 UNL     1      24.165  -0.662  53.806  1.00  0.00     0.197 C 
HETATM   14  C19 UNL     1      25.602  -0.961  53.581  1.00  0.00     0.026 C 
HETATM   15  C20 UNL     1      26.408   0.068  53.983  1.00  0.00     0.041 C 
HETATM   16  C21 UNL     1      26.181   1.422  54.611  1.00  0.00     0.137 C 
HETATM   17  C22 UNL     1      25.984   2.298  53.385  1.00  0.00     0.111 C 
HETATM   18  N3  UNL     1      27.053   2.320  52.690  1.00  0.00    -0.228 NA
HETATM   19  C23 UNL     1      28.041   1.249  52.797  1.00  0.00     0.235 C 
HETATM   20  N4  UNL     1      27.837   0.190  53.648  1.00  0.00    -0.246 NA
HETATM   21  N5  UNL     1      25.167   3.172  52.555  1.00  0.00    -0.344 N 
HETATM   22  H31 UNL     1      25.158   4.165  52.333  1.00  0.00     0.167 HD
ENDROOT
BRANCH   8  23
HETATM   23  C8  UNL     1      19.695   1.124  52.581  1.00  0.00     0.315 C 
BRANCH  23  24
HETATM   24  C9  UNL     1      18.845  -0.122  52.293  1.00  0.00     0.304 C 
BRANCH  24  25
HETATM   25  N2  UNL     1      17.964   0.025  51.197  1.00  0.00     0.094 N 
HETATM   26  C10 UNL     1      17.945   1.341  50.613  1.00  0.00     0.273 C 
HETATM   27  C11 UNL     1      16.974   1.296  49.448  1.00  0.00     0.030 C 
HETATM   28  C12 UNL     1      15.586   1.377  50.086  1.00  0.00     0.004 C 
HETATM   29  C13 UNL     1      15.580   0.636  51.385  1.00  0.00     0.035 C 
HETATM   30  C14 UNL     1      16.642  -0.469  51.318  1.00  0.00     0.219 C 
HETATM   31  C15 UNL     1      16.374  -1.427  52.425  1.00  0.00     0.043 C 
ENDBRANCH  24  25
ENDBRANCH  23  24
ENDBRANCH   8  23
TORSDOF 3
ENDMDL
MODEL 7
REMARK VINA RESULT:      -8.1      9.293     11.371
REMARK  3 active torsions:
REMARK  status: ('A' for Active; 'I' for Inactive)
REMARK    1  A    between atoms: N1_8  and  C8_9 
REMARK    2  A    between atoms: C8_9  and  C9_10 
REMARK    3  A    between atoms: C9_10  and  N2_11 
ROOT
HETATM    1  C1  UNL     1      26.852   5.923  48.567  1.00  0.00     0.048 C 
HETATM    2  C2  UNL     1      27.897   6.998  48.486  1.00  0.00    -0.058 A 
HETATM    3  C3  UNL     1      27.675   8.198  49.127  1.00  0.00     0.036 A 
HETATM    4  C4  UNL     1      28.568   9.247  49.113  1.00  0.00     0.036 A 
HETATM    5  C5  UNL     1      29.616   8.775  48.356  1.00  0.00     0.070 A 
HETATM    6  C6  UNL     1      29.966   7.642  47.670  1.00  0.00     0.175 A 
HETATM    7  C7  UNL     1      29.018   6.680  47.752  1.00  0.00     0.047 A 
HETATM    8  N1  UNL     1      31.210   7.696  46.887  1.00  0.00     0.126 N 
HETATM    9  C16 UNL     1      31.947   8.599  45.985  1.00  0.00     0.382 A 
HETATM   10  O1  UNL     1      30.884   9.026  46.225  1.00  0.00    -0.141 OA
HETATM   11  C17 UNL     1      31.947   9.876  45.223  1.00  0.00     0.249 C 
HETATM   12  O2  UNL     1      30.824  10.554  44.889  1.00  0.00    -0.382 OA
HETATM   13  C18 UNL     1      29.797  10.712  45.681  1.00  0.00     0.197 C 
HETATM   14  C19 UNL     1      28.678  11.669  45.499  1.00  0.00     0.026 C 
HETATM   15  C20 UNL     1      28.547  12.512  46.569  1.00  0.00     0.041 C 
HETATM   16  C21 UNL     1      29.279  12.705  47.875  1.00  0.00     0.137 C 
HETATM   17  C22 UNL     1      28.543  11.734  48.784  1.00  0.00     0.111 C 
HETATM   18  N3  UNL     1      27.328  12.098  48.914  1.00  0.00    -0.228 NA
HETATM   19  C23 UNL     1      26.687  12.952  47.916  1.00  0.00     0.235 C 
HETATM   20  N4  UNL     1      27.382  13.379  46.812  1.00  0.00    -0.246 NA
HETATM   21  N5  UNL     1      28.506  10.548  49.628  1.00  0.00    -0.344 N 
HETATM   22  H31 UNL     1      28.423  10.368  50.626  1.00  0.00     0.167 HD
ENDROOT
BRANCH   8  23
HETATM   23  C8  UNL     1      31.885   6.460  47.177  1.00  0.00     0.315 C 
BRANCH  23  24
HETATM   24  C9  UNL     1      33.363   6.725  47.501  1.00  0.00     0.304 C 
BRANCH  24  25
HETATM   25  N2  UNL     1      34.255   5.809  46.897  1.00  0.00     0.094 N 
HETATM   26  C10 UNL     1      33.670   4.986  45.872  1.00  0.00     0.273 C 
HETATM   27  C11 UNL     1      34.775   4.099  45.329  1.00  0.00     0.030 C 
HETATM   28  C12 UNL     1      34.934   2.985  46.365  1.00  0.00     0.004 C 
HETATM   29  C13 UNL     1      34.716   3.535  47.739  1.00  0.00     0.035 C 
HETATM   30  C14 UNL     1      35.088   5.023  47.731  1.00  0.00     0.219 C 
HETATM   31  C15 UNL     1      35.242   5.462  49.144  1.00  0.00     0.043 C 
ENDBRANCH  24  25
ENDBRANCH  23  24
ENDBRANCH   8  23
TORSDOF 3
ENDMDL
MODEL 8
REMARK VINA RESULT:      -7.9      7.379      9.114
REMARK  3 active torsions:
REMARK  status: ('A' for Active; 'I' for Inactive)
REMARK    1  A    between atoms: N1_8  and  C8_9 
REMARK    2  A    between atoms: C8_9  and  C9_10 
REMARK    3  A    between atoms: C9_10  and  N2_11 
ROOT
HETATM    1  C1  UNL     1      26.449   3.599  49.279  1.00  0.00     0.048 C 
HETATM    2  C2  UNL     1      26.898   4.998  48.974  1.00  0.00    -0.058 A 
HETATM    3  C3  UNL     1      25.997   6.033  49.097  1.00  0.00     0.036 A 
HETATM    4  C4  UNL     1      26.308   7.350  48.839  1.00  0.00     0.036 A 
HETATM    5  C5  UNL     1      27.634   7.308  48.471  1.00  0.00     0.070 A 
HETATM    6  C6  UNL     1      28.629   6.382  48.302  1.00  0.00     0.175 A 
HETATM    7  C7  UNL     1      28.212   5.125  48.582  1.00  0.00     0.047 A 
HETATM    8  N1  UNL     1      29.903   6.868  47.749  1.00  0.00     0.126 N 
HETATM    9  C16 UNL     1      30.418   7.770  46.704  1.00  0.00     0.382 A 
HETATM   10  O1  UNL     1      29.258   7.643  46.611  1.00  0.00    -0.141 OA
HETATM   11  C17 UNL     1      30.103   8.642  45.541  1.00  0.00     0.249 C 
HETATM   12  O2  UNL     1      28.961   8.553  44.820  1.00  0.00    -0.382 OA
HETATM   13  C18 UNL     1      27.778   8.355  45.337  1.00  0.00     0.197 C 
HETATM   14  C19 UNL     1      26.472   8.536  44.655  1.00  0.00     0.026 C 
HETATM   15  C20 UNL     1      25.670   9.426  45.315  1.00  0.00     0.041 C 
HETATM   16  C21 UNL     1      25.806  10.272  46.558  1.00  0.00     0.137 C 
HETATM   17  C22 UNL     1      25.319   9.316  47.634  1.00  0.00     0.111 C 
HETATM   18  N3  UNL     1      24.091   9.033  47.439  1.00  0.00    -0.228 NA
HETATM   19  C23 UNL     1      23.487   9.173  46.116  1.00  0.00     0.235 C 
HETATM   20  N4  UNL     1      24.233   9.612  45.050  1.00  0.00    -0.246 NA
HETATM   21  N5  UNL     1      25.538   8.520  48.833  1.00  0.00    -0.344 N 
HETATM   22  H31 UNL     1      25.238   8.570  49.804  1.00  0.00     0.167 HD
ENDROOT
BRANCH   8  23
HETATM   23  C8  UNL     1      30.918   6.256  48.564  1.00  0.00     0.315 C 
BRANCH  23  24
HETATM   24  C9  UNL     1      32.311   6.714  48.108  1.00  0.00     0.304 C 
BRANCH  24  25
HETATM   25  N2  UNL     1      33.075   5.696  47.492  1.00  0.00     0.094 N 
HETATM   26  C10 UNL     1      32.541   4.367  47.643  1.00  0.00     0.273 C 
HETATM   27  C11 UNL     1      33.471   3.427  46.899  1.00  0.00     0.030 C 
HETATM   28  C12 UNL     1      34.668   3.233  47.832  1.00  0.00     0.004 C 
HETATM   29  C13 UNL     1      34.954   4.506  48.563  1.00  0.00     0.035 C 
HETATM   30  C14 UNL     1      34.477   5.680  47.698  1.00  0.00     0.219 C 
HETATM   31  C15 UNL     1      35.098   6.922  48.231  1.00  0.00     0.043 C 
ENDBRANCH  24  25
ENDBRANCH  23  24
ENDBRANCH   8  23
TORSDOF 3
ENDMDL
MODEL 9
REMARK VINA RESULT:      -7.8      6.993     10.004
REMARK  3 active torsions:
REMARK  status: ('A' for Active; 'I' for Inactive)
REMARK    1  A    between atoms: N1_8  and  C8_9 
REMARK    2  A    between atoms: C8_9  and  C9_10 
REMARK    3  A    between atoms: C9_10  and  N2_11 
ROOT
HETATM    1  C1  UNL     1      31.847   5.025  47.814  1.00  0.00     0.048 C 
HETATM    2  C2  UNL     1      30.646   5.895  47.589  1.00  0.00    -0.058 A 
HETATM    3  C3  UNL     1      30.723   6.922  46.672  1.00  0.00     0.036 A 
HETATM    4  C4  UNL     1      29.680   7.778  46.395  1.00  0.00     0.036 A 
HETATM    5  C5  UNL     1      28.666   7.336  47.215  1.00  0.00     0.070 A 
HETATM    6  C6  UNL     1      28.449   6.362  48.154  1.00  0.00     0.175 A 
HETATM    7  C7  UNL     1      29.539   5.583  48.346  1.00  0.00     0.047 A 
HETATM    8  N1  UNL     1      27.159   6.396  48.861  1.00  0.00     0.126 N 
HETATM    9  C16 UNL     1      26.229   7.355  49.483  1.00  0.00     0.382 A 
HETATM   10  O1  UNL     1      27.227   7.883  49.174  1.00  0.00    -0.141 OA
HETATM   11  C17 UNL     1      25.978   8.761  49.897  1.00  0.00     0.249 C 
HETATM   12  O2  UNL     1      26.955   9.679  50.082  1.00  0.00    -0.382 OA
HETATM   13  C18 UNL     1      27.998   9.808  49.307  1.00  0.00     0.197 C 
HETATM   14  C19 UNL     1      28.940  10.955  49.274  1.00  0.00     0.026 C 
HETATM   15  C20 UNL     1      29.014  11.521  48.031  1.00  0.00     0.041 C 
HETATM   16  C21 UNL     1      28.355  11.263  46.697  1.00  0.00     0.137 C 
HETATM   17  C22 UNL     1      29.295  10.237  46.085  1.00  0.00     0.111 C 
HETATM   18  N3  UNL     1      30.446  10.757  45.904  1.00  0.00    -0.228 NA
HETATM   19  C23 UNL     1      30.874  11.924  46.672  1.00  0.00     0.235 C 
HETATM   20  N4  UNL     1      30.045  12.485  47.612  1.00  0.00    -0.246 NA
HETATM   21  N5  UNL     1      29.576   8.905  45.570  1.00  0.00    -0.344 N 
HETATM   22  H31 UNL     1      29.756   8.503  44.653  1.00  0.00     0.167 HD
ENDROOT
BRANCH   8  23
HETATM   23  C8  UNL     1      26.707   5.032  48.873  1.00  0.00     0.315 C 
BRANCH  23  24
HETATM   24  C9  UNL     1      25.462   4.892  49.761  1.00  0.00     0.304 C 
BRANCH  24  25
HETATM   25  N2  UNL     1      25.621   3.984  50.833  1.00  0.00     0.094 N 
HETATM   26  C10 UNL     1      26.477   2.862  50.549  1.00  0.00     0.273 C 
HETATM   27  C11 UNL     1      26.547   2.025  51.812  1.00  0.00     0.030 C 
HETATM   28  C12 UNL     1      25.237   1.233  51.836  1.00  0.00     0.004 C 
HETATM   29  C13 UNL     1      24.127   2.072  51.287  1.00  0.00     0.035 C 
HETATM   30  C14 UNL     1      24.467   3.548  51.530  1.00  0.00     0.219 C 
HETATM   31  C15 UNL     1      23.222   4.340  51.343  1.00  0.00     0.043 C 
ENDBRANCH  24  25
ENDBRANCH  23  24
ENDBRANCH   8  23
TORSDOF 3
ENDMDL
