MODEL 1
REMARK VINA RESULT:      -7.9      0.000      0.000
REMARK  6 active torsions:
REMARK  status: ('A' for Active; 'I' for Inactive)
REMARK    1  A    between atoms: O1_1  and  C1_2 
REMARK    2  A    between atoms: C2_3  and  C3_4 
REMARK    3  A    between atoms: C4_5  and  C5_6 
REMARK    4  A    between atoms: C5_6  and  C6_7 
REMARK    5  A    between atoms: C7_8  and  O2_9 
REMARK    6  A    between atoms: C13_16  and  O3_17 
ROOT
HETATM    1  C6  UNL     1      26.134   1.982  52.427  1.00  0.00    -0.007 A 
HETATM    2  C7  UNL     1      26.098   2.742  51.279  1.00  0.00     0.090 A 
HETATM    3  C8  UNL     1      25.036   2.790  50.399  1.00  0.00     0.154 A 
HETATM    4  N1  UNL     1      23.949   2.046  50.669  1.00  0.00    -0.257 NA
HETATM    5  C9  UNL     1      23.880   1.269  51.764  1.00  0.00     0.079 A 
HETATM    6  C10 UNL     1      24.960   1.250  52.614  1.00  0.00     0.014 A 
HETATM    7  C11 UNL     1      24.282   0.290  53.517  1.00  0.00    -0.008 A 
HETATM    8  C12 UNL     1      24.279  -0.495  54.673  1.00  0.00     0.049 A 
HETATM    9  C13 UNL     1      23.152  -1.244  54.922  1.00  0.00     0.066 A 
HETATM   10  C14 UNL     1      22.051  -1.254  54.098  1.00  0.00     0.037 A 
HETATM   11  C15 UNL     1      22.080  -0.460  52.948  1.00  0.00     0.017 A 
HETATM   12  C16 UNL     1      23.192   0.324  52.636  1.00  0.00     0.005 A 
ENDROOT
BRANCH   1  13
HETATM   13  C5  UNL     1      27.246   1.913  53.375  1.00  0.00     0.069 C 
BRANCH  13  14
HETATM   14  C4  UNL     1      28.032   0.650  53.311  1.00  0.00    -0.022 C 
HETATM   15  C3  UNL     1      28.124  -0.688  53.234  1.00  0.00    -0.002 C 
BRANCH  15  16
HETATM   16  C2  UNL     1      29.244  -1.631  53.194  1.00  0.00     0.023 C 
HETATM   17  C1  UNL     1      28.625  -2.811  53.041  1.00  0.00     0.131 C 
BRANCH  17  18
HETATM   18  O1  UNL     1      27.272  -2.579  52.997  1.00  0.00    -0.373 OA
HETATM   19  H1  UNL     1      26.552  -3.277  53.136  1.00  0.00     0.216 HD
ENDBRANCH  17  18
ENDBRANCH  15  16
ENDBRANCH  13  14
ENDBRANCH   1  13
BRANCH   2  20
HETATM   20  O2  UNL     1      27.234   3.522  50.992  1.00  0.00    -0.359 OA
HETATM   21  H8  UNL     1      27.583   3.585  50.036  1.00  0.00     0.217 HD
ENDBRANCH   2  20
BRANCH   9  22
HETATM   22  O3  UNL     1      23.180  -2.019  56.088  1.00  0.00    -0.361 OA
HETATM   23  H11 UNL     1      24.058  -2.101  56.591  1.00  0.00     0.217 HD
ENDBRANCH   9  22
TORSDOF 6
ENDMDL
MODEL 2
REMARK VINA RESULT:      -7.5      2.469      4.728
REMARK  6 active torsions:
REMARK  status: ('A' for Active; 'I' for Inactive)
REMARK    1  A    between atoms: O1_1  and  C1_2 
REMARK    2  A    between atoms: C2_3  and  C3_4 
REMARK    3  A    between atoms: C4_5  and  C5_6 
REMARK    4  A    between atoms: C5_6  and  C6_7 
REMARK    5  A    between atoms: C7_8  and  O2_9 
REMARK    6  A    between atoms: C13_16  and  O3_17 
ROOT
HETATM    1  C6  UNL     1      26.757   1.141  52.872  1.00  0.00    -0.007 A 
HETATM    2  C7  UNL     1      27.982   1.072  53.499  1.00  0.00     0.090 A 
HETATM    3  C8  UNL     1      28.231   0.380  54.667  1.00  0.00     0.154 A 
HETATM    4  N1  UNL     1      27.213  -0.280  55.247  1.00  0.00    -0.257 NA
HETATM    5  C9  UNL     1      25.977  -0.278  54.717  1.00  0.00     0.079 A 
HETATM    6  C10 UNL     1      25.773   0.424  53.553  1.00  0.00     0.014 A 
HETATM    7  C11 UNL     1      24.341   0.042  53.528  1.00  0.00    -0.008 A 
HETATM    8  C12 UNL     1      23.082   0.087  52.922  1.00  0.00     0.049 A 
HETATM    9  C13 UNL     1      22.062  -0.599  53.539  1.00  0.00     0.066 A 
HETATM   10  C14 UNL     1      22.224  -1.313  54.703  1.00  0.00     0.037 A 
HETATM   11  C15 UNL     1      23.493  -1.342  55.289  1.00  0.00     0.017 A 
HETATM   12  C16 UNL     1      24.572  -0.668  54.715  1.00  0.00     0.005 A 
ENDROOT
BRANCH   1  13
HETATM   13  C5  UNL     1      26.468   1.867  51.635  1.00  0.00     0.069 C 
BRANCH  13  14
HETATM   14  C4  UNL     1      25.148   2.558  51.621  1.00  0.00    -0.022 C 
HETATM   15  C3  UNL     1      24.310   3.524  52.031  1.00  0.00    -0.002 C 
BRANCH  15  16
HETATM   16  C2  UNL     1      22.922   3.869  51.715  1.00  0.00     0.023 C 
HETATM   17  C1  UNL     1      22.728   4.981  52.441  1.00  0.00     0.131 C 
BRANCH  17  18
HETATM   18  O1  UNL     1      23.891   5.256  53.117  1.00  0.00    -0.373 OA
HETATM   19  H1  UNL     1      24.527   6.015  52.904  1.00  0.00     0.216 HD
ENDBRANCH  17  18
ENDBRANCH  15  16
ENDBRANCH  13  14
ENDBRANCH   1  13
BRANCH   2  20
HETATM   20  O2  UNL     1      29.050   1.762  52.896  1.00  0.00    -0.359 OA
HETATM   21  H8  UNL     1      28.886   2.339  52.071  1.00  0.00     0.217 HD
ENDBRANCH   2  20
BRANCH   9  22
HETATM   22  O3  UNL     1      20.814  -0.534  52.908  1.00  0.00    -0.361 OA
HETATM   23  H11 UNL     1      20.783  -0.271  51.928  1.00  0.00     0.217 HD
ENDBRANCH   9  22
TORSDOF 6
ENDMDL
MODEL 3
REMARK VINA RESULT:      -7.3      1.549      1.818
REMARK  6 active torsions:
REMARK  status: ('A' for Active; 'I' for Inactive)
REMARK    1  A    between atoms: O1_1  and  C1_2 
REMARK    2  A    between atoms: C2_3  and  C3_4 
REMARK    3  A    between atoms: C4_5  and  C5_6 
REMARK    4  A    between atoms: C5_6  and  C6_7 
REMARK    5  A    between atoms: C7_8  and  O2_9 
REMARK    6  A    between atoms: C13_16  and  O3_17 
ROOT
HETATM    1  C6  UNL     1      25.084   2.258  52.161  1.00  0.00    -0.007 A 
HETATM    2  C7  UNL     1      25.413   2.986  51.039  1.00  0.00     0.090 A 
HETATM    3  C8  UNL     1      24.610   3.122  49.924  1.00  0.00     0.154 A 
HETATM    4  N1  UNL     1      23.417   2.503  49.918  1.00  0.00    -0.257 NA
HETATM    5  C9  UNL     1      22.998   1.767  50.962  1.00  0.00     0.079 A 
HETATM    6  C10 UNL     1      23.829   1.658  52.052  1.00  0.00     0.014 A 
HETATM    7  C11 UNL     1      22.851   0.797  52.760  1.00  0.00    -0.008 A 
HETATM    8  C12 UNL     1      22.480   0.048  53.880  1.00  0.00     0.049 A 
HETATM    9  C13 UNL     1      21.253  -0.572  53.844  1.00  0.00     0.066 A 
HETATM   10  C14 UNL     1      20.393  -0.489  52.774  1.00  0.00     0.037 A 
HETATM   11  C15 UNL     1      20.788   0.267  51.666  1.00  0.00     0.017 A 
HETATM   12  C16 UNL     1      22.020   0.922  51.638  1.00  0.00     0.005 A 
ENDROOT
BRANCH   1  13
HETATM   13  C5  UNL     1      25.916   2.098  53.353  1.00  0.00     0.069 C 
BRANCH  13  14
HETATM   14  C4  UNL     1      26.815   0.910  53.323  1.00  0.00    -0.022 C 
HETATM   15  C3  UNL     1      28.032   0.345  53.265  1.00  0.00    -0.002 C 
BRANCH  15  16
HETATM   16  C2  UNL     1      28.512  -1.039  53.261  1.00  0.00     0.023 C 
HETATM   17  C1  UNL     1      29.835  -0.888  53.427  1.00  0.00     0.131 C 
BRANCH  17  18
HETATM   18  O1  UNL     1      30.100   0.456  53.519  1.00  0.00    -0.373 OA
HETATM   19  H1  UNL     1      29.416   1.178  53.712  1.00  0.00     0.216 HD
ENDBRANCH  17  18
ENDBRANCH  15  16
ENDBRANCH  13  14
ENDBRANCH   1  13
BRANCH   2  20
HETATM   20  O2  UNL     1      26.662   3.636  51.041  1.00  0.00    -0.359 OA
HETATM   21  H8  UNL     1      26.929   4.229  51.827  1.00  0.00     0.217 HD
ENDBRANCH   2  20
BRANCH   9  22
HETATM   22  O3  UNL     1      20.910  -1.315  54.981  1.00  0.00    -0.361 OA
HETATM   23  H11 UNL     1      20.368  -0.860  55.708  1.00  0.00     0.217 HD
ENDBRANCH   9  22
TORSDOF 6
ENDMDL
MODEL 4
REMARK VINA RESULT:      -7.3      2.298      5.415
REMARK  6 active torsions:
REMARK  status: ('A' for Active; 'I' for Inactive)
REMARK    1  A    between atoms: O1_1  and  C1_2 
REMARK    2  A    between atoms: C2_3  and  C3_4 
REMARK    3  A    between atoms: C4_5  and  C5_6 
REMARK    4  A    between atoms: C5_6  and  C6_7 
REMARK    5  A    between atoms: C7_8  and  O2_9 
REMARK    6  A    between atoms: C13_16  and  O3_17 
ROOT
HETATM    1  C6  UNL     1      23.319   1.985  52.791  1.00  0.00    -0.007 A 
HETATM    2  C7  UNL     1      22.167   1.230  52.807  1.00  0.00     0.090 A 
HETATM    3  C8  UNL     1      22.123  -0.137  52.997  1.00  0.00     0.154 A 
HETATM    4  N1  UNL     1      23.282  -0.793  53.181  1.00  0.00    -0.257 NA
HETATM    5  C9  UNL     1      24.464  -0.151  53.183  1.00  0.00     0.079 A 
HETATM    6  C10 UNL     1      24.462   1.210  52.991  1.00  0.00     0.014 A 
HETATM    7  C11 UNL     1      25.939   1.266  53.100  1.00  0.00    -0.008 A 
HETATM    8  C12 UNL     1      27.131   1.997  53.091  1.00  0.00     0.049 A 
HETATM    9  C13 UNL     1      28.299   1.297  53.283  1.00  0.00     0.066 A 
HETATM   10  C14 UNL     1      28.344  -0.063  53.479  1.00  0.00     0.037 A 
HETATM   11  C15 UNL     1      27.139  -0.771  53.483  1.00  0.00     0.017 A 
HETATM   12  C16 UNL     1      25.917  -0.122  53.295  1.00  0.00     0.005 A 
ENDROOT
BRANCH   1  13
HETATM   13  C5  UNL     1      23.392   3.432  52.592  1.00  0.00     0.069 C 
BRANCH  13  14
HETATM   14  C4  UNL     1      24.081   3.848  51.338  1.00  0.00    -0.022 C 
HETATM   15  C3  UNL     1      25.176   3.966  50.569  1.00  0.00    -0.002 C 
BRANCH  15  16
HETATM   16  C2  UNL     1      25.427   4.508  49.232  1.00  0.00     0.023 C 
HETATM   17  C1  UNL     1      26.766   4.465  49.149  1.00  0.00     0.131 C 
BRANCH  17  18
HETATM   18  O1  UNL     1      27.249   3.949  50.326  1.00  0.00    -0.373 OA
HETATM   19  H1  UNL     1      28.221   3.743  50.521  1.00  0.00     0.216 HD
ENDBRANCH  17  18
ENDBRANCH  15  16
ENDBRANCH  13  14
ENDBRANCH   1  13
BRANCH   2  20
HETATM   20  O2  UNL     1      20.951   1.913  52.614  1.00  0.00    -0.359 OA
HETATM   21  H8  UNL     1      20.916   2.929  52.700  1.00  0.00     0.217 HD
ENDBRANCH   2  20
BRANCH   9  22
HETATM   22  O3  UNL     1      29.475   2.057  53.268  1.00  0.00    -0.361 OA
HETATM   23  H11 UNL     1      29.395   3.069  53.280  1.00  0.00     0.217 HD
ENDBRANCH   9  22
TORSDOF 6
ENDMDL
MODEL 5
REMARK VINA RESULT:      -7.2      3.092      5.615
REMARK  6 active torsions:
REMARK  status: ('A' for Active; 'I' for Inactive)
REMARK    1  A    between atoms: O1_1  and  C1_2 
REMARK    2  A    between atoms: C2_3  and  C3_4 
REMARK    3  A    between atoms: C4_5  and  C5_6 
REMARK    4  A    between atoms: C5_6  and  C6_7 
REMARK    5  A    between atoms: C7_8  and  O2_9 
REMARK    6  A    between atoms: C13_16  and  O3_17 
ROOT
HETATM    1  C6  UNL     1      23.930  -0.274  53.544  1.00  0.00    -0.007 A 
HETATM    2  C7  UNL     1      24.410  -0.835  54.706  1.00  0.00     0.090 A 
HETATM    3  C8  UNL     1      23.630  -1.455  55.663  1.00  0.00     0.154 A 
HETATM    4  N1  UNL     1      22.304  -1.523  55.458  1.00  0.00    -0.257 NA
HETATM    5  C9  UNL     1      21.731  -1.007  54.356  1.00  0.00     0.079 A 
HETATM    6  C10 UNL     1      22.544  -0.399  53.429  1.00  0.00     0.014 A 
HETATM    7  C11 UNL     1      21.385  -0.088  52.560  1.00  0.00    -0.008 A 
HETATM    8  C12 UNL     1      20.858   0.469  51.391  1.00  0.00     0.049 A 
HETATM    9  C13 UNL     1      19.497   0.383  51.211  1.00  0.00     0.066 A 
HETATM   10  C14 UNL     1      18.650  -0.216  52.113  1.00  0.00     0.037 A 
HETATM   11  C15 UNL     1      19.202  -0.766  53.274  1.00  0.00     0.017 A 
HETATM   12  C16 UNL     1      20.575  -0.713  53.518  1.00  0.00     0.005 A 
ENDROOT
BRANCH   1  13
HETATM   13  C5  UNL     1      24.733   0.387  52.516  1.00  0.00     0.069 C 
BRANCH  13  14
HETATM   14  C4  UNL     1      24.196   1.702  52.065  1.00  0.00    -0.022 C 
HETATM   15  C3  UNL     1      23.897   2.995  52.272  1.00  0.00    -0.002 C 
BRANCH  15  16
HETATM   16  C2  UNL     1      23.302   4.046  51.444  1.00  0.00     0.023 C 
HETATM   17  C1  UNL     1      23.425   5.133  52.222  1.00  0.00     0.131 C 
BRANCH  17  18
HETATM   18  O1  UNL     1      24.033   4.750  53.393  1.00  0.00    -0.373 OA
HETATM   19  H1  UNL     1      23.870   5.166  54.302  1.00  0.00     0.216 HD
ENDBRANCH  17  18
ENDBRANCH  15  16
ENDBRANCH  13  14
ENDBRANCH   1  13
BRANCH   2  20
HETATM   20  O2  UNL     1      25.799  -0.766  54.925  1.00  0.00    -0.359 OA
HETATM   21  H8  UNL     1      26.261  -1.468  55.503  1.00  0.00     0.217 HD
ENDBRANCH   2  20
BRANCH   9  22
HETATM   22  O3  UNL     1      19.001   0.951  50.031  1.00  0.00    -0.361 OA
HETATM   23  H11 UNL     1      19.475   0.740  49.159  1.00  0.00     0.217 HD
ENDBRANCH   9  22
TORSDOF 6
ENDMDL
MODEL 6
REMARK VINA RESULT:      -7.1      2.505      6.284
REMARK  6 active torsions:
REMARK  status: ('A' for Active; 'I' for Inactive)
REMARK    1  A    between atoms: O1_1  and  C1_2 
REMARK    2  A    between atoms: C2_3  and  C3_4 
REMARK    3  A    between atoms: C4_5  and  C5_6 
REMARK    4  A    between atoms: C5_6  and  C6_7 
REMARK    5  A    between atoms: C7_8  and  O2_9 
REMARK    6  A    between atoms: C13_16  and  O3_17 
ROOT
HETATM    1  C6  UNL     1      22.010   0.661  53.320  1.00  0.00    -0.007 A 
HETATM    2  C7  UNL     1      21.483  -0.315  54.137  1.00  0.00     0.090 A 
HETATM    3  C8  UNL     1      22.229  -1.235  54.847  1.00  0.00     0.154 A 
HETATM    4  N1  UNL     1      23.568  -1.188  54.742  1.00  0.00    -0.257 NA
HETATM    5  C9  UNL     1      24.185  -0.275  53.971  1.00  0.00     0.079 A 
HETATM    6  C10 UNL     1      23.405   0.623  53.281  1.00  0.00     0.014 A 
HETATM    7  C11 UNL     1      24.601   1.273  52.696  1.00  0.00    -0.008 A 
HETATM    8  C12 UNL     1      25.175   2.249  51.876  1.00  0.00     0.049 A 
HETATM    9  C13 UNL     1      26.547   2.271  51.791  1.00  0.00     0.066 A 
HETATM   10  C14 UNL     1      27.363   1.392  52.463  1.00  0.00     0.037 A 
HETATM   11  C15 UNL     1      26.765   0.426  53.277  1.00  0.00     0.017 A 
HETATM   12  C16 UNL     1      25.377   0.348  53.408  1.00  0.00     0.005 A 
ENDROOT
BRANCH   1  13
HETATM   13  C5  UNL     1      21.243   1.646  52.558  1.00  0.00     0.069 C 
BRANCH  13  14
HETATM   14  C4  UNL     1      21.321   1.479  51.079  1.00  0.00    -0.022 C 
HETATM   15  C3  UNL     1      21.880   1.733  49.885  1.00  0.00    -0.002 C 
BRANCH  15  16
HETATM   16  C2  UNL     1      21.595   1.299  48.515  1.00  0.00     0.023 C 
HETATM   17  C1  UNL     1      22.469   2.019  47.795  1.00  0.00     0.131 C 
BRANCH  17  18
HETATM   18  O1  UNL     1      23.193   2.800  48.663  1.00  0.00    -0.373 OA
HETATM   19  H1  UNL     1      22.801   3.390  49.387  1.00  0.00     0.216 HD
ENDBRANCH  17  18
ENDBRANCH  15  16
ENDBRANCH  13  14
ENDBRANCH   1  13
BRANCH   2  20
HETATM   20  O2  UNL     1      20.081  -0.368  54.249  1.00  0.00    -0.359 OA
HETATM   21  H8  UNL     1      19.548   0.486  54.415  1.00  0.00     0.217 HD
ENDBRANCH   2  20
BRANCH   9  22
HETATM   22  O3  UNL     1      27.091   3.261  50.962  1.00  0.00    -0.361 OA
HETATM   23  H11 UNL     1      28.079   3.210  50.736  1.00  0.00     0.217 HD
ENDBRANCH   9  22
TORSDOF 6
ENDMDL
MODEL 7
REMARK VINA RESULT:      -7.1      1.744      4.823
REMARK  6 active torsions:
REMARK  status: ('A' for Active; 'I' for Inactive)
REMARK    1  A    between atoms: O1_1  and  C1_2 
REMARK    2  A    between atoms: C2_3  and  C3_4 
REMARK    3  A    between atoms: C4_5  and  C5_6 
REMARK    4  A    between atoms: C5_6  and  C6_7 
REMARK    5  A    between atoms: C7_8  and  O2_9 
REMARK    6  A    between atoms: C13_16  and  O3_17 
ROOT
HETATM    1  C6  UNL     1      22.612   0.276  52.833  1.00  0.00    -0.007 A 
HETATM    2  C7  UNL     1      21.302  -0.127  52.705  1.00  0.00     0.090 A 
HETATM    3  C8  UNL     1      20.442   0.294  51.710  1.00  0.00     0.154 A 
HETATM    4  N1  UNL     1      20.903   1.161  50.792  1.00  0.00    -0.257 NA
HETATM    5  C9  UNL     1      22.168   1.617  50.825  1.00  0.00     0.079 A 
HETATM    6  C10 UNL     1      22.991   1.173  51.832  1.00  0.00     0.014 A 
HETATM    7  C11 UNL     1      24.120   1.986  51.322  1.00  0.00    -0.008 A 
HETATM    8  C12 UNL     1      25.445   2.419  51.417  1.00  0.00     0.049 A 
HETATM    9  C13 UNL     1      25.888   3.305  50.463  1.00  0.00     0.066 A 
HETATM   10  C14 UNL     1      25.098   3.774  49.439  1.00  0.00     0.037 A 
HETATM   11  C15 UNL     1      23.776   3.326  49.366  1.00  0.00     0.017 A 
HETATM   12  C16 UNL     1      23.263   2.426  50.303  1.00  0.00     0.005 A 
ENDROOT
BRANCH   1  13
HETATM   13  C5  UNL     1      23.543  -0.154  53.876  1.00  0.00     0.069 C 
BRANCH  13  14
HETATM   14  C4  UNL     1      24.844  -0.671  53.367  1.00  0.00    -0.022 C 
HETATM   15  C3  UNL     1      26.186  -0.654  53.307  1.00  0.00    -0.002 C 
BRANCH  15  16
HETATM   16  C2  UNL     1      27.182  -1.445  52.581  1.00  0.00     0.023 C 
HETATM   17  C1  UNL     1      28.276  -1.305  53.345  1.00  0.00     0.131 C 
BRANCH  17  18
HETATM   18  O1  UNL     1      27.949  -0.507  54.414  1.00  0.00    -0.373 OA
HETATM   19  H1  UNL     1      27.216   0.193  54.421  1.00  0.00     0.216 HD
ENDBRANCH  17  18
ENDBRANCH  15  16
ENDBRANCH  13  14
ENDBRANCH   1  13
BRANCH   2  20
HETATM   20  O2  UNL     1      20.814  -1.034  53.664  1.00  0.00    -0.359 OA
HETATM   21  H8  UNL     1      20.202  -1.799  53.380  1.00  0.00     0.217 HD
ENDBRANCH   2  20
BRANCH   9  22
HETATM   22  O3  UNL     1      27.220   3.720  50.585  1.00  0.00    -0.361 OA
HETATM   23  H11 UNL     1      27.597   3.857  51.517  1.00  0.00     0.217 HD
ENDBRANCH   9  22
TORSDOF 6
ENDMDL
MODEL 8
REMARK VINA RESULT:      -7.0      2.634      4.673
REMARK  6 active torsions:
REMARK  status: ('A' for Active; 'I' for Inactive)
REMARK    1  A    between atoms: O1_1  and  C1_2 
REMARK    2  A    between atoms: C2_3  and  C3_4 
REMARK    3  A    between atoms: C4_5  and  C5_6 
REMARK    4  A    between atoms: C5_6  and  C6_7 
REMARK    5  A    between atoms: C7_8  and  O2_9 
REMARK    6  A    between atoms: C13_16  and  O3_17 
ROOT
HETATM    1  C6  UNL     1      25.209   2.001  52.279  1.00  0.00    -0.007 A 
HETATM    2  C7  UNL     1      26.582   1.899  52.310  1.00  0.00     0.090 A 
HETATM    3  C8  UNL     1      27.285   0.930  52.998  1.00  0.00     0.154 A 
HETATM    4  N1  UNL     1      26.591   0.012  53.694  1.00  0.00    -0.257 NA
HETATM    5  C9  UNL     1      25.247   0.021  53.731  1.00  0.00     0.079 A 
HETATM    6  C10 UNL     1      24.587   1.003  53.031  1.00  0.00     0.014 A 
HETATM    7  C11 UNL     1      23.269   0.477  53.459  1.00  0.00    -0.008 A 
HETATM    8  C12 UNL     1      21.873   0.546  53.452  1.00  0.00     0.049 A 
HETATM    9  C13 UNL     1      21.193  -0.407  54.173  1.00  0.00     0.066 A 
HETATM   10  C14 UNL     1      21.814  -1.405  54.886  1.00  0.00     0.037 A 
HETATM   11  C15 UNL     1      23.211  -1.452  54.876  1.00  0.00     0.017 A 
HETATM   12  C16 UNL     1      23.963  -0.516  54.165  1.00  0.00     0.005 A 
ENDROOT
BRANCH   1  13
HETATM   13  C5  UNL     1      24.442   3.017  51.558  1.00  0.00     0.069 C 
BRANCH  13  14
HETATM   14  C4  UNL     1      23.561   2.477  50.484  1.00  0.00    -0.022 C 
HETATM   15  C3  UNL     1      22.436   1.875  50.063  1.00  0.00    -0.002 C 
BRANCH  15  16
HETATM   16  C2  UNL     1      21.918   1.494  48.748  1.00  0.00     0.023 C 
HETATM   17  C1  UNL     1      20.602   1.367  48.980  1.00  0.00     0.131 C 
BRANCH  17  18
HETATM   18  O1  UNL     1      20.376   1.648  50.305  1.00  0.00    -0.373 OA
HETATM   19  H1  UNL     1      20.571   2.532  50.759  1.00  0.00     0.216 HD
ENDBRANCH  17  18
ENDBRANCH  15  16
ENDBRANCH  13  14
ENDBRANCH   1  13
BRANCH   2  20
HETATM   20  O2  UNL     1      27.312   2.858  51.583  1.00  0.00    -0.359 OA
HETATM   21  H8  UNL     1      27.933   3.505  52.069  1.00  0.00     0.217 HD
ENDBRANCH   2  20
BRANCH   9  22
HETATM   22  O3  UNL     1      19.796  -0.310  54.146  1.00  0.00    -0.361 OA
HETATM   23  H11 UNL     1      19.379   0.591  53.934  1.00  0.00     0.217 HD
ENDBRANCH   9  22
TORSDOF 6
ENDMDL
MODEL 9
REMARK VINA RESULT:      -7.0      2.549      6.543
REMARK  6 active torsions:
REMARK  status: ('A' for Active; 'I' for Inactive)
REMARK    1  A    between atoms: O1_1  and  C1_2 
REMARK    2  A    between atoms: C2_3  and  C3_4 
REMARK    3  A    between atoms: C4_5  and  C5_6 
REMARK    4  A    between atoms: C5_6  and  C6_7 
REMARK    5  A    between atoms: C7_8  and  O2_9 
REMARK    6  A    between atoms: C13_16  and  O3_17 
ROOT
HETATM    1  C6  UNL     1      22.973  -0.338  53.784  1.00  0.00    -0.007 A 
HETATM    2  C7  UNL     1      22.707  -1.233  54.797  1.00  0.00     0.090 A 
HETATM    3  C8  UNL     1      23.634  -1.680  55.717  1.00  0.00     0.154 A 
HETATM    4  N1  UNL     1      24.892  -1.216  55.632  1.00  0.00    -0.257 NA
HETATM    5  C9  UNL     1      25.258  -0.338  54.681  1.00  0.00     0.079 A 
HETATM    6  C10 UNL     1      24.304   0.080  53.784  1.00  0.00     0.014 A 
HETATM    7  C11 UNL     1      25.284   0.948  53.088  1.00  0.00    -0.008 A 
HETATM    8  C12 UNL     1      25.594   1.858  52.074  1.00  0.00     0.049 A 
HETATM    9  C13 UNL     1      26.890   2.315  52.013  1.00  0.00     0.066 A 
HETATM   10  C14 UNL     1      27.874   1.922  52.890  1.00  0.00     0.037 A 
HETATM   11  C15 UNL     1      27.537   1.010  53.895  1.00  0.00     0.017 A 
HETATM   12  C16 UNL     1      26.240   0.507  54.012  1.00  0.00     0.005 A 
ENDROOT
BRANCH   1  13
HETATM   13  C5  UNL     1      22.010   0.150  52.797  1.00  0.00     0.069 C 
BRANCH  13  14
HETATM   14  C4  UNL     1      21.954   1.634  52.672  1.00  0.00    -0.022 C 
HETATM   15  C3  UNL     1      21.830   2.759  51.950  1.00  0.00    -0.002 C 
BRANCH  15  16
HETATM   16  C2  UNL     1      21.836   4.186  52.280  1.00  0.00     0.023 C 
HETATM   17  C1  UNL     1      21.380   4.747  51.150  1.00  0.00     0.131 C 
BRANCH  17  18
HETATM   18  O1  UNL     1      21.132   3.743  50.247  1.00  0.00    -0.373 OA
HETATM   19  H1  UNL     1      21.831   3.279  49.680  1.00  0.00     0.216 HD
ENDBRANCH  17  18
ENDBRANCH  15  16
ENDBRANCH  13  14
ENDBRANCH   1  13
BRANCH   2  20
HETATM   20  O2  UNL     1      21.390  -1.722  54.890  1.00  0.00    -0.359 OA
HETATM   21  H8  UNL     1      20.980  -2.238  54.111  1.00  0.00     0.217 HD
ENDBRANCH   2  20
BRANCH   9  22
HETATM   22  O3  UNL     1      27.169   3.226  50.987  1.00  0.00    -0.361 OA
HETATM   23  H11 UNL     1      27.134   2.896  50.028  1.00  0.00     0.217 HD
ENDBRANCH   9  22
TORSDOF 6
ENDMDL
