MODEL 1
REMARK VINA RESULT:      -8.9      0.000      0.000
REMARK  5 active torsions:
REMARK  status: ('A' for Active; 'I' for Inactive)
REMARK    1  A    between atoms: C2_2  and  C3_3 
REMARK    2  A    between atoms: C3_3  and  C4_4 
REMARK    3  A    between atoms: C10_13  and  C11_14 
REMARK    4  A    between atoms: C11_14  and  C12_15 
REMARK    5  A    between atoms: C13_16  and  O2_17 
ROOT
HETATM    1  C3  UNL     1      21.626   2.340  50.924  1.00  0.00     0.104 C 
HETATM    2  N1  UNL     1      22.463   1.776  51.819  1.00  0.00    -0.384 N 
HETATM    3  C6  UNL     1      23.424   2.637  52.442  1.00  0.00     0.126 C 
HETATM    4  C7  UNL     1      24.522   3.197  51.631  1.00  0.00     0.024 A 
HETATM    5  C8  UNL     1      25.887   2.969  51.543  1.00  0.00     0.008 A 
HETATM    6  O1  UNL     1      25.073   2.259  52.412  1.00  0.00     0.000 OA
HETATM    7  C9  UNL     1      26.988   2.069  52.059  1.00  0.00    -0.011 C 
HETATM    8  C10 UNL     1      27.225   0.949  52.822  1.00  0.00    -0.079 C 
HETATM    9  C14 UNL     1      26.019   0.213  53.016  1.00  0.00     0.040 C 
HETATM   10  C15 UNL     1      25.492  -0.014  54.371  1.00  0.00     0.061 C 
HETATM   11  C16 UNL     1      24.064  -0.522  54.101  1.00  0.00     0.006 C 
HETATM   12  C17 UNL     1      23.310  -1.190  54.942  1.00  0.00     0.024 C 
HETATM   13  C18 UNL     1      21.861  -1.328  55.006  1.00  0.00    -0.002 C 
HETATM   14  C19 UNL     1      21.051  -0.969  53.990  1.00  0.00    -0.023 C 
HETATM   15  C20 UNL     1      21.078  -0.155  52.715  1.00  0.00     0.073 C 
HETATM   16  C21 UNL     1      22.270   0.696  52.679  1.00  0.00     0.182 C 
HETATM   17  N2  UNL     1      23.430  -0.225  52.794  1.00  0.00    -0.372 N 
HETATM   18  H12 UNL     1      25.269   2.503  53.473  1.00  0.00     0.000 HD
HETATM   19  H29 UNL     1      23.430  -0.412  51.745  1.00  0.00     0.161 HD
ENDROOT
BRANCH   1  20
HETATM   20  C2  UNL     1      20.619   3.387  51.353  1.00  0.00     0.024 C 
HETATM   21  C1  UNL     1      20.948   4.721  50.659  1.00  0.00     0.007 C 
ENDBRANCH   1  20
BRANCH   1  22
HETATM   22  C4  UNL     1      20.920   1.407  49.977  1.00  0.00     0.005 C 
HETATM   23  C5  UNL     1      21.200   1.287  48.672  1.00  0.00     0.054 C 
HETATM   24 BR1  UNL     1      22.631   2.469  48.160  1.00  0.00    -0.064 Br
ENDBRANCH   1  22
BRANCH   8  25
HETATM   25  C11 UNL     1      28.529   0.395  53.117  1.00  0.00     0.062 C 
BRANCH  25  26
HETATM   26  C12 UNL     1      28.565  -1.089  53.250  1.00  0.00     0.001 C 
HETATM   27  C13 UNL     1      29.001  -2.314  53.118  1.00  0.00     0.127 C 
BRANCH  27  28
HETATM   28  O2  UNL     1      28.685  -3.623  53.443  1.00  0.00    -0.373 OA
HETATM   29  H18 UNL     1      28.158  -4.161  52.758  1.00  0.00     0.216 HD
ENDBRANCH  27  28
ENDBRANCH  25  26
ENDBRANCH   8  25
TORSDOF 5
ENDMDL
MODEL 2
REMARK VINA RESULT:      -8.1      1.581      1.762
REMARK  5 active torsions:
REMARK  status: ('A' for Active; 'I' for Inactive)
REMARK    1  A    between atoms: C2_2  and  C3_3 
REMARK    2  A    between atoms: C3_3  and  C4_4 
REMARK    3  A    between atoms: C10_13  and  C11_14 
REMARK    4  A    between atoms: C11_14  and  C12_15 
REMARK    5  A    between atoms: C13_16  and  O2_17 
ROOT
HETATM    1  C3  UNL     1      21.091   2.732  50.738  1.00  0.00     0.104 C 
HETATM    2  N1  UNL     1      21.893   2.071  51.599  1.00  0.00    -0.384 N 
HETATM    3  C6  UNL     1      22.898   2.840  52.271  1.00  0.00     0.126 C 
HETATM    4  C7  UNL     1      24.028   3.384  51.493  1.00  0.00     0.024 A 
HETATM    5  C8  UNL     1      25.378   3.085  51.394  1.00  0.00     0.008 A 
HETATM    6  O1  UNL     1      24.523   2.373  52.220  1.00  0.00     0.000 OA
HETATM    7  C9  UNL     1      26.426   2.098  51.857  1.00  0.00    -0.011 C 
HETATM    8  C10 UNL     1      26.597   0.924  52.554  1.00  0.00    -0.079 C 
HETATM    9  C14 UNL     1      25.352   0.246  52.705  1.00  0.00     0.040 C 
HETATM   10  C15 UNL     1      24.808  -0.028  54.045  1.00  0.00     0.061 C 
HETATM   11  C16 UNL     1      23.355  -0.440  53.745  1.00  0.00     0.006 C 
HETATM   12  C17 UNL     1      22.562  -1.112  54.546  1.00  0.00     0.024 C 
HETATM   13  C18 UNL     1      21.107  -1.173  54.601  1.00  0.00    -0.002 C 
HETATM   14  C19 UNL     1      20.322  -0.711  53.608  1.00  0.00    -0.023 C 
HETATM   15  C20 UNL     1      20.399   0.172  52.382  1.00  0.00     0.073 C 
HETATM   16  C21 UNL     1      21.637   0.957  52.395  1.00  0.00     0.182 C 
HETATM   17  N2  UNL     1      22.743  -0.034  52.458  1.00  0.00    -0.372 N 
HETATM   18  H12 UNL     1      24.728   2.545  53.293  1.00  0.00     0.000 HD
HETATM   19  H29 UNL     1      22.737  -0.159  51.399  1.00  0.00     0.161 HD
ENDROOT
BRANCH   1  20
HETATM   20  C2  UNL     1      20.143   3.806  51.226  1.00  0.00     0.024 C 
HETATM   21  C1  UNL     1      20.329   5.074  50.372  1.00  0.00     0.007 C 
ENDBRANCH   1  20
BRANCH   1  22
HETATM   22  C4  UNL     1      20.338   1.896  49.738  1.00  0.00     0.005 C 
HETATM   23  C5  UNL     1      20.731   1.674  48.477  1.00  0.00     0.054 C 
HETATM   24 BR1  UNL     1      22.395   2.568  48.103  1.00  0.00    -0.064 Br
ENDBRANCH   1  22
BRANCH   8  25
HETATM   25  C11 UNL     1      27.868   0.282  52.817  1.00  0.00     0.062 C 
BRANCH  25  26
HETATM   26  C12 UNL     1      28.820   1.088  53.635  1.00  0.00     0.001 C 
HETATM   27  C13 UNL     1      29.343   2.135  54.215  1.00  0.00     0.127 C 
BRANCH  27  28
HETATM   28  O2  UNL     1      30.406   2.518  55.016  1.00  0.00    -0.373 OA
HETATM   29  H18 UNL     1      30.206   3.157  55.784  1.00  0.00     0.216 HD
ENDBRANCH  27  28
ENDBRANCH  25  26
ENDBRANCH   8  25
TORSDOF 5
ENDMDL
MODEL 3
REMARK VINA RESULT:      -8.0      1.972      2.809
REMARK  5 active torsions:
REMARK  status: ('A' for Active; 'I' for Inactive)
REMARK    1  A    between atoms: C2_2  and  C3_3 
REMARK    2  A    between atoms: C3_3  and  C4_4 
REMARK    3  A    between atoms: C10_13  and  C11_14 
REMARK    4  A    between atoms: C11_14  and  C12_15 
REMARK    5  A    between atoms: C13_16  and  O2_17 
ROOT
HETATM    1  C3  UNL     1      20.354   3.207  50.221  1.00  0.00     0.104 C 
HETATM    2  N1  UNL     1      20.684   2.338  51.198  1.00  0.00    -0.384 N 
HETATM    3  C6  UNL     1      21.444   2.854  52.298  1.00  0.00     0.126 C 
HETATM    4  C7  UNL     1      22.841   3.272  52.073  1.00  0.00     0.024 A 
HETATM    5  C8  UNL     1      24.082   2.761  52.420  1.00  0.00     0.008 A 
HETATM    6  O1  UNL     1      22.898   2.126  52.762  1.00  0.00     0.000 OA
HETATM    7  C9  UNL     1      24.749   1.568  53.069  1.00  0.00    -0.011 C 
HETATM    8  C10 UNL     1      24.500   0.319  53.590  1.00  0.00    -0.079 C 
HETATM    9  C14 UNL     1      23.218  -0.149  53.175  1.00  0.00     0.040 C 
HETATM   10  C15 UNL     1      22.179  -0.459  54.170  1.00  0.00     0.061 C 
HETATM   11  C16 UNL     1      20.909  -0.585  53.308  1.00  0.00     0.006 C 
HETATM   12  C17 UNL     1      19.797  -1.189  53.655  1.00  0.00     0.024 C 
HETATM   13  C18 UNL     1      18.434  -1.007  53.174  1.00  0.00    -0.002 C 
HETATM   14  C19 UNL     1      18.146  -0.323  52.050  1.00  0.00    -0.023 C 
HETATM   15  C20 UNL     1      18.787   0.652  51.086  1.00  0.00     0.073 C 
HETATM   16  C21 UNL     1      20.013   1.209  51.666  1.00  0.00     0.182 C 
HETATM   17  N2  UNL     1      20.885   0.045  51.967  1.00  0.00    -0.372 N 
HETATM   18  H12 UNL     1      22.701   2.152  53.850  1.00  0.00     0.000 HD
HETATM   19  H29 UNL     1      21.264   0.028  50.971  1.00  0.00     0.161 HD
ENDROOT
BRANCH   1  20
HETATM   20  C2  UNL     1      19.428   4.374  50.497  1.00  0.00     0.024 C 
HETATM   21  C1  UNL     1      18.041   4.074  49.898  1.00  0.00     0.007 C 
ENDBRANCH   1  20
BRANCH   1  22
HETATM   22  C4  UNL     1      19.941   2.615  48.900  1.00  0.00     0.005 C 
HETATM   23  C5  UNL     1      20.750   2.465  47.843  1.00  0.00     0.054 C 
HETATM   24 BR1  UNL     1      22.522   3.109  48.232  1.00  0.00    -0.064 Br
ENDBRANCH   1  22
BRANCH   8  25
HETATM   25  C11 UNL     1      25.489  -0.552  54.189  1.00  0.00     0.062 C 
BRANCH  25  26
HETATM   26  C12 UNL     1      26.768   0.115  54.563  1.00  0.00     0.001 C 
HETATM   27  C13 UNL     1      28.008   0.516  54.462  1.00  0.00     0.127 C 
BRANCH  27  28
HETATM   28  O2  UNL     1      28.979   1.234  55.141  1.00  0.00    -0.373 OA
HETATM   29  H18 UNL     1      28.676   2.056  55.659  1.00  0.00     0.216 HD
ENDBRANCH  27  28
ENDBRANCH  25  26
ENDBRANCH   8  25
TORSDOF 5
ENDMDL
MODEL 4
REMARK VINA RESULT:      -7.6      3.171      6.365
REMARK  5 active torsions:
REMARK  status: ('A' for Active; 'I' for Inactive)
REMARK    1  A    between atoms: C2_2  and  C3_3 
REMARK    2  A    between atoms: C3_3  and  C4_4 
REMARK    3  A    between atoms: C10_13  and  C11_14 
REMARK    4  A    between atoms: C11_14  and  C12_15 
REMARK    5  A    between atoms: C13_16  and  O2_17 
ROOT
HETATM    1  C3  UNL     1      23.399   3.348  50.499  1.00  0.00     0.104 C 
HETATM    2  N1  UNL     1      23.086   2.231  51.186  1.00  0.00    -0.384 N 
HETATM    3  C6  UNL     1      22.347   1.223  50.486  1.00  0.00     0.126 C 
HETATM    4  C7  UNL     1      20.947   1.490  50.107  1.00  0.00     0.024 A 
HETATM    5  C8  UNL     1      19.712   1.038  50.546  1.00  0.00     0.008 A 
HETATM    6  O1  UNL     1      20.901   0.613  51.118  1.00  0.00     0.000 OA
HETATM    7  C9  UNL     1      19.056   0.182  51.607  1.00  0.00    -0.011 C 
HETATM    8  C10 UNL     1      19.313  -0.541  52.749  1.00  0.00    -0.079 C 
HETATM    9  C14 UNL     1      20.586  -0.189  53.286  1.00  0.00     0.040 C 
HETATM   10  C15 UNL     1      21.644  -1.203  53.426  1.00  0.00     0.061 C 
HETATM   11  C16 UNL     1      22.897  -0.353  53.704  1.00  0.00     0.006 C 
HETATM   12  C17 UNL     1      24.015  -0.778  54.244  1.00  0.00     0.024 C 
HETATM   13  C18 UNL     1      25.369  -0.248  54.153  1.00  0.00    -0.002 C 
HETATM   14  C19 UNL     1      25.636   0.982  53.673  1.00  0.00    -0.023 C 
HETATM   15  C20 UNL     1      24.979   2.086  52.875  1.00  0.00     0.073 C 
HETATM   16  C21 UNL     1      23.764   1.589  52.221  1.00  0.00     0.182 C 
HETATM   17  N2  UNL     1      22.897   1.077  53.313  1.00  0.00    -0.372 N 
HETATM   18  H12 UNL     1      21.119  -0.450  50.907  1.00  0.00     0.000 HD
HETATM   19  H29 UNL     1      22.499   2.048  53.499  1.00  0.00     0.161 HD
ENDROOT
BRANCH   1  20
HETATM   20  C2  UNL     1      24.331   3.294  49.307  1.00  0.00     0.024 C 
HETATM   21  C1  UNL     1      25.703   3.865  49.708  1.00  0.00     0.007 C 
ENDBRANCH   1  20
BRANCH   1  22
HETATM   22  C4  UNL     1      23.786   4.555  51.311  1.00  0.00     0.005 C 
HETATM   23  C5  UNL     1      22.986   5.602  51.555  1.00  0.00     0.054 C 
HETATM   24 BR1  UNL     1      21.263   5.362  50.730  1.00  0.00    -0.064 Br
ENDBRANCH   1  22
BRANCH   8  25
HETATM   25  C11 UNL     1      18.335  -1.298  53.501  1.00  0.00     0.062 C 
BRANCH  25  26
HETATM   26  C12 UNL     1      17.130  -1.710  52.725  1.00  0.00     0.001 C 
HETATM   27  C13 UNL     1      15.876  -1.765  52.360  1.00  0.00     0.127 C 
BRANCH  27  28
HETATM   28  O2  UNL     1      15.036  -2.370  51.440  1.00  0.00    -0.373 OA
HETATM   29  H18 UNL     1      14.239  -2.888  51.805  1.00  0.00     0.216 HD
ENDBRANCH  27  28
ENDBRANCH  25  26
ENDBRANCH   8  25
TORSDOF 5
ENDMDL
MODEL 5
REMARK VINA RESULT:      -7.5      8.726     12.230
REMARK  5 active torsions:
REMARK  status: ('A' for Active; 'I' for Inactive)
REMARK    1  A    between atoms: C2_2  and  C3_3 
REMARK    2  A    between atoms: C3_3  and  C4_4 
REMARK    3  A    between atoms: C10_13  and  C11_14 
REMARK    4  A    between atoms: C11_14  and  C12_15 
REMARK    5  A    between atoms: C13_16  and  O2_17 
ROOT
HETATM    1  C3  UNL     1      33.414   7.828  47.346  1.00  0.00     0.104 C 
HETATM    2  N1  UNL     1      32.211   8.185  47.840  1.00  0.00    -0.384 N 
HETATM    3  C6  UNL     1      31.657   7.354  48.867  1.00  0.00     0.126 C 
HETATM    4  C7  UNL     1      31.212   5.989  48.525  1.00  0.00     0.024 A 
HETATM    5  C8  UNL     1      29.979   5.368  48.391  1.00  0.00     0.008 A 
HETATM    6  O1  UNL     1      30.099   6.711  48.714  1.00  0.00     0.000 OA
HETATM    7  C9  UNL     1      28.492   5.641  48.398  1.00  0.00    -0.011 C 
HETATM    8  C10 UNL     1      27.560   6.653  48.460  1.00  0.00    -0.079 C 
HETATM    9  C14 UNL     1      28.170   7.910  48.180  1.00  0.00     0.040 C 
HETATM   10  C15 UNL     1      28.156   8.987  49.184  1.00  0.00     0.061 C 
HETATM   11  C16 UNL     1      29.181   9.990  48.622  1.00  0.00     0.006 C 
HETATM   12  C17 UNL     1      29.278  11.258  48.947  1.00  0.00     0.024 C 
HETATM   13  C18 UNL     1      30.412  12.169  48.864  1.00  0.00    -0.002 C 
HETATM   14  C19 UNL     1      31.524  11.883  48.160  1.00  0.00    -0.023 C 
HETATM   15  C20 UNL     1      32.219  10.704  47.514  1.00  0.00     0.073 C 
HETATM   16  C21 UNL     1      31.635   9.446  47.987  1.00  0.00     0.182 C 
HETATM   17  N2  UNL     1      30.190   9.516  47.646  1.00  0.00    -0.372 N 
HETATM   18  H12 UNL     1      29.779   6.929  49.750  1.00  0.00     0.000 HD
HETATM   19  H29 UNL     1      30.371   9.157  46.660  1.00  0.00     0.161 HD
ENDROOT
BRANCH   1  20
HETATM   20  C2  UNL     1      34.650   7.841  48.221  1.00  0.00     0.024 C 
HETATM   21  C1  UNL     1      35.180   6.403  48.373  1.00  0.00     0.007 C 
ENDBRANCH   1  20
BRANCH   1  22
HETATM   22  C4  UNL     1      33.803   8.420  46.018  1.00  0.00     0.005 C 
HETATM   23  C5  UNL     1      33.775   7.764  44.850  1.00  0.00     0.054 C 
HETATM   24 BR1  UNL     1      33.170   5.952  45.090  1.00  0.00    -0.064 Br
ENDBRANCH   1  22
BRANCH   8  25
HETATM   25  C11 UNL     1      26.124   6.471  48.473  1.00  0.00     0.062 C 
BRANCH  25  26
HETATM   26  C12 UNL     1      25.492   6.572  49.819  1.00  0.00     0.001 C 
HETATM   27  C13 UNL     1      24.701   7.007  50.764  1.00  0.00     0.127 C 
BRANCH  27  28
HETATM   28  O2  UNL     1      24.373   6.795  52.093  1.00  0.00    -0.373 OA
HETATM   29  H18 UNL     1      23.924   7.561  52.591  1.00  0.00     0.216 HD
ENDBRANCH  27  28
ENDBRANCH  25  26
ENDBRANCH   8  25
TORSDOF 5
ENDMDL
MODEL 6
REMARK VINA RESULT:      -7.3      2.643      6.494
REMARK  5 active torsions:
REMARK  status: ('A' for Active; 'I' for Inactive)
REMARK    1  A    between atoms: C2_2  and  C3_3 
REMARK    2  A    between atoms: C3_3  and  C4_4 
REMARK    3  A    between atoms: C10_13  and  C11_14 
REMARK    4  A    between atoms: C11_14  and  C12_15 
REMARK    5  A    between atoms: C13_16  and  O2_17 
ROOT
HETATM    1  C3  UNL     1      27.625  -0.271  53.426  1.00  0.00     0.104 C 
HETATM    2  N1  UNL     1      26.361   0.093  53.130  1.00  0.00    -0.384 N 
HETATM    3  C6  UNL     1      26.043   0.272  51.745  1.00  0.00     0.126 C 
HETATM    4  C7  UNL     1      26.637   1.406  51.011  1.00  0.00     0.024 A 
HETATM    5  C8  UNL     1      26.156   2.606  50.511  1.00  0.00     0.008 A 
HETATM    6  O1  UNL     1      25.347   1.713  51.195  1.00  0.00     0.000 OA
HETATM    7  C9  UNL     1      24.922   3.480  50.470  1.00  0.00    -0.011 C 
HETATM    8  C10 UNL     1      23.644   3.601  50.967  1.00  0.00    -0.079 C 
HETATM    9  C14 UNL     1      23.470   2.759  52.105  1.00  0.00     0.040 C 
HETATM   10  C15 UNL     1      22.455   1.693  52.096  1.00  0.00     0.061 C 
HETATM   11  C16 UNL     1      22.835   0.851  53.328  1.00  0.00     0.006 C 
HETATM   12  C17 UNL     1      22.051   0.007  53.958  1.00  0.00     0.024 C 
HETATM   13  C18 UNL     1      22.378  -1.138  54.797  1.00  0.00    -0.002 C 
HETATM   14  C19 UNL     1      23.617  -1.355  55.280  1.00  0.00    -0.023 C 
HETATM   15  C20 UNL     1      25.045  -0.905  55.060  1.00  0.00     0.073 C 
HETATM   16  C21 UNL     1      25.164  -0.191  53.785  1.00  0.00     0.182 C 
HETATM   17  N2  UNL     1      24.212   0.946  53.867  1.00  0.00    -0.372 N 
HETATM   18  H12 UNL     1      24.592   1.237  50.542  1.00  0.00     0.000 HD
HETATM   19  H29 UNL     1      24.928   1.554  54.370  1.00  0.00     0.161 HD
ENDROOT
BRANCH   1  20
HETATM   20  C2  UNL     1      28.174  -1.611  52.981  1.00  0.00     0.024 C 
HETATM   21  C1  UNL     1      29.666  -1.698  53.353  1.00  0.00     0.007 C 
ENDBRANCH   1  20
BRANCH   1  22
HETATM   22  C4  UNL     1      28.077  -0.055  54.845  1.00  0.00     0.005 C 
HETATM   23  C5  UNL     1      28.726   1.032  55.284  1.00  0.00     0.054 C 
HETATM   24 BR1  UNL     1      29.009   2.292  53.856  1.00  0.00    -0.064 Br
ENDBRANCH   1  22
BRANCH   8  25
HETATM   25  C11 UNL     1      22.707   4.649  50.625  1.00  0.00     0.062 C 
BRANCH  25  26
HETATM   26  C12 UNL     1      23.197   6.035  50.874  1.00  0.00     0.001 C 
HETATM   27  C13 UNL     1      24.037   7.002  51.128  1.00  0.00     0.127 C 
BRANCH  27  28
HETATM   28  O2  UNL     1      24.097   8.375  51.306  1.00  0.00    -0.373 OA
HETATM   29  H18 UNL     1      24.990   8.771  51.591  1.00  0.00     0.216 HD
ENDBRANCH  27  28
ENDBRANCH  25  26
ENDBRANCH   8  25
TORSDOF 5
ENDMDL
MODEL 7
REMARK VINA RESULT:      -7.2      8.355     11.474
REMARK  5 active torsions:
REMARK  status: ('A' for Active; 'I' for Inactive)
REMARK    1  A    between atoms: C2_2  and  C3_3 
REMARK    2  A    between atoms: C3_3  and  C4_4 
REMARK    3  A    between atoms: C10_13  and  C11_14 
REMARK    4  A    between atoms: C11_14  and  C12_15 
REMARK    5  A    between atoms: C13_16  and  O2_17 
ROOT
HETATM    1  C3  UNL     1      30.492  10.966  47.218  1.00  0.00     0.104 C 
HETATM    2  N1  UNL     1      30.126   9.678  47.383  1.00  0.00    -0.384 N 
HETATM    3  C6  UNL     1      29.142   9.162  46.479  1.00  0.00     0.126 C 
HETATM    4  C7  UNL     1      27.756   9.661  46.561  1.00  0.00     0.024 A 
HETATM    5  C8  UNL     1      26.552   9.133  47.000  1.00  0.00     0.008 A 
HETATM    6  O1  UNL     1      27.737   8.418  47.059  1.00  0.00     0.000 OA
HETATM    7  C9  UNL     1      25.949   7.923  47.678  1.00  0.00    -0.011 C 
HETATM    8  C10 UNL     1      26.270   6.736  48.296  1.00  0.00    -0.079 C 
HETATM    9  C14 UNL     1      27.649   6.717  48.654  1.00  0.00     0.040 C 
HETATM   10  C15 UNL     1      28.550   5.692  48.101  1.00  0.00     0.061 C 
HETATM   11  C16 UNL     1      29.946   6.235  48.460  1.00  0.00     0.006 C 
HETATM   12  C17 UNL     1      31.057   5.539  48.506  1.00  0.00     0.024 C 
HETATM   13  C18 UNL     1      32.444   5.965  48.380  1.00  0.00    -0.002 C 
HETATM   14  C19 UNL     1      32.816   7.258  48.455  1.00  0.00    -0.023 C 
HETATM   15  C20 UNL     1      32.216   8.646  48.391  1.00  0.00     0.073 C 
HETATM   16  C21 UNL     1      30.853   8.587  47.855  1.00  0.00     0.182 C 
HETATM   17  N2  UNL     1      30.101   7.679  48.758  1.00  0.00    -0.372 N 
HETATM   18  H12 UNL     1      27.756   7.566  46.355  1.00  0.00     0.000 HD
HETATM   19  H29 UNL     1      29.888   8.473  49.436  1.00  0.00     0.161 HD
ENDROOT
BRANCH   1  20
HETATM   20  C2  UNL     1      31.206  11.417  45.961  1.00  0.00     0.024 C 
HETATM   21  C1  UNL     1      32.712  11.554  46.253  1.00  0.00     0.007 C 
ENDBRANCH   1  20
BRANCH   1  22
HETATM   22  C4  UNL     1      31.181  11.628  48.382  1.00  0.00     0.005 C 
HETATM   23  C5  UNL     1      30.612  12.526  49.196  1.00  0.00     0.054 C 
HETATM   24 BR1  UNL     1      28.788  12.866  48.685  1.00  0.00    -0.064 Br
ENDBRANCH   1  22
BRANCH   8  25
HETATM   25  C11 UNL     1      25.318   5.777  48.817  1.00  0.00     0.062 C 
BRANCH  25  26
HETATM   26  C12 UNL     1      24.923   5.995  50.238  1.00  0.00     0.001 C 
HETATM   27  C13 UNL     1      24.149   6.089  51.286  1.00  0.00     0.127 C 
BRANCH  27  28
HETATM   28  O2  UNL     1      24.183   6.352  52.646  1.00  0.00    -0.373 OA
HETATM   29  H18 UNL     1      23.858   7.267  52.953  1.00  0.00     0.216 HD
ENDBRANCH  27  28
ENDBRANCH  25  26
ENDBRANCH   8  25
TORSDOF 5
ENDMDL
MODEL 8
REMARK VINA RESULT:      -7.2      9.487     12.648
REMARK  5 active torsions:
REMARK  status: ('A' for Active; 'I' for Inactive)
REMARK    1  A    between atoms: C2_2  and  C3_3 
REMARK    2  A    between atoms: C3_3  and  C4_4 
REMARK    3  A    between atoms: C10_13  and  C11_14 
REMARK    4  A    between atoms: C11_14  and  C12_15 
REMARK    5  A    between atoms: C13_16  and  O2_17 
ROOT
HETATM    1  C3  UNL     1      32.794   6.303  46.801  1.00  0.00     0.104 C 
HETATM    2  N1  UNL     1      31.739   7.072  47.139  1.00  0.00    -0.384 N 
HETATM    3  C6  UNL     1      31.526   8.258  46.364  1.00  0.00     0.126 C 
HETATM    4  C7  UNL     1      32.488   9.372  46.472  1.00  0.00     0.024 A 
HETATM    5  C8  UNL     1      32.461  10.635  47.043  1.00  0.00     0.008 A 
HETATM    6  O1  UNL     1      31.381   9.768  47.113  1.00  0.00     0.000 OA
HETATM    7  C9  UNL     1      31.607  11.548  47.895  1.00  0.00    -0.011 C 
HETATM    8  C10 UNL     1      30.443  11.596  48.627  1.00  0.00    -0.079 C 
HETATM    9  C14 UNL     1      29.969  10.280  48.899  1.00  0.00     0.040 C 
HETATM   10  C15 UNL     1      28.648   9.847  48.417  1.00  0.00     0.061 C 
HETATM   11  C16 UNL     1      28.692   8.321  48.623  1.00  0.00     0.006 C 
HETATM   12  C17 UNL     1      27.655   7.520  48.683  1.00  0.00     0.024 C 
HETATM   13  C18 UNL     1      27.551   6.090  48.422  1.00  0.00    -0.002 C 
HETATM   14  C19 UNL     1      28.630   5.290  48.321  1.00  0.00    -0.023 C 
HETATM   15  C20 UNL     1      30.128   5.378  48.131  1.00  0.00     0.073 C 
HETATM   16  C21 UNL     1      30.508   6.723  47.690  1.00  0.00     0.182 C 
HETATM   17  N2  UNL     1      30.008   7.649  48.739  1.00  0.00    -0.372 N 
HETATM   18  H12 UNL     1      30.518  10.115  46.515  1.00  0.00     0.000 HD
HETATM   19  H29 UNL     1      30.883   7.507  49.330  1.00  0.00     0.161 HD
ENDROOT
BRANCH   1  20
HETATM   20  C2  UNL     1      32.851   5.605  45.458  1.00  0.00     0.024 C 
HETATM   21  C1  UNL     1      32.726   4.085  45.670  1.00  0.00     0.007 C 
ENDBRANCH   1  20
BRANCH   1  22
HETATM   22  C4  UNL     1      33.270   5.317  47.834  1.00  0.00     0.005 C 
HETATM   23  C5  UNL     1      34.307   5.515  48.660  1.00  0.00     0.054 C 
HETATM   24 BR1  UNL     1      35.116   7.235  48.354  1.00  0.00    -0.064 Br
ENDBRANCH   1  22
BRANCH   8  25
HETATM   25  C11 UNL     1      29.933  12.764  49.315  1.00  0.00     0.062 C 
BRANCH  25  26
HETATM   26  C12 UNL     1      28.550  13.165  48.927  1.00  0.00     0.001 C 
HETATM   27  C13 UNL     1      27.566  13.564  48.167  1.00  0.00     0.127 C 
BRANCH  27  28
HETATM   28  O2  UNL     1      26.212  13.859  48.202  1.00  0.00    -0.373 OA
HETATM   29  H18 UNL     1      25.580  13.119  48.500  1.00  0.00     0.216 HD
ENDBRANCH  27  28
ENDBRANCH  25  26
ENDBRANCH   8  25
TORSDOF 5
ENDMDL
MODEL 9
REMARK VINA RESULT:      -7.0      9.007     11.090
REMARK  5 active torsions:
REMARK  status: ('A' for Active; 'I' for Inactive)
REMARK    1  A    between atoms: C2_2  and  C3_3 
REMARK    2  A    between atoms: C3_3  and  C4_4 
REMARK    3  A    between atoms: C10_13  and  C11_14 
REMARK    4  A    between atoms: C11_14  and  C12_15 
REMARK    5  A    between atoms: C13_16  and  O2_17 
ROOT
HETATM    1  C3  UNL     1      30.236  11.082  47.925  1.00  0.00     0.104 C 
HETATM    2  N1  UNL     1      29.928   9.779  48.083  1.00  0.00    -0.384 N 
HETATM    3  C6  UNL     1      30.748   9.021  48.981  1.00  0.00     0.126 C 
HETATM    4  C7  UNL     1      32.148   8.739  48.612  1.00  0.00     0.024 A 
HETATM    5  C8  UNL     1      32.843   7.609  48.206  1.00  0.00     0.008 A 
HETATM    6  O1  UNL     1      31.484   7.583  48.478  1.00  0.00     0.000 OA
HETATM    7  C9  UNL     1      32.655   6.157  47.827  1.00  0.00    -0.011 C 
HETATM    8  C10 UNL     1      31.696   5.196  47.601  1.00  0.00    -0.079 C 
HETATM    9  C14 UNL     1      30.418   5.799  47.417  1.00  0.00     0.040 C 
HETATM   10  C15 UNL     1      29.305   5.484  48.327  1.00  0.00     0.061 C 
HETATM   11  C16 UNL     1      28.269   6.571  47.988  1.00  0.00     0.006 C 
HETATM   12  C17 UNL     1      26.985   6.526  48.259  1.00  0.00     0.024 C 
HETATM   13  C18 UNL     1      26.015   7.602  48.414  1.00  0.00    -0.002 C 
HETATM   14  C19 UNL     1      26.265   8.868  48.026  1.00  0.00    -0.023 C 
HETATM   15  C20 UNL     1      27.427   9.756  47.637  1.00  0.00     0.073 C 
HETATM   16  C21 UNL     1      28.697   9.128  48.015  1.00  0.00     0.182 C 
HETATM   17  N2  UNL     1      28.722   7.814  47.321  1.00  0.00    -0.372 N 
HETATM   18  H12 UNL     1      31.243   7.003  49.388  1.00  0.00     0.000 HD
HETATM   19  H29 UNL     1      29.110   8.254  46.431  1.00  0.00     0.161 HD
ENDROOT
BRANCH   1  20
HETATM   20  C2  UNL     1      30.118  12.056  49.078  1.00  0.00     0.024 C 
HETATM   21  C1  UNL     1      28.790  12.827  48.958  1.00  0.00     0.007 C 
ENDBRANCH   1  20
BRANCH   1  22
HETATM   22  C4  UNL     1      29.676  11.766  46.706  1.00  0.00     0.005 C 
HETATM   23  C5  UNL     1      30.392  12.123  45.632  1.00  0.00     0.054 C 
HETATM   24 BR1  UNL     1      32.245  11.645  45.847  1.00  0.00    -0.064 Br
ENDBRANCH   1  22
BRANCH   8  25
HETATM   25  C11 UNL     1      31.959   3.812  47.265  1.00  0.00     0.062 C 
BRANCH  25  26
HETATM   26  C12 UNL     1      33.276   3.565  46.612  1.00  0.00     0.001 C 
HETATM   27  C13 UNL     1      34.547   3.286  46.502  1.00  0.00     0.127 C 
BRANCH  27  28
HETATM   28  O2  UNL     1      35.551   3.131  45.560  1.00  0.00    -0.373 OA
HETATM   29  H18 UNL     1      35.738   3.919  44.942  1.00  0.00     0.216 HD
ENDBRANCH  27  28
ENDBRANCH  25  26
ENDBRANCH   8  25
TORSDOF 5
ENDMDL
