MODEL 1
REMARK VINA RESULT:      -8.5      0.000      0.000
REMARK  6 active torsions:
REMARK  status: ('A' for Active; 'I' for Inactive)
REMARK    1  A    between atoms: C1_1  and  C19_22 
REMARK    2  A    between atoms: C3_3  and  C4_4 
REMARK    3  A    between atoms: C5_5  and  C6_6 
REMARK    4  A    between atoms: C6_6  and  C7_7 
REMARK    5  A    between atoms: C7_7  and  N1_8 
REMARK    6  A    between atoms: N1_8  and  C8_9 
ROOT
HETATM    1  C8  UNL     1      23.982   1.395  52.934  1.00  0.00     0.045 A 
HETATM    2  C9  UNL     1      22.803   0.725  53.072  1.00  0.00     0.049 A 
HETATM    3  C10 UNL     1      22.670  -0.475  53.773  1.00  0.00     0.122 A 
HETATM    4  N2  UNL     1      23.768  -1.028  54.363  1.00  0.00    -0.236 NA
HETATM    5  C11 UNL     1      24.947  -0.394  54.248  1.00  0.00     0.183 A 
HETATM    6  O1  UNL     1      26.138  -0.690  54.702  1.00  0.00    -0.290 OA
HETATM    7  C12 UNL     1      27.026   0.197  54.366  1.00  0.00     0.089 A 
HETATM    8  C13 UNL     1      28.371   0.284  54.621  1.00  0.00     0.038 A 
HETATM    9  C14 UNL     1      29.071   1.347  54.132  1.00  0.00     0.003 A 
HETATM   10  C15 UNL     1      28.409   2.313  53.391  1.00  0.00     0.001 A 
HETATM   11  C16 UNL     1      27.069   2.193  53.156  1.00  0.00     0.015 A 
HETATM   12  C17 UNL     1      26.351   1.145  53.632  1.00  0.00     0.015 A 
HETATM   13  C18 UNL     1      25.033   0.787  53.547  1.00  0.00     0.057 A 
ENDROOT
BRANCH   1  14
HETATM   14  N1  UNL     1      23.948   2.602  52.234  1.00  0.00    -0.389 N 
HETATM   15  H8  UNL     1      24.492   3.459  52.411  1.00  0.00     0.159 HD
BRANCH  14  16
HETATM   16  C7  UNL     1      23.150   2.957  51.086  1.00  0.00     0.121 C 
BRANCH  16  17
HETATM   17  C6  UNL     1      24.010   3.790  50.158  1.00  0.00     0.035 C 
BRANCH  17  18
HETATM   18  C5  UNL     1      25.327   3.286  49.915  1.00  0.00     0.006 A 
HETATM   19  C4  UNL     1      26.037   4.558  49.302  1.00  0.00     0.038 A 
HETATM   20  C19 UNL     1      26.434   3.263  49.586  1.00  0.00    -0.060 A 
BRANCH  19  21
HETATM   21  C3  UNL     1      27.552   4.552  48.844  1.00  0.00     0.033 A 
HETATM   22  C2  UNL     1      28.335   5.823  48.258  1.00  0.00     0.033 A 
HETATM   23  C1  UNL     1      27.236   5.855  48.584  1.00  0.00    -0.065 A 
ENDBRANCH  19  21
ENDBRANCH  17  18
ENDBRANCH  16  17
ENDBRANCH  14  16
ENDBRANCH   1  14
TORSDOF 6
ENDMDL
MODEL 2
REMARK VINA RESULT:      -8.5      1.524      3.631
REMARK  6 active torsions:
REMARK  status: ('A' for Active; 'I' for Inactive)
REMARK    1  A    between atoms: C1_1  and  C19_22 
REMARK    2  A    between atoms: C3_3  and  C4_4 
REMARK    3  A    between atoms: C5_5  and  C6_6 
REMARK    4  A    between atoms: C6_6  and  C7_7 
REMARK    5  A    between atoms: C7_7  and  N1_8 
REMARK    6  A    between atoms: N1_8  and  C8_9 
ROOT
HETATM    1  C8  UNL     1      26.579   0.906  52.713  1.00  0.00     0.045 A 
HETATM    2  C9  UNL     1      27.908   1.081  52.957  1.00  0.00     0.049 A 
HETATM    3  C10 UNL     1      28.558   0.599  54.094  1.00  0.00     0.122 A 
HETATM    4  N2  UNL     1      27.844  -0.091  55.029  1.00  0.00    -0.236 NA
HETATM    5  C11 UNL     1      26.530  -0.283  54.821  1.00  0.00     0.183 A 
HETATM    6  O1  UNL     1      25.621  -0.895  55.535  1.00  0.00    -0.290 OA
HETATM    7  C12 UNL     1      24.449  -0.856  54.974  1.00  0.00     0.089 A 
HETATM    8  C13 UNL     1      23.234  -1.358  55.365  1.00  0.00     0.038 A 
HETATM    9  C14 UNL     1      22.147  -1.163  54.563  1.00  0.00     0.003 A 
HETATM   10  C15 UNL     1      22.297  -0.464  53.376  1.00  0.00     0.001 A 
HETATM   11  C16 UNL     1      23.522   0.021  53.019  1.00  0.00     0.015 A 
HETATM   12  C17 UNL     1      24.618  -0.160  53.799  1.00  0.00     0.015 A 
HETATM   13  C18 UNL     1      25.930   0.211  53.686  1.00  0.00     0.057 A 
ENDROOT
BRANCH   1  14
HETATM   14  N1  UNL     1      26.081   1.417  51.513  1.00  0.00    -0.389 N 
HETATM   15  H8  UNL     1      25.876   0.911  50.639  1.00  0.00     0.159 HD
BRANCH  14  16
HETATM   16  C7  UNL     1      25.723   2.777  51.191  1.00  0.00     0.121 C 
BRANCH  16  17
HETATM   17  C6  UNL     1      26.309   3.105  49.833  1.00  0.00     0.035 C 
BRANCH  17  18
HETATM   18  C5  UNL     1      26.136   4.456  49.393  1.00  0.00     0.006 A 
HETATM   19  C4  UNL     1      27.568   4.776  48.809  1.00  0.00     0.038 A 
HETATM   20  C19 UNL     1      26.386   5.485  48.933  1.00  0.00    -0.060 A 
BRANCH  19  21
HETATM   21  C3  UNL     1      27.936   6.179  48.174  1.00  0.00     0.033 A 
HETATM   22  C2  UNL     1      29.408   6.613  47.706  1.00  0.00     0.033 A 
HETATM   23  C1  UNL     1      29.168   5.589  48.164  1.00  0.00    -0.065 A 
ENDBRANCH  19  21
ENDBRANCH  17  18
ENDBRANCH  16  17
ENDBRANCH  14  16
ENDBRANCH   1  14
TORSDOF 6
ENDMDL
MODEL 3
REMARK VINA RESULT:      -8.1      1.717      4.398
REMARK  6 active torsions:
REMARK  status: ('A' for Active; 'I' for Inactive)
REMARK    1  A    between atoms: C1_1  and  C19_22 
REMARK    2  A    between atoms: C3_3  and  C4_4 
REMARK    3  A    between atoms: C5_5  and  C6_6 
REMARK    4  A    between atoms: C6_6  and  C7_7 
REMARK    5  A    between atoms: C7_7  and  N1_8 
REMARK    6  A    between atoms: N1_8  and  C8_9 
ROOT
HETATM    1  C8  UNL     1      27.154   1.870  52.998  1.00  0.00     0.045 A 
HETATM    2  C9  UNL     1      28.447   1.804  53.424  1.00  0.00     0.049 A 
HETATM    3  C10 UNL     1      28.916   0.861  54.340  1.00  0.00     0.122 A 
HETATM    4  N2  UNL     1      28.049  -0.059  54.852  1.00  0.00    -0.236 NA
HETATM    5  C11 UNL     1      26.766  -0.024  54.454  1.00  0.00     0.183 A 
HETATM    6  O1  UNL     1      25.740  -0.769  54.775  1.00  0.00    -0.290 OA
HETATM    7  C12 UNL     1      24.655  -0.402  54.160  1.00  0.00     0.089 A 
HETATM    8  C13 UNL     1      23.375  -0.891  54.198  1.00  0.00     0.038 A 
HETATM    9  C14 UNL     1      22.415  -0.297  53.431  1.00  0.00     0.003 A 
HETATM   10  C15 UNL     1      22.757   0.784  52.635  1.00  0.00     0.001 A 
HETATM   11  C16 UNL     1      24.042   1.244  52.622  1.00  0.00     0.015 A 
HETATM   12  C17 UNL     1      25.014   0.670  53.376  1.00  0.00     0.015 A 
HETATM   13  C18 UNL     1      26.347   0.923  53.550  1.00  0.00     0.057 A 
ENDROOT
BRANCH   1  14
HETATM   14  N1  UNL     1      26.846   2.848  52.052  1.00  0.00    -0.389 N 
HETATM   15  H8  UNL     1      26.693   3.856  52.201  1.00  0.00     0.159 HD
BRANCH  14  16
HETATM   16  C7  UNL     1      26.668   2.701  50.627  1.00  0.00     0.121 C 
BRANCH  16  17
HETATM   17  C6  UNL     1      25.719   3.785  50.161  1.00  0.00     0.035 C 
BRANCH  17  18
HETATM   18  C5  UNL     1      24.483   3.329  49.602  1.00  0.00     0.006 A 
HETATM   19  C4  UNL     1      23.436   4.018  50.565  1.00  0.00     0.038 A 
HETATM   20  C19 UNL     1      23.345   3.188  49.461  1.00  0.00    -0.060 A 
BRANCH  19  21
HETATM   21  C3  UNL     1      21.873   3.840  50.392  1.00  0.00     0.033 A 
HETATM   22  C2  UNL     1      20.784   4.181  51.519  1.00  0.00     0.033 A 
HETATM   23  C1  UNL     1      21.912   4.320  51.670  1.00  0.00    -0.065 A 
ENDBRANCH  19  21
ENDBRANCH  17  18
ENDBRANCH  16  17
ENDBRANCH  14  16
ENDBRANCH   1  14
TORSDOF 6
ENDMDL
MODEL 4
REMARK VINA RESULT:      -8.0      2.113      4.822
REMARK  6 active torsions:
REMARK  status: ('A' for Active; 'I' for Inactive)
REMARK    1  A    between atoms: C1_1  and  C19_22 
REMARK    2  A    between atoms: C3_3  and  C4_4 
REMARK    3  A    between atoms: C5_5  and  C6_6 
REMARK    4  A    between atoms: C6_6  and  C7_7 
REMARK    5  A    between atoms: C7_7  and  N1_8 
REMARK    6  A    between atoms: N1_8  and  C8_9 
ROOT
HETATM    1  C8  UNL     1      26.788   0.787  52.775  1.00  0.00     0.045 A 
HETATM    2  C9  UNL     1      28.104   0.943  53.094  1.00  0.00     0.049 A 
HETATM    3  C10 UNL     1      28.671   0.497  54.289  1.00  0.00     0.122 A 
HETATM    4  N2  UNL     1      27.884  -0.134  55.206  1.00  0.00    -0.236 NA
HETATM    5  C11 UNL     1      26.581  -0.305  54.925  1.00  0.00     0.183 A 
HETATM    6  O1  UNL     1      25.615  -0.865  55.607  1.00  0.00    -0.290 OA
HETATM    7  C12 UNL     1      24.480  -0.825  54.974  1.00  0.00     0.089 A 
HETATM    8  C13 UNL     1      23.232  -1.281  55.309  1.00  0.00     0.038 A 
HETATM    9  C14 UNL     1      22.201  -1.098  54.434  1.00  0.00     0.003 A 
HETATM   10  C15 UNL     1      22.441  -0.456  53.230  1.00  0.00     0.001 A 
HETATM   11  C16 UNL     1      23.697  -0.015  52.929  1.00  0.00     0.015 A 
HETATM   12  C17 UNL     1      24.738  -0.185  53.783  1.00  0.00     0.015 A 
HETATM   13  C18 UNL     1      26.063   0.150  53.735  1.00  0.00     0.057 A 
ENDROOT
BRANCH   1  14
HETATM   14  N1  UNL     1      26.377   1.255  51.527  1.00  0.00    -0.389 N 
HETATM   15  H8  UNL     1      25.927   0.729  50.763  1.00  0.00     0.159 HD
BRANCH  14  16
HETATM   16  C7  UNL     1      26.472   2.590  50.987  1.00  0.00     0.121 C 
BRANCH  16  17
HETATM   17  C6  UNL     1      25.069   3.070  50.678  1.00  0.00     0.035 C 
BRANCH  17  18
HETATM   18  C5  UNL     1      24.307   3.524  51.801  1.00  0.00     0.006 A 
HETATM   19  C4  UNL     1      22.859   3.023  51.416  1.00  0.00     0.038 A 
HETATM   20  C19 UNL     1      23.398   3.712  52.488  1.00  0.00    -0.060 A 
BRANCH  19  21
HETATM   21  C3  UNL     1      21.598   3.267  52.340  1.00  0.00     0.033 A 
HETATM   22  C2  UNL     1      20.129   2.692  52.054  1.00  0.00     0.033 A 
HETATM   23  C1  UNL     1      21.026   2.499  51.367  1.00  0.00    -0.065 A 
ENDBRANCH  19  21
ENDBRANCH  17  18
ENDBRANCH  16  17
ENDBRANCH  14  16
ENDBRANCH   1  14
TORSDOF 6
ENDMDL
MODEL 5
REMARK VINA RESULT:      -7.8      3.037      5.685
REMARK  6 active torsions:
REMARK  status: ('A' for Active; 'I' for Inactive)
REMARK    1  A    between atoms: C1_1  and  C19_22 
REMARK    2  A    between atoms: C3_3  and  C4_4 
REMARK    3  A    between atoms: C5_5  and  C6_6 
REMARK    4  A    between atoms: C6_6  and  C7_7 
REMARK    5  A    between atoms: C7_7  and  N1_8 
REMARK    6  A    between atoms: N1_8  and  C8_9 
ROOT
HETATM    1  C8  UNL     1      22.996   1.640  50.796  1.00  0.00     0.045 A 
HETATM    2  C9  UNL     1      22.532   2.291  49.692  1.00  0.00     0.049 A 
HETATM    3  C10 UNL     1      21.201   2.256  49.272  1.00  0.00     0.122 A 
HETATM    4  N2  UNL     1      20.294   1.537  49.991  1.00  0.00    -0.236 NA
HETATM    5  C11 UNL     1      20.715   0.883  51.086  1.00  0.00     0.183 A 
HETATM    6  O1  UNL     1      20.075   0.132  51.946  1.00  0.00    -0.290 OA
HETATM    7  C12 UNL     1      20.858  -0.323  52.879  1.00  0.00     0.089 A 
HETATM    8  C13 UNL     1      20.616  -1.130  53.960  1.00  0.00     0.038 A 
HETATM    9  C14 UNL     1      21.649  -1.455  54.790  1.00  0.00     0.003 A 
HETATM   10  C15 UNL     1      22.916  -0.960  54.522  1.00  0.00     0.001 A 
HETATM   11  C16 UNL     1      23.120  -0.158  53.436  1.00  0.00     0.015 A 
HETATM   12  C17 UNL     1      22.109   0.178  52.595  1.00  0.00     0.015 A 
HETATM   13  C18 UNL     1      22.036   0.943  51.464  1.00  0.00     0.057 A 
ENDROOT
BRANCH   1  14
HETATM   14  N1  UNL     1      24.346   1.799  51.107  1.00  0.00    -0.389 N 
HETATM   15  H8  UNL     1      25.150   1.250  50.767  1.00  0.00     0.159 HD
BRANCH  14  16
HETATM   16  C7  UNL     1      24.964   2.770  51.977  1.00  0.00     0.121 C 
BRANCH  16  17
HETATM   17  C6  UNL     1      26.051   2.068  52.765  1.00  0.00     0.035 C 
BRANCH  17  18
HETATM   18  C5  UNL     1      26.354   0.733  52.348  1.00  0.00     0.006 A 
HETATM   19  C4  UNL     1      27.622   0.412  53.235  1.00  0.00     0.038 A 
HETATM   20  C19 UNL     1      26.896  -0.285  52.286  1.00  0.00    -0.060 A 
BRANCH  19  21
HETATM   21  C3  UNL     1      28.381  -0.975  53.169  1.00  0.00     0.033 A 
HETATM   22  C2  UNL     1      29.909  -1.202  53.602  1.00  0.00     0.033 A 
HETATM   23  C1  UNL     1      29.382  -0.185  53.660  1.00  0.00    -0.065 A 
ENDBRANCH  19  21
ENDBRANCH  17  18
ENDBRANCH  16  17
ENDBRANCH  14  16
ENDBRANCH   1  14
TORSDOF 6
ENDMDL
MODEL 6
REMARK VINA RESULT:      -7.8      2.365      6.740
REMARK  6 active torsions:
REMARK  status: ('A' for Active; 'I' for Inactive)
REMARK    1  A    between atoms: C1_1  and  C19_22 
REMARK    2  A    between atoms: C3_3  and  C4_4 
REMARK    3  A    between atoms: C5_5  and  C6_6 
REMARK    4  A    between atoms: C6_6  and  C7_7 
REMARK    5  A    between atoms: C7_7  and  N1_8 
REMARK    6  A    between atoms: N1_8  and  C8_9 
ROOT
HETATM    1  C8  UNL     1      25.780   0.273  53.826  1.00  0.00     0.045 A 
HETATM    2  C9  UNL     1      26.806  -0.077  54.653  1.00  0.00     0.049 A 
HETATM    3  C10 UNL     1      28.101   0.432  54.541  1.00  0.00     0.122 A 
HETATM    4  N2  UNL     1      28.381   1.332  53.557  1.00  0.00    -0.236 NA
HETATM    5  C11 UNL     1      27.394   1.701  52.723  1.00  0.00     0.183 A 
HETATM    6  O1  UNL     1      27.380   2.529  51.711  1.00  0.00    -0.290 OA
HETATM    7  C12 UNL     1      26.206   2.607  51.156  1.00  0.00     0.089 A 
HETATM    8  C13 UNL     1      25.748   3.336  50.090  1.00  0.00     0.038 A 
HETATM    9  C14 UNL     1      24.440   3.218  49.719  1.00  0.00     0.003 A 
HETATM   10  C15 UNL     1      23.609   2.366  50.427  1.00  0.00     0.001 A 
HETATM   11  C16 UNL     1      24.100   1.656  51.485  1.00  0.00     0.015 A 
HETATM   12  C17 UNL     1      25.396   1.756  51.873  1.00  0.00     0.015 A 
HETATM   13  C18 UNL     1      26.131   1.174  52.868  1.00  0.00     0.057 A 
ENDROOT
BRANCH   1  14
HETATM   14  N1  UNL     1      24.533  -0.295  54.086  1.00  0.00    -0.389 N 
HETATM   15  H8  UNL     1      23.682  -0.263  53.505  1.00  0.00     0.159 HD
BRANCH  14  16
HETATM   16  C7  UNL     1      24.115  -1.073  55.227  1.00  0.00     0.121 C 
BRANCH  16  17
HETATM   17  C6  UNL     1      22.643  -1.392  55.062  1.00  0.00     0.035 C 
BRANCH  17  18
HETATM   18  C5  UNL     1      21.851  -0.367  54.453  1.00  0.00     0.006 A 
HETATM   19  C4  UNL     1      20.581  -1.188  53.996  1.00  0.00     0.038 A 
HETATM   20  C19 UNL     1      20.967   0.138  53.908  1.00  0.00    -0.060 A 
BRANCH  19  21
HETATM   21  C3  UNL     1      19.357  -0.520  53.248  1.00  0.00     0.033 A 
HETATM   22  C2  UNL     1      17.923  -1.209  53.044  1.00  0.00     0.033 A 
HETATM   23  C1  UNL     1      18.794  -1.716  53.590  1.00  0.00    -0.065 A 
ENDBRANCH  19  21
ENDBRANCH  17  18
ENDBRANCH  16  17
ENDBRANCH  14  16
ENDBRANCH   1  14
TORSDOF 6
ENDMDL
MODEL 7
REMARK VINA RESULT:      -7.5      2.201      5.876
REMARK  6 active torsions:
REMARK  status: ('A' for Active; 'I' for Inactive)
REMARK    1  A    between atoms: C1_1  and  C19_22 
REMARK    2  A    between atoms: C3_3  and  C4_4 
REMARK    3  A    between atoms: C5_5  and  C6_6 
REMARK    4  A    between atoms: C6_6  and  C7_7 
REMARK    5  A    between atoms: C7_7  and  N1_8 
REMARK    6  A    between atoms: N1_8  and  C8_9 
ROOT
HETATM    1  C8  UNL     1      24.219   3.226  50.374  1.00  0.00     0.045 A 
HETATM    2  C9  UNL     1      24.557   4.252  49.544  1.00  0.00     0.049 A 
HETATM    3  C10 UNL     1      25.872   4.651  49.299  1.00  0.00     0.122 A 
HETATM    4  N2  UNL     1      26.895   3.992  49.914  1.00  0.00    -0.236 NA
HETATM    5  C11 UNL     1      26.598   2.974  50.739  1.00  0.00     0.183 A 
HETATM    6  O1  UNL     1      27.363   2.182  51.447  1.00  0.00    -0.290 OA
HETATM    7  C12 UNL     1      26.675   1.313  52.125  1.00  0.00     0.089 A 
HETATM    8  C13 UNL     1      27.059   0.313  52.981  1.00  0.00     0.038 A 
HETATM    9  C14 UNL     1      26.101  -0.464  53.566  1.00  0.00     0.003 A 
HETATM   10  C15 UNL     1      24.767  -0.225  53.280  1.00  0.00     0.001 A 
HETATM   11  C16 UNL     1      24.421   0.779  52.422  1.00  0.00     0.015 A 
HETATM   12  C17 UNL     1      25.355   1.566  51.828  1.00  0.00     0.015 A 
HETATM   13  C18 UNL     1      25.288   2.614  50.953  1.00  0.00     0.057 A 
ENDROOT
BRANCH   1  14
HETATM   14  N1  UNL     1      22.862   2.923  50.490  1.00  0.00    -0.389 N 
HETATM   15  H8  UNL     1      22.367   2.076  50.174  1.00  0.00     0.159 HD
BRANCH  14  16
HETATM   16  C7  UNL     1      21.808   3.711  51.081  1.00  0.00     0.121 C 
BRANCH  16  17
HETATM   17  C6  UNL     1      21.170   2.889  52.182  1.00  0.00     0.035 C 
BRANCH  17  18
HETATM   18  C5  UNL     1      20.896   1.523  51.856  1.00  0.00     0.006 A 
HETATM   19  C4  UNL     1      21.009   0.838  53.275  1.00  0.00     0.038 A 
HETATM   20  C19 UNL     1      20.733   0.389  51.996  1.00  0.00    -0.060 A 
BRANCH  19  21
HETATM   21  C3  UNL     1      20.790  -0.714  53.493  1.00  0.00     0.033 A 
HETATM   22  C2  UNL     1      21.343  -1.548  54.746  1.00  0.00     0.033 A 
HETATM   23  C1  UNL     1      21.516  -0.423  54.613  1.00  0.00    -0.065 A 
ENDBRANCH  19  21
ENDBRANCH  17  18
ENDBRANCH  16  17
ENDBRANCH  14  16
ENDBRANCH   1  14
TORSDOF 6
ENDMDL
MODEL 8
REMARK VINA RESULT:      -7.4      2.418      5.452
REMARK  6 active torsions:
REMARK  status: ('A' for Active; 'I' for Inactive)
REMARK    1  A    between atoms: C1_1  and  C19_22 
REMARK    2  A    between atoms: C3_3  and  C4_4 
REMARK    3  A    between atoms: C5_5  and  C6_6 
REMARK    4  A    between atoms: C6_6  and  C7_7 
REMARK    5  A    between atoms: C7_7  and  N1_8 
REMARK    6  A    between atoms: N1_8  and  C8_9 
ROOT
HETATM    1  C8  UNL     1      24.841   1.858  51.762  1.00  0.00     0.045 A 
HETATM    2  C9  UNL     1      26.167   1.879  51.451  1.00  0.00     0.049 A 
HETATM    3  C10 UNL     1      27.101   0.983  51.972  1.00  0.00     0.122 A 
HETATM    4  N2  UNL     1      26.687   0.021  52.845  1.00  0.00    -0.236 NA
HETATM    5  C11 UNL     1      25.385  -0.030  53.175  1.00  0.00     0.183 A 
HETATM    6  O1  UNL     1      24.724  -0.831  53.971  1.00  0.00    -0.290 OA
HETATM    7  C12 UNL     1      23.458  -0.541  54.018  1.00  0.00     0.089 A 
HETATM    8  C13 UNL     1      22.418  -1.107  54.709  1.00  0.00     0.038 A 
HETATM    9  C14 UNL     1      21.165  -0.586  54.565  1.00  0.00     0.003 A 
HETATM   10  C15 UNL     1      20.974   0.500  53.726  1.00  0.00     0.001 A 
HETATM   11  C16 UNL     1      22.034   1.038  53.053  1.00  0.00     0.015 A 
HETATM   12  C17 UNL     1      23.289   0.537  53.179  1.00  0.00     0.015 A 
HETATM   13  C18 UNL     1      24.499   0.874  52.637  1.00  0.00     0.057 A 
ENDROOT
BRANCH   1  14
HETATM   14  N1  UNL     1      24.025   2.799  51.132  1.00  0.00    -0.389 N 
HETATM   15  H8  UNL     1      23.248   3.343  51.534  1.00  0.00     0.159 HD
BRANCH  14  16
HETATM   16  C7  UNL     1      24.062   3.253  49.763  1.00  0.00     0.121 C 
BRANCH  16  17
HETATM   17  C6  UNL     1      22.684   3.057  49.167  1.00  0.00     0.035 C 
BRANCH  17  18
HETATM   18  C5  UNL     1      22.159   1.727  49.244  1.00  0.00     0.006 A 
HETATM   19  C4  UNL     1      20.718   1.997  49.834  1.00  0.00     0.038 A 
HETATM   20  C19 UNL     1      21.417   0.867  49.450  1.00  0.00    -0.060 A 
BRANCH  19  21
HETATM   21  C3  UNL     1      19.684   0.835  50.126  1.00  0.00     0.033 A 
HETATM   22  C2  UNL     1      18.332   1.006  50.970  1.00  0.00     0.033 A 
HETATM   23  C1  UNL     1      19.064   1.865  50.773  1.00  0.00    -0.065 A 
ENDBRANCH  19  21
ENDBRANCH  17  18
ENDBRANCH  16  17
ENDBRANCH  14  16
ENDBRANCH   1  14
TORSDOF 6
ENDMDL
MODEL 9
REMARK VINA RESULT:      -7.1      2.340      4.090
REMARK  6 active torsions:
REMARK  status: ('A' for Active; 'I' for Inactive)
REMARK    1  A    between atoms: C1_1  and  C19_22 
REMARK    2  A    between atoms: C3_3  and  C4_4 
REMARK    3  A    between atoms: C5_5  and  C6_6 
REMARK    4  A    between atoms: C6_6  and  C7_7 
REMARK    5  A    between atoms: C7_7  and  N1_8 
REMARK    6  A    between atoms: N1_8  and  C8_9 
ROOT
HETATM    1  C8  UNL     1      22.428   0.581  52.909  1.00  0.00     0.045 A 
HETATM    2  C9  UNL     1      22.188  -0.330  53.894  1.00  0.00     0.049 A 
HETATM    3  C10 UNL     1      23.193  -0.991  54.602  1.00  0.00     0.122 A 
HETATM    4  N2  UNL     1      24.498  -0.726  54.312  1.00  0.00    -0.236 NA
HETATM    5  C11 UNL     1      24.773   0.168  53.347  1.00  0.00     0.183 A 
HETATM    6  O1  UNL     1      25.910   0.606  52.871  1.00  0.00    -0.290 OA
HETATM    7  C12 UNL     1      25.741   1.483  51.926  1.00  0.00     0.089 A 
HETATM    8  C13 UNL     1      26.638   2.186  51.163  1.00  0.00     0.038 A 
HETATM    9  C14 UNL     1      26.169   3.057  50.223  1.00  0.00     0.003 A 
HETATM   10  C15 UNL     1      24.801   3.210  50.062  1.00  0.00     0.001 A 
HETATM   11  C16 UNL     1      23.938   2.493  50.840  1.00  0.00     0.015 A 
HETATM   12  C17 UNL     1      24.379   1.621  51.781  1.00  0.00     0.015 A 
HETATM   13  C18 UNL     1      23.751   0.796  52.673  1.00  0.00     0.057 A 
ENDROOT
BRANCH   1  14
HETATM   14  N1  UNL     1      21.318   1.184  52.317  1.00  0.00    -0.389 N 
HETATM   15  H8  UNL     1      21.178   2.179  52.085  1.00  0.00     0.159 HD
BRANCH  14  16
HETATM   16  C7  UNL     1      20.088   0.573  51.873  1.00  0.00     0.121 C 
BRANCH  16  17
HETATM   17  C6  UNL     1      19.805   1.060  50.467  1.00  0.00     0.035 C 
BRANCH  17  18
HETATM   18  C5  UNL     1      20.861   0.869  49.520  1.00  0.00     0.006 A 
HETATM   19  C4  UNL     1      20.916   2.289  48.829  1.00  0.00     0.038 A 
HETATM   20  C19 UNL     1      21.615   1.105  48.678  1.00  0.00    -0.060 A 
BRANCH  19  21
HETATM   21  C3  UNL     1      21.940   2.636  47.673  1.00  0.00     0.033 A 
HETATM   22  C2  UNL     1      22.277   4.119  47.165  1.00  0.00     0.033 A 
HETATM   23  C1  UNL     1      21.530   3.896  48.006  1.00  0.00    -0.065 A 
ENDBRANCH  19  21
ENDBRANCH  17  18
ENDBRANCH  16  17
ENDBRANCH  14  16
ENDBRANCH   1  14
TORSDOF 6
ENDMDL
