MODEL 1
REMARK VINA RESULT:      -8.4      0.000      0.000
REMARK  1 active torsions:
REMARK  status: ('A' for Active; 'I' for Inactive)
REMARK    1  A    between atoms: C17_20  and  O2_21 
ROOT
HETATM    1  C1  UNL     1      20.192  -1.212  53.456  1.00  0.00     0.036 C 
HETATM    2  C2  UNL     1      20.202   0.002  52.621  1.00  0.00    -0.019 C 
HETATM    3  C3  UNL     1      21.256   0.805  52.424  1.00  0.00    -0.001 C 
HETATM    4  C4  UNL     1      22.603   0.698  52.954  1.00  0.00    -0.000 C 
HETATM    5  C5  UNL     1      23.295  -0.325  53.423  1.00  0.00     0.007 C 
HETATM    6  C6  UNL     1      24.613  -0.539  53.953  1.00  0.00     0.147 C 
HETATM    7  N1  UNL     1      25.507   0.594  53.947  1.00  0.00    -0.395 N 
HETATM    8  C7  UNL     1      25.764   0.890  52.551  1.00  0.00     0.088 C 
HETATM    9  C8  UNL     1      25.858   1.780  51.538  1.00  0.00    -0.041 C 
HETATM   10  C9  UNL     1      26.116   2.084  50.120  1.00  0.00     0.049 C 
HETATM   11  C10 UNL     1      24.761   2.728  49.800  1.00  0.00    -0.014 C 
HETATM   12  C11 UNL     1      23.619   2.869  49.095  1.00  0.00     0.027 C 
HETATM   13  C12 UNL     1      22.619   2.633  48.084  1.00  0.00    -0.007 C 
HETATM   14  C13 UNL     1      21.664   1.708  48.052  1.00  0.00    -0.006 C 
HETATM   15  C14 UNL     1      21.201   1.289  49.236  1.00  0.00     0.149 C 
HETATM   16  O1  UNL     1      21.868   1.701  50.360  1.00  0.00    -0.333 OA
HETATM   17  C15 UNL     1      21.260   2.029  51.596  1.00  0.00     0.264 C 
HETATM   18  N2  UNL     1      22.108   2.890  52.364  1.00  0.00    -0.346 N 
HETATM   19  C16 UNL     1      21.810   4.284  52.314  1.00  0.00     0.158 C 
HETATM   20  C17 UNL     1      22.492   4.961  51.144  1.00  0.00     0.139 C 
HETATM   21  C19 UNL     1      23.926   4.889  50.956  1.00  0.00     0.041 C 
HETATM   22  C20 UNL     1      24.841   3.825  50.776  1.00  0.00     0.025 C 
HETATM   23  C21 UNL     1      25.669   3.243  51.882  1.00  0.00     0.116 C 
HETATM   24  N3  UNL     1      25.275   3.408  53.245  1.00  0.00    -0.388 N 
HETATM   25  C22 UNL     1      24.013   2.888  53.022  1.00  0.00     0.114 C 
HETATM   26  C23 UNL     1      23.106   2.006  52.916  1.00  0.00     0.058 C 
HETATM   27  H8  UNL     1      26.145   1.399  54.130  1.00  0.00     0.159 HD
HETATM   28  H26 UNL     1      25.875   3.796  54.033  1.00  0.00     0.159 HD
ENDROOT
BRANCH  20  29
HETATM   29  O2  UNL     1      22.058   6.340  51.197  1.00  0.00    -0.389 OA
HETATM   30  C18 UNL     1      23.050   7.190  50.798  1.00  0.00     0.202 C 
ENDBRANCH  20  29
TORSDOF 1
ENDMDL
MODEL 2
REMARK VINA RESULT:      -8.1     10.418     12.639
REMARK  1 active torsions:
REMARK  status: ('A' for Active; 'I' for Inactive)
REMARK    1  A    between atoms: C17_20  and  O2_21 
ROOT
HETATM    1  C1  UNL     1      33.520   4.364  42.019  1.00  0.00     0.036 C 
HETATM    2  C2  UNL     1      33.034   5.587  42.682  1.00  0.00    -0.019 C 
HETATM    3  C3  UNL     1      33.069   5.827  43.999  1.00  0.00    -0.001 C 
HETATM    4  C4  UNL     1      33.571   4.988  45.072  1.00  0.00    -0.000 C 
HETATM    5  C5  UNL     1      34.441   3.994  45.090  1.00  0.00     0.007 C 
HETATM    6  C6  UNL     1      35.007   3.120  46.078  1.00  0.00     0.147 C 
HETATM    7  N1  UNL     1      34.632   3.363  47.451  1.00  0.00    -0.395 N 
HETATM    8  C7  UNL     1      35.200   4.651  47.797  1.00  0.00     0.088 C 
HETATM    9  C8  UNL     1      35.076   5.880  48.345  1.00  0.00    -0.041 C 
HETATM   10  C9  UNL     1      35.649   7.191  48.694  1.00  0.00     0.049 C 
HETATM   11  C10 UNL     1      34.653   8.063  47.919  1.00  0.00    -0.014 C 
HETATM   12  C11 UNL     1      34.311   9.019  47.031  1.00  0.00     0.027 C 
HETATM   13  C12 UNL     1      34.457  10.061  46.044  1.00  0.00    -0.007 C 
HETATM   14  C13 UNL     1      34.668   9.950  44.736  1.00  0.00    -0.006 C 
HETATM   15  C14 UNL     1      34.185   8.848  44.146  1.00  0.00     0.149 C 
HETATM   16  O1  UNL     1      33.691   7.860  44.957  1.00  0.00    -0.333 OA
HETATM   17  C15 UNL     1      32.569   7.049  44.663  1.00  0.00     0.264 C 
HETATM   18  N2  UNL     1      32.006   6.511  45.864  1.00  0.00    -0.346 N 
HETATM   19  C16 UNL     1      30.865   7.188  46.390  1.00  0.00     0.158 C 
HETATM   20  C17 UNL     1      31.262   8.327  47.305  1.00  0.00     0.139 C 
HETATM   21  C19 UNL     1      32.120   8.115  48.452  1.00  0.00     0.041 C 
HETATM   22  C20 UNL     1      33.436   7.623  48.618  1.00  0.00     0.025 C 
HETATM   23  C21 UNL     1      33.754   6.211  49.009  1.00  0.00     0.116 C 
HETATM   24  N3  UNL     1      32.797   5.170  48.805  1.00  0.00    -0.388 N 
HETATM   25  C22 UNL     1      32.650   5.465  47.462  1.00  0.00     0.114 C 
HETATM   26  C23 UNL     1      32.889   5.425  46.216  1.00  0.00     0.058 C 
HETATM   27  H8  UNL     1      34.279   3.370  48.433  1.00  0.00     0.159 HD
HETATM   28  H26 UNL     1      32.445   4.485  49.539  1.00  0.00     0.159 HD
ENDROOT
BRANCH  20  29
HETATM   29  O2  UNL     1      30.017   8.940  47.712  1.00  0.00    -0.389 OA
HETATM   30  C18 UNL     1      30.037   9.278  49.035  1.00  0.00     0.202 C 
ENDBRANCH  20  29
TORSDOF 1
ENDMDL
MODEL 3
REMARK VINA RESULT:      -7.9      2.330      5.075
REMARK  1 active torsions:
REMARK  status: ('A' for Active; 'I' for Inactive)
REMARK    1  A    between atoms: C17_20  and  O2_21 
ROOT
HETATM    1  C1  UNL     1      24.596   0.064  53.299  1.00  0.00     0.036 C 
HETATM    2  C2  UNL     1      24.492   1.057  52.217  1.00  0.00    -0.019 C 
HETATM    3  C3  UNL     1      23.367   1.394  51.571  1.00  0.00    -0.001 C 
HETATM    4  C4  UNL     1      22.017   0.894  51.758  1.00  0.00    -0.000 C 
HETATM    5  C5  UNL     1      21.419   0.310  52.781  1.00  0.00     0.007 C 
HETATM    6  C6  UNL     1      20.111  -0.206  53.071  1.00  0.00     0.147 C 
HETATM    7  N1  UNL     1      19.100  -0.018  52.057  1.00  0.00    -0.395 N 
HETATM    8  C7  UNL     1      18.875   1.413  51.980  1.00  0.00     0.088 C 
HETATM    9  C8  UNL     1      18.731   2.540  51.250  1.00  0.00    -0.041 C 
HETATM   10  C9  UNL     1      18.505   3.994  51.169  1.00  0.00     0.049 C 
HETATM   11  C10 UNL     1      19.795   4.360  50.424  1.00  0.00    -0.014 C 
HETATM   12  C11 UNL     1      20.946   5.043  50.250  1.00  0.00     0.027 C 
HETATM   13  C12 UNL     1      22.010   5.982  50.504  1.00  0.00    -0.007 C 
HETATM   14  C13 UNL     1      23.059   5.859  51.311  1.00  0.00    -0.006 C 
HETATM   15  C14 UNL     1      23.512   4.614  51.513  1.00  0.00     0.149 C 
HETATM   16  O1  UNL     1      22.755   3.578  51.033  1.00  0.00    -0.333 OA
HETATM   17  C15 UNL     1      23.268   2.382  50.477  1.00  0.00     0.264 C 
HETATM   18  N2  UNL     1      22.298   1.765  49.623  1.00  0.00    -0.346 N 
HETATM   19  C16 UNL     1      22.445   1.997  48.223  1.00  0.00     0.158 C 
HETATM   20  C17 UNL     1      21.748   3.268  47.789  1.00  0.00     0.139 C 
HETATM   21  C19 UNL     1      20.340   3.488  48.047  1.00  0.00     0.041 C 
HETATM   22  C20 UNL     1      19.554   3.546  49.223  1.00  0.00     0.025 C 
HETATM   23  C21 UNL     1      18.745   2.395  49.742  1.00  0.00     0.116 C 
HETATM   24  N3  UNL     1      19.058   1.057  49.353  1.00  0.00    -0.388 N 
HETATM   25  C22 UNL     1      20.377   1.169  49.753  1.00  0.00     0.114 C 
HETATM   26  C23 UNL     1      21.378   1.126  50.533  1.00  0.00     0.058 C 
HETATM   27  H8  UNL     1      18.372  -0.069  51.312  1.00  0.00     0.159 HD
HETATM   28  H26 UNL     1      18.385   0.349  48.934  1.00  0.00     0.159 HD
ENDROOT
BRANCH  20  29
HETATM   29  O2  UNL     1      22.027   3.393  46.375  1.00  0.00    -0.389 OA
HETATM   30  C18 UNL     1      20.998   4.003  45.716  1.00  0.00     0.202 C 
ENDBRANCH  20  29
TORSDOF 1
ENDMDL
MODEL 4
REMARK VINA RESULT:      -7.9      8.774     10.766
REMARK  1 active torsions:
REMARK  status: ('A' for Active; 'I' for Inactive)
REMARK    1  A    between atoms: C17_20  and  O2_21 
ROOT
HETATM    1  C1  UNL     1      27.702   4.786  48.614  1.00  0.00     0.036 C 
HETATM    2  C2  UNL     1      27.869   6.221  48.328  1.00  0.00    -0.019 C 
HETATM    3  C3  UNL     1      29.034   6.841  48.096  1.00  0.00    -0.001 C 
HETATM    4  C4  UNL     1      30.376   6.288  48.064  1.00  0.00    -0.000 C 
HETATM    5  C5  UNL     1      30.829   5.063  47.866  1.00  0.00     0.007 C 
HETATM    6  C6  UNL     1      32.112   4.421  47.805  1.00  0.00     0.147 C 
HETATM    7  N1  UNL     1      33.271   5.275  47.912  1.00  0.00    -0.395 N 
HETATM    8  C7  UNL     1      33.267   6.103  46.721  1.00  0.00     0.088 C 
HETATM    9  C8  UNL     1      33.376   7.315  46.135  1.00  0.00    -0.041 C 
HETATM   10  C9  UNL     1      33.369   8.160  44.927  1.00  0.00     0.049 C 
HETATM   11  C10 UNL     1      32.226   9.096  45.339  1.00  0.00    -0.014 C 
HETATM   12  C11 UNL     1      31.043   9.720  45.163  1.00  0.00     0.027 C 
HETATM   13  C12 UNL     1      29.808  10.120  44.534  1.00  0.00    -0.007 C 
HETATM   14  C13 UNL     1      28.645   9.477  44.491  1.00  0.00    -0.006 C 
HETATM   15  C14 UNL     1      28.373   8.668  45.522  1.00  0.00     0.149 C 
HETATM   16  O1  UNL     1      29.377   8.430  46.425  1.00  0.00    -0.333 OA
HETATM   17  C15 UNL     1      29.201   8.283  47.821  1.00  0.00     0.264 C 
HETATM   18  N2  UNL     1      30.419   8.567  48.517  1.00  0.00    -0.346 N 
HETATM   19  C16 UNL     1      30.540   9.871  49.082  1.00  0.00     0.158 C 
HETATM   20  C17 UNL     1      31.093  10.865  48.084  1.00  0.00     0.139 C 
HETATM   21  C19 UNL     1      32.357  10.643  47.412  1.00  0.00     0.041 C 
HETATM   22  C20 UNL     1      32.851   9.627  46.560  1.00  0.00     0.025 C 
HETATM   23  C21 UNL     1      33.709   8.491  47.031  1.00  0.00     0.116 C 
HETATM   24  N3  UNL     1      33.714   8.109  48.407  1.00  0.00    -0.388 N 
HETATM   25  C22 UNL     1      32.340   7.958  48.447  1.00  0.00     0.114 C 
HETATM   26  C23 UNL     1      31.216   7.376  48.339  1.00  0.00     0.058 C 
HETATM   27  H8  UNL     1      34.141   5.801  48.151  1.00  0.00     0.159 HD
HETATM   28  H26 UNL     1      34.570   8.008  49.030  1.00  0.00     0.159 HD
ENDROOT
BRANCH  20  29
HETATM   29  O2  UNL     1      31.107  12.135  48.778  1.00  0.00    -0.389 OA
HETATM   30  C18 UNL     1      29.844  12.631  48.935  1.00  0.00     0.202 C 
ENDBRANCH  20  29
TORSDOF 1
ENDMDL
MODEL 5
REMARK VINA RESULT:      -7.8      9.575     12.508
REMARK  1 active torsions:
REMARK  status: ('A' for Active; 'I' for Inactive)
REMARK    1  A    between atoms: C17_20  and  O2_21 
ROOT
HETATM    1  C1  UNL     1      32.813  11.738  44.825  1.00  0.00     0.036 C 
HETATM    2  C2  UNL     1      33.509  10.465  45.083  1.00  0.00    -0.019 C 
HETATM    3  C3  UNL     1      33.151   9.552  45.995  1.00  0.00    -0.001 C 
HETATM    4  C4  UNL     1      32.037   9.571  46.925  1.00  0.00    -0.000 C 
HETATM    5  C5  UNL     1      30.885  10.218  46.919  1.00  0.00     0.007 C 
HETATM    6  C6  UNL     1      29.729  10.301  47.767  1.00  0.00     0.147 C 
HETATM    7  N1  UNL     1      29.705   9.430  48.919  1.00  0.00    -0.395 N 
HETATM    8  C7  UNL     1      29.626   8.080  48.395  1.00  0.00     0.088 C 
HETATM    9  C8  UNL     1      30.051   6.798  48.387  1.00  0.00    -0.041 C 
HETATM   10  C9  UNL     1      29.975   5.426  47.855  1.00  0.00     0.049 C 
HETATM   11  C10 UNL     1      31.429   5.311  47.381  1.00  0.00    -0.014 C 
HETATM   12  C11 UNL     1      32.394   5.065  46.470  1.00  0.00     0.027 C 
HETATM   13  C12 UNL     1      33.006   4.714  45.213  1.00  0.00    -0.007 C 
HETATM   14  C13 UNL     1      33.203   5.472  44.138  1.00  0.00    -0.006 C 
HETATM   15  C14 UNL     1      33.364   6.784  44.355  1.00  0.00     0.149 C 
HETATM   16  O1  UNL     1      33.128   7.250  45.622  1.00  0.00    -0.333 OA
HETATM   17  C15 UNL     1      33.857   8.281  46.260  1.00  0.00     0.264 C 
HETATM   18  N2  UNL     1      33.735   8.180  47.683  1.00  0.00    -0.346 N 
HETATM   19  C16 UNL     1      34.815   7.549  48.371  1.00  0.00     0.158 C 
HETATM   20  C17 UNL     1      34.638   6.047  48.432  1.00  0.00     0.139 C 
HETATM   21  C19 UNL     1      33.448   5.445  48.997  1.00  0.00     0.041 C 
HETATM   22  C20 UNL     1      32.069   5.519  48.689  1.00  0.00     0.025 C 
HETATM   23  C21 UNL     1      31.102   6.411  49.408  1.00  0.00     0.116 C 
HETATM   24  N3  UNL     1      31.568   7.552  50.130  1.00  0.00    -0.388 N 
HETATM   25  C22 UNL     1      32.246   8.060  49.037  1.00  0.00     0.114 C 
HETATM   26  C23 UNL     1      32.428   8.721  47.968  1.00  0.00     0.058 C 
HETATM   27  H8  UNL     1      29.694   8.960  49.850  1.00  0.00     0.159 HD
HETATM   28  H26 UNL     1      31.357   7.784  51.146  1.00  0.00     0.159 HD
ENDROOT
BRANCH  20  29
HETATM   29  O2  UNL     1      35.821   5.552  49.103  1.00  0.00    -0.389 OA
HETATM   30  C18 UNL     1      36.716   6.556  49.340  1.00  0.00     0.202 C 
ENDBRANCH  20  29
TORSDOF 1
ENDMDL
MODEL 6
REMARK VINA RESULT:      -7.8      3.109      4.657
REMARK  1 active torsions:
REMARK  status: ('A' for Active; 'I' for Inactive)
REMARK    1  A    between atoms: C17_20  and  O2_21 
ROOT
HETATM    1  C1  UNL     1      21.593   1.213  48.877  1.00  0.00     0.036 C 
HETATM    2  C2  UNL     1      21.257   2.601  48.514  1.00  0.00    -0.019 C 
HETATM    3  C3  UNL     1      21.996   3.682  48.794  1.00  0.00    -0.001 C 
HETATM    4  C4  UNL     1      23.264   3.770  49.495  1.00  0.00    -0.000 C 
HETATM    5  C5  UNL     1      24.223   2.888  49.713  1.00  0.00     0.007 C 
HETATM    6  C6  UNL     1      25.499   2.873  50.372  1.00  0.00     0.147 C 
HETATM    7  N1  UNL     1      25.966   4.128  50.910  1.00  0.00    -0.395 N 
HETATM    8  C7  UNL     1      26.203   4.988  49.766  1.00  0.00     0.088 C 
HETATM    9  C8  UNL     1      26.065   6.180  49.145  1.00  0.00    -0.041 C 
HETATM   10  C9  UNL     1      26.301   7.054  47.984  1.00  0.00     0.049 C 
HETATM   11  C10 UNL     1      24.834   7.359  47.655  1.00  0.00    -0.014 C 
HETATM   12  C11 UNL     1      23.760   7.424  46.842  1.00  0.00     0.027 C 
HETATM   13  C12 UNL     1      22.964   7.313  45.645  1.00  0.00    -0.007 C 
HETATM   14  C13 UNL     1      22.373   6.238  45.131  1.00  0.00    -0.006 C 
HETATM   15  C14 UNL     1      21.996   5.292  46.000  1.00  0.00     0.149 C 
HETATM   16  O1  UNL     1      22.413   5.422  47.299  1.00  0.00    -0.333 OA
HETATM   17  C15 UNL     1      21.650   5.075  48.440  1.00  0.00     0.264 C 
HETATM   18  N2  UNL     1      22.112   5.785  49.593  1.00  0.00    -0.346 N 
HETATM   19  C16 UNL     1      21.374   6.950  49.960  1.00  0.00     0.158 C 
HETATM   20  C17 UNL     1      21.870   8.180  49.231  1.00  0.00     0.139 C 
HETATM   21  C19 UNL     1      23.256   8.594  49.295  1.00  0.00     0.041 C 
HETATM   22  C20 UNL     1      24.482   7.982  48.940  1.00  0.00     0.025 C 
HETATM   23  C21 UNL     1      25.380   7.287  49.919  1.00  0.00     0.116 C 
HETATM   24  N3  UNL     1      24.863   6.809  51.162  1.00  0.00    -0.388 N 
HETATM   25  C22 UNL     1      23.863   6.076  50.550  1.00  0.00     0.114 C 
HETATM   26  C23 UNL     1      23.308   5.081  49.990  1.00  0.00     0.058 C 
HETATM   27  H8  UNL     1      26.288   4.951  51.466  1.00  0.00     0.159 HD
HETATM   28  H26 UNL     1      25.248   7.025  52.129  1.00  0.00     0.159 HD
ENDROOT
BRANCH  20  29
HETATM   29  O2  UNL     1      21.001   9.254  49.662  1.00  0.00    -0.389 OA
HETATM   30  C18 UNL     1      19.691   8.870  49.651  1.00  0.00     0.202 C 
ENDBRANCH  20  29
TORSDOF 1
ENDMDL
MODEL 7
REMARK VINA RESULT:      -7.7      2.556      5.658
REMARK  1 active torsions:
REMARK  status: ('A' for Active; 'I' for Inactive)
REMARK    1  A    between atoms: C17_20  and  O2_21 
ROOT
HETATM    1  C1  UNL     1      19.867   8.855  49.994  1.00  0.00     0.036 C 
HETATM    2  C2  UNL     1      21.098   8.197  50.466  1.00  0.00    -0.019 C 
HETATM    3  C3  UNL     1      21.324   6.877  50.473  1.00  0.00    -0.001 C 
HETATM    4  C4  UNL     1      20.459   5.796  50.038  1.00  0.00    -0.000 C 
HETATM    5  C5  UNL     1      19.438   5.756  49.201  1.00  0.00     0.007 C 
HETATM    6  C6  UNL     1      18.536   4.757  48.700  1.00  0.00     0.147 C 
HETATM    7  N1  UNL     1      18.778   3.396  49.119  1.00  0.00    -0.395 N 
HETATM    8  C7  UNL     1      20.045   3.016  48.523  1.00  0.00     0.088 C 
HETATM    9  C8  UNL     1      21.271   2.459  48.630  1.00  0.00    -0.041 C 
HETATM   10  C9  UNL     1      22.560   2.075  48.029  1.00  0.00     0.049 C 
HETATM   11  C10 UNL     1      23.470   2.878  48.967  1.00  0.00    -0.014 C 
HETATM   12  C11 UNL     1      24.446   3.767  49.246  1.00  0.00     0.027 C 
HETATM   13  C12 UNL     1      25.491   4.737  49.029  1.00  0.00    -0.007 C 
HETATM   14  C13 UNL     1      25.386   6.037  48.773  1.00  0.00    -0.006 C 
HETATM   15  C14 UNL     1      24.307   6.656  49.268  1.00  0.00     0.149 C 
HETATM   16  O1  UNL     1      23.327   5.875  49.824  1.00  0.00    -0.333 OA
HETATM   17  C15 UNL     1      22.555   6.219  50.959  1.00  0.00     0.264 C 
HETATM   18  N2  UNL     1      22.024   5.046  51.583  1.00  0.00    -0.346 N 
HETATM   19  C16 UNL     1      22.732   4.555  52.721  1.00  0.00     0.158 C 
HETATM   20  C17 UNL     1      23.848   3.614  52.323  1.00  0.00     0.139 C 
HETATM   21  C19 UNL     1      23.598   2.438  51.516  1.00  0.00     0.041 C 
HETATM   22  C20 UNL     1      23.063   2.229  50.223  1.00  0.00     0.025 C 
HETATM   23  C21 UNL     1      21.638   1.842  49.964  1.00  0.00     0.116 C 
HETATM   24  N3  UNL     1      20.630   2.092  50.945  1.00  0.00    -0.388 N 
HETATM   25  C22 UNL     1      20.942   3.436  51.033  1.00  0.00     0.114 C 
HETATM   26  C23 UNL     1      20.907   4.673  50.749  1.00  0.00     0.058 C 
HETATM   27  H8  UNL     1      18.787   2.428  49.508  1.00  0.00     0.159 HD
HETATM   28  H26 UNL     1      19.950   1.380  51.346  1.00  0.00     0.159 HD
ENDROOT
BRANCH  20  29
HETATM   29  O2  UNL     1      24.497   3.247  53.563  1.00  0.00    -0.389 OA
HETATM   30  C18 UNL     1      25.306   2.159  53.398  1.00  0.00     0.202 C 
ENDBRANCH  20  29
TORSDOF 1
ENDMDL
MODEL 8
REMARK VINA RESULT:      -7.6      2.238      5.368
REMARK  1 active torsions:
REMARK  status: ('A' for Active; 'I' for Inactive)
REMARK    1  A    between atoms: C17_20  and  O2_21 
ROOT
HETATM    1  C1  UNL     1      28.043   5.124  48.724  1.00  0.00     0.036 C 
HETATM    2  C2  UNL     1      26.664   5.566  48.450  1.00  0.00    -0.019 C 
HETATM    3  C3  UNL     1      25.551   4.984  48.914  1.00  0.00    -0.001 C 
HETATM    4  C4  UNL     1      25.413   3.820  49.770  1.00  0.00    -0.000 C 
HETATM    5  C5  UNL     1      26.237   3.243  50.626  1.00  0.00     0.007 C 
HETATM    6  C6  UNL     1      26.199   2.116  51.515  1.00  0.00     0.147 C 
HETATM    7  N1  UNL     1      24.944   1.408  51.612  1.00  0.00    -0.395 N 
HETATM    8  C7  UNL     1      24.011   2.334  52.223  1.00  0.00     0.088 C 
HETATM    9  C8  UNL     1      22.800   2.933  52.251  1.00  0.00    -0.041 C 
HETATM   10  C9  UNL     1      21.850   3.875  52.869  1.00  0.00     0.049 C 
HETATM   11  C10 UNL     1      21.631   4.774  51.646  1.00  0.00    -0.014 C 
HETATM   12  C11 UNL     1      21.597   5.958  50.998  1.00  0.00     0.027 C 
HETATM   13  C12 UNL     1      21.700   7.379  50.777  1.00  0.00    -0.007 C 
HETATM   14  C13 UNL     1      22.784   8.113  50.542  1.00  0.00    -0.006 C 
HETATM   15  C14 UNL     1      23.799   7.495  49.924  1.00  0.00     0.149 C 
HETATM   16  O1  UNL     1      23.709   6.138  49.758  1.00  0.00    -0.333 OA
HETATM   17  C15 UNL     1      24.169   5.422  48.627  1.00  0.00     0.264 C 
HETATM   18  N2  UNL     1      23.490   4.167  48.513  1.00  0.00    -0.346 N 
HETATM   19  C16 UNL     1      22.400   4.115  47.593  1.00  0.00     0.158 C 
HETATM   20  C17 UNL     1      21.102   4.550  48.238  1.00  0.00     0.139 C 
HETATM   21  C19 UNL     1      20.597   3.910  49.435  1.00  0.00     0.041 C 
HETATM   22  C20 UNL     1      21.103   3.739  50.745  1.00  0.00     0.025 C 
HETATM   23  C21 UNL     1      21.785   2.490  51.217  1.00  0.00     0.116 C 
HETATM   24  N3  UNL     1      22.363   1.581  50.279  1.00  0.00    -0.388 N 
HETATM   25  C22 UNL     1      23.130   2.566  49.684  1.00  0.00     0.114 C 
HETATM   26  C23 UNL     1      24.130   3.325  49.495  1.00  0.00     0.058 C 
HETATM   27  H8  UNL     1      24.132   0.753  51.605  1.00  0.00     0.159 HD
HETATM   28  H26 UNL     1      22.172   0.537  50.212  1.00  0.00     0.159 HD
ENDROOT
BRANCH  20  29
HETATM   29  O2  UNL     1      20.115   4.495  47.181  1.00  0.00    -0.389 OA
HETATM   30  C18 UNL     1      19.640   3.226  47.008  1.00  0.00     0.202 C 
ENDBRANCH  20  29
TORSDOF 1
ENDMDL
MODEL 9
REMARK VINA RESULT:      -7.5      1.970      2.825
REMARK  1 active torsions:
REMARK  status: ('A' for Active; 'I' for Inactive)
REMARK    1  A    between atoms: C17_20  and  O2_21 
ROOT
HETATM    1  C1  UNL     1      20.341   0.219  51.543  1.00  0.00     0.036 C 
HETATM    2  C2  UNL     1      20.115   1.444  50.757  1.00  0.00    -0.019 C 
HETATM    3  C3  UNL     1      20.935   2.502  50.706  1.00  0.00    -0.001 C 
HETATM    4  C4  UNL     1      22.204   2.712  51.379  1.00  0.00    -0.000 C 
HETATM    5  C5  UNL     1      23.091   1.874  51.886  1.00  0.00     0.007 C 
HETATM    6  C6  UNL     1      24.359   1.973  52.551  1.00  0.00     0.147 C 
HETATM    7  N1  UNL     1      24.922   3.296  52.684  1.00  0.00    -0.395 N 
HETATM    8  C7  UNL     1      25.228   3.735  51.336  1.00  0.00     0.088 C 
HETATM    9  C8  UNL     1      25.185   4.680  50.372  1.00  0.00    -0.041 C 
HETATM   10  C9  UNL     1      25.492   5.128  49.002  1.00  0.00     0.049 C 
HETATM   11  C10 UNL     1      24.054   5.421  48.556  1.00  0.00    -0.014 C 
HETATM   12  C11 UNL     1      22.990   5.307  47.734  1.00  0.00     0.027 C 
HETATM   13  C12 UNL     1      22.191   4.885  46.610  1.00  0.00    -0.007 C 
HETATM   14  C13 UNL     1      21.520   3.750  46.440  1.00  0.00    -0.006 C 
HETATM   15  C14 UNL     1      21.069   3.153  47.551  1.00  0.00     0.149 C 
HETATM   16  O1  UNL     1      21.490   3.652  48.755  1.00  0.00    -0.333 OA
HETATM   17  C15 UNL     1      20.700   3.735  49.926  1.00  0.00     0.264 C 
HETATM   18  N2  UNL     1      21.212   4.735  50.813  1.00  0.00    -0.346 N 
HETATM   19  C16 UNL     1      20.566   6.007  50.779  1.00  0.00     0.158 C 
HETATM   20  C17 UNL     1      21.158   6.908  49.716  1.00  0.00     0.139 C 
HETATM   21  C19 UNL     1      22.572   7.219  49.685  1.00  0.00     0.041 C 
HETATM   22  C20 UNL     1      23.747   6.439  49.572  1.00  0.00     0.025 C 
HETATM   23  C21 UNL     1      24.586   6.021  50.743  1.00  0.00     0.116 C 
HETATM   24  N3  UNL     1      24.030   5.995  52.059  1.00  0.00    -0.388 N 
HETATM   25  C22 UNL     1      22.977   5.182  51.679  1.00  0.00     0.114 C 
HETATM   26  C23 UNL     1      22.348   4.105  51.442  1.00  0.00     0.058 C 
HETATM   27  H8  UNL     1      25.304   4.225  52.965  1.00  0.00     0.159 HD
HETATM   28  H26 UNL     1      24.427   6.474  52.920  1.00  0.00     0.159 HD
ENDROOT
BRANCH  20  29
HETATM   29  O2  UNL     1      20.375   8.123  49.767  1.00  0.00    -0.389 OA
HETATM   30  C18 UNL     1      21.035   9.167  49.185  1.00  0.00     0.202 C 
ENDBRANCH  20  29
TORSDOF 1
ENDMDL
