MODEL 1
REMARK VINA RESULT:      -9.3      0.000      0.000
REMARK  3 active torsions:
REMARK  status: ('A' for Active; 'I' for Inactive)
REMARK    1  A    between atoms: C7_8  and  C8_9 
REMARK    2  A    between atoms: C9_10  and  C10_11 
REMARK    3  A    between atoms: C18_21  and  O3_22 
ROOT
HETATM    1  O1  UNL     1      23.566  -1.130  54.385  1.00  0.00    -0.125 OA
HETATM    2  C1  UNL     1      22.995  -0.430  53.473  1.00  0.00     0.302 A 
HETATM    3  C2  UNL     1      22.050   0.192  52.505  1.00  0.00     0.043 C 
HETATM    4  C3  UNL     1      21.905   1.061  51.479  1.00  0.00     0.004 C 
HETATM    5  C4  UNL     1      23.222   1.690  51.102  1.00  0.00     0.031 C 
HETATM    6  C5  UNL     1      23.320   2.608  50.092  1.00  0.00    -0.000 C 
HETATM    7  C6  UNL     1      24.526   3.305  49.597  1.00  0.00     0.046 C 
HETATM    8  C7  UNL     1      25.812   2.960  50.196  1.00  0.00    -0.036 C 
HETATM    9  C16 UNL     1      26.487   2.216  51.062  1.00  0.00     0.141 C 
HETATM   10  O2  UNL     1      26.239   1.235  51.973  1.00  0.00    -0.360 OA
HETATM   11  C17 UNL     1      27.160   0.556  52.790  1.00  0.00     0.208 C 
HETATM   12  C18 UNL     1      26.660   0.444  54.198  1.00  0.00     0.171 C 
HETATM   13  C19 UNL     1      25.507  -0.463  54.441  1.00  0.00     0.314 C 
HETATM   14  N1  UNL     1      24.381  -0.052  53.647  1.00  0.00     0.107 N 
HETATM   15  H20 UNL     1      24.469   0.744  52.993  1.00  0.00     0.328 HD
ENDROOT
BRANCH   8  16
HETATM   16  C8  UNL     1      26.813   3.827  49.551  1.00  0.00     0.010 C 
HETATM   17  C9  UNL     1      26.804   4.997  48.968  1.00  0.00     0.012 C 
BRANCH  17  18
HETATM   18  C10 UNL     1      27.660   5.964  48.303  1.00  0.00    -0.036 A 
HETATM   19  C11 UNL     1      27.179   7.135  47.804  1.00  0.00     0.013 A 
HETATM   20  C12 UNL     1      28.118   7.932  47.208  1.00  0.00     0.024 A 
HETATM   21  C13 UNL     1      29.433   7.579  47.124  1.00  0.00     0.034 A 
HETATM   22 CL1  UNL     1      30.508   8.706  46.333  1.00  0.00    -0.084 Cl
HETATM   23  C14 UNL     1      29.912   6.391  47.633  1.00  0.00     0.024 A 
HETATM   24  C15 UNL     1      28.981   5.553  48.247  1.00  0.00     0.013 A 
ENDBRANCH  17  18
ENDBRANCH   8  16
BRANCH  12  25
HETATM   25  O3  UNL     1      26.376   1.780  54.601  1.00  0.00    -0.392 OA
HETATM   26  H17 UNL     1      25.553   2.049  54.113  1.00  0.00     0.210 HD
ENDBRANCH  12  25
TORSDOF 3
ENDMDL
MODEL 2
REMARK VINA RESULT:      -8.6      2.701      4.394
REMARK  3 active torsions:
REMARK  status: ('A' for Active; 'I' for Inactive)
REMARK    1  A    between atoms: C7_8  and  C8_9 
REMARK    2  A    between atoms: C9_10  and  C10_11 
REMARK    3  A    between atoms: C18_21  and  O3_22 
ROOT
HETATM    1  O1  UNL     1      18.453  -0.500  53.026  1.00  0.00    -0.125 OA
HETATM    2  C1  UNL     1      19.635  -0.799  53.430  1.00  0.00     0.302 A 
HETATM    3  C2  UNL     1      20.830  -1.362  54.116  1.00  0.00     0.043 C 
HETATM    4  C3  UNL     1      22.175  -1.309  54.252  1.00  0.00     0.004 C 
HETATM    5  C4  UNL     1      22.774  -0.244  53.372  1.00  0.00     0.031 C 
HETATM    6  C5  UNL     1      24.122  -0.010  53.337  1.00  0.00    -0.000 C 
HETATM    7  C6  UNL     1      24.861   0.993  52.542  1.00  0.00     0.046 C 
HETATM    8  C7  UNL     1      24.090   1.916  51.713  1.00  0.00    -0.036 C 
HETATM    9  C16 UNL     1      22.900   2.337  51.306  1.00  0.00     0.141 C 
HETATM   10  O2  UNL     1      21.588   2.043  51.518  1.00  0.00    -0.360 OA
HETATM   11  C17 UNL     1      20.457   2.671  50.967  1.00  0.00     0.208 C 
HETATM   12  C18 UNL     1      19.451   1.665  50.495  1.00  0.00     0.171 C 
HETATM   13  C19 UNL     1      18.729   0.885  51.535  1.00  0.00     0.314 C 
HETATM   14  N1  UNL     1      19.668   0.162  52.349  1.00  0.00     0.107 N 
HETATM   15  H20 UNL     1      20.685   0.268  52.189  1.00  0.00     0.328 HD
ENDROOT
BRANCH   8  16
HETATM   16  C8  UNL     1      25.072   2.760  51.011  1.00  0.00     0.010 C 
HETATM   17  C9  UNL     1      25.023   3.827  50.257  1.00  0.00     0.012 C 
BRANCH  17  18
HETATM   18  C10 UNL     1      25.854   4.754  49.510  1.00  0.00    -0.036 A 
HETATM   19  C11 UNL     1      25.424   5.997  49.166  1.00  0.00     0.013 A 
HETATM   20  C12 UNL     1      26.331   6.743  48.463  1.00  0.00     0.024 A 
HETATM   21  C13 UNL     1      27.570   6.274  48.136  1.00  0.00     0.034 A 
HETATM   22 CL1  UNL     1      28.612   7.349  47.237  1.00  0.00    -0.084 Cl
HETATM   23  C14 UNL     1      27.998   5.013  48.489  1.00  0.00     0.024 A 
HETATM   24  C15 UNL     1      27.097   4.224  49.207  1.00  0.00     0.013 A 
ENDBRANCH  17  18
ENDBRANCH   8  16
BRANCH  12  25
HETATM   25  O3  UNL     1      20.162   0.819  49.597  1.00  0.00    -0.392 OA
HETATM   26  H17 UNL     1      20.863   0.367  50.136  1.00  0.00     0.210 HD
ENDBRANCH  12  25
TORSDOF 3
ENDMDL
MODEL 3
REMARK VINA RESULT:      -8.5      5.891      7.661
REMARK  3 active torsions:
REMARK  status: ('A' for Active; 'I' for Inactive)
REMARK    1  A    between atoms: C7_8  and  C8_9 
REMARK    2  A    between atoms: C9_10  and  C10_11 
REMARK    3  A    between atoms: C18_21  and  O3_22 
ROOT
HETATM    1  O1  UNL     1      17.654   1.775  49.360  1.00  0.00    -0.125 OA
HETATM    2  C1  UNL     1      17.654   0.984  50.372  1.00  0.00     0.302 A 
HETATM    3  C2  UNL     1      17.304   0.084  51.505  1.00  0.00     0.043 C 
HETATM    4  C3  UNL     1      17.770  -0.635  52.552  1.00  0.00     0.004 C 
HETATM    5  C4  UNL     1      19.265  -0.503  52.688  1.00  0.00     0.031 C 
HETATM    6  C5  UNL     1      19.960  -1.147  53.674  1.00  0.00    -0.000 C 
HETATM    7  C6  UNL     1      21.412  -1.116  53.948  1.00  0.00     0.046 C 
HETATM    8  C7  UNL     1      22.248  -0.253  53.117  1.00  0.00    -0.036 C 
HETATM    9  C16 UNL     1      22.322   0.631  52.131  1.00  0.00     0.141 C 
HETATM   10  O2  UNL     1      21.483   1.269  51.270  1.00  0.00    -0.360 OA
HETATM   11  C17 UNL     1      21.808   2.222  50.288  1.00  0.00     0.208 C 
HETATM   12  C18 UNL     1      21.108   1.931  48.995  1.00  0.00     0.171 C 
HETATM   13  C19 UNL     1      19.635   2.133  48.956  1.00  0.00     0.314 C 
HETATM   14  N1  UNL     1      18.999   1.312  49.950  1.00  0.00     0.107 N 
HETATM   15  H20 UNL     1      19.570   0.730  50.587  1.00  0.00     0.328 HD
ENDROOT
BRANCH   8  16
HETATM   16  C8  UNL     1      23.632  -0.453  53.578  1.00  0.00     0.010 C 
HETATM   17  C9  UNL     1      24.825  -0.235  53.087  1.00  0.00     0.012 C 
BRANCH  17  18
HETATM   18  C10 UNL     1      26.240  -0.365  53.386  1.00  0.00    -0.036 A 
HETATM   19  C11 UNL     1      26.868   0.441  54.284  1.00  0.00     0.013 A 
HETATM   20  C12 UNL     1      28.202   0.185  54.448  1.00  0.00     0.024 A 
HETATM   21  C13 UNL     1      28.849  -0.803  53.765  1.00  0.00     0.034 A 
HETATM   22 CL1  UNL     1      30.554  -1.004  54.087  1.00  0.00    -0.084 Cl
HETATM   23  C14 UNL     1      28.205  -1.616  52.857  1.00  0.00     0.024 A 
HETATM   24  C15 UNL     1      26.842  -1.382  52.665  1.00  0.00     0.013 A 
ENDBRANCH  17  18
ENDBRANCH   8  16
BRANCH  12  25
HETATM   25  O3  UNL     1      21.467   0.593  48.669  1.00  0.00    -0.392 OA
HETATM   26  H17 UNL     1      21.685   0.145  49.528  1.00  0.00     0.210 HD
ENDBRANCH  12  25
TORSDOF 3
ENDMDL
MODEL 4
REMARK VINA RESULT:      -8.5      5.028      9.051
REMARK  3 active torsions:
REMARK  status: ('A' for Active; 'I' for Inactive)
REMARK    1  A    between atoms: C7_8  and  C8_9 
REMARK    2  A    between atoms: C9_10  and  C10_11 
REMARK    3  A    between atoms: C18_21  and  O3_22 
ROOT
HETATM    1  O1  UNL     1      25.131   9.798  47.978  1.00  0.00    -0.125 OA
HETATM    2  C1  UNL     1      26.056   8.910  47.901  1.00  0.00     0.302 A 
HETATM    3  C2  UNL     1      27.287   8.124  47.612  1.00  0.00     0.043 C 
HETATM    4  C3  UNL     1      27.919   6.936  47.754  1.00  0.00     0.004 C 
HETATM    5  C4  UNL     1      27.065   5.945  48.502  1.00  0.00     0.031 C 
HETATM    6  C5  UNL     1      27.499   4.676  48.771  1.00  0.00    -0.000 C 
HETATM    7  C6  UNL     1      26.789   3.591  49.479  1.00  0.00     0.046 C 
HETATM    8  C7  UNL     1      25.419   3.841  49.920  1.00  0.00    -0.036 C 
HETATM    9  C16 UNL     1      24.388   4.675  49.973  1.00  0.00     0.141 C 
HETATM   10  O2  UNL     1      24.071   5.931  49.555  1.00  0.00    -0.360 OA
HETATM   11  C17 UNL     1      22.855   6.618  49.715  1.00  0.00     0.208 C 
HETATM   12  C18 UNL     1      23.083   8.030  50.162  1.00  0.00     0.171 C 
HETATM   13  C19 UNL     1      23.685   8.967  49.176  1.00  0.00     0.314 C 
HETATM   14  N1  UNL     1      24.964   8.472  48.744  1.00  0.00     0.107 N 
HETATM   15  H20 UNL     1      25.312   7.561  49.089  1.00  0.00     0.328 HD
ENDROOT
BRANCH   8  16
HETATM   16  C8  UNL     1      24.982   2.623  50.623  1.00  0.00     0.010 C 
HETATM   17  C9  UNL     1      24.119   2.342  51.564  1.00  0.00     0.012 C 
BRANCH  17  18
HETATM   18  C10 UNL     1      23.580   1.246  52.349  1.00  0.00    -0.036 A 
HETATM   19  C11 UNL     1      24.365   0.465  53.138  1.00  0.00     0.013 A 
HETATM   20  C12 UNL     1      23.698  -0.524  53.810  1.00  0.00     0.024 A 
HETATM   21  C13 UNL     1      22.352  -0.709  53.696  1.00  0.00     0.034 A 
HETATM   22 CL1  UNL     1      21.650  -2.015  54.619  1.00  0.00    -0.084 Cl
HETATM   23  C14 UNL     1      21.563   0.088  52.894  1.00  0.00     0.024 A 
HETATM   24  C15 UNL     1      22.211   1.107  52.193  1.00  0.00     0.013 A 
ENDBRANCH  17  18
ENDBRANCH   8  16
BRANCH  12  25
HETATM   25  O3  UNL     1      23.871   7.927  51.343  1.00  0.00    -0.392 OA
HETATM   26  H17 UNL     1      23.915   8.840  51.730  1.00  0.00     0.210 HD
ENDBRANCH  12  25
TORSDOF 3
ENDMDL
MODEL 5
REMARK VINA RESULT:      -8.5      2.258      3.845
REMARK  3 active torsions:
REMARK  status: ('A' for Active; 'I' for Inactive)
REMARK    1  A    between atoms: C7_8  and  C8_9 
REMARK    2  A    between atoms: C9_10  and  C10_11 
REMARK    3  A    between atoms: C18_21  and  O3_22 
ROOT
HETATM    1  O1  UNL     1      19.868   0.177  51.561  1.00  0.00    -0.125 OA
HETATM    2  C1  UNL     1      21.011   0.093  52.140  1.00  0.00     0.302 A 
HETATM    3  C2  UNL     1      22.154  -0.188  53.052  1.00  0.00     0.043 C 
HETATM    4  C3  UNL     1      23.462   0.035  53.313  1.00  0.00     0.004 C 
HETATM    5  C4  UNL     1      24.076   0.958  52.292  1.00  0.00     0.031 C 
HETATM    6  C5  UNL     1      25.394   1.323  52.349  1.00  0.00    -0.000 C 
HETATM    7  C6  UNL     1      26.141   2.218  51.440  1.00  0.00     0.046 C 
HETATM    8  C7  UNL     1      25.405   2.866  50.358  1.00  0.00    -0.036 C 
HETATM    9  C16 UNL     1      24.243   3.066  49.749  1.00  0.00     0.141 C 
HETATM   10  O2  UNL     1      22.944   2.682  49.880  1.00  0.00    -0.360 OA
HETATM   11  C17 UNL     1      21.843   3.061  49.093  1.00  0.00     0.208 C 
HETATM   12  C18 UNL     1      20.990   1.879  48.744  1.00  0.00     0.171 C 
HETATM   13  C19 UNL     1      20.211   1.253  49.846  1.00  0.00     0.314 C 
HETATM   14  N1  UNL     1      21.099   0.814  50.889  1.00  0.00     0.107 N 
HETATM   15  H20 UNL     1      22.115   0.994  50.817  1.00  0.00     0.328 HD
ENDROOT
BRANCH   8  16
HETATM   16  C8  UNL     1      26.393   3.650  49.599  1.00  0.00     0.010 C 
HETATM   17  C9  UNL     1      26.507   4.895  49.213  1.00  0.00     0.012 C 
BRANCH  17  18
HETATM   18  C10 UNL     1      27.374   5.805  48.488  1.00  0.00    -0.036 A 
HETATM   19  C11 UNL     1      28.688   5.533  48.266  1.00  0.00     0.013 A 
HETATM   20  C12 UNL     1      29.363   6.496  47.566  1.00  0.00     0.024 A 
HETATM   21  C13 UNL     1      28.762   7.639  47.126  1.00  0.00     0.034 A 
HETATM   22 CL1  UNL     1      29.760   8.771  46.246  1.00  0.00    -0.084 Cl
HETATM   23  C14 UNL     1      27.429   7.907  47.354  1.00  0.00     0.024 A 
HETATM   24  C15 UNL     1      26.711   6.945  48.066  1.00  0.00     0.013 A 
ENDBRANCH  17  18
ENDBRANCH   8  16
BRANCH  12  25
HETATM   25  O3  UNL     1      21.874   0.950  48.127  1.00  0.00    -0.392 OA
HETATM   26  H17 UNL     1      22.671   1.469  47.843  1.00  0.00     0.210 HD
ENDBRANCH  12  25
TORSDOF 3
ENDMDL
MODEL 6
REMARK VINA RESULT:      -8.3      1.866      3.328
REMARK  3 active torsions:
REMARK  status: ('A' for Active; 'I' for Inactive)
REMARK    1  A    between atoms: C7_8  and  C8_9 
REMARK    2  A    between atoms: C9_10  and  C10_11 
REMARK    3  A    between atoms: C18_21  and  O3_22 
ROOT
HETATM    1  O1  UNL     1      21.012  -0.132  54.318  1.00  0.00    -0.125 OA
HETATM    2  C1  UNL     1      22.269  -0.384  54.237  1.00  0.00     0.302 A 
HETATM    3  C2  UNL     1      23.653  -0.905  54.401  1.00  0.00     0.043 C 
HETATM    4  C3  UNL     1      24.948  -0.791  54.025  1.00  0.00     0.004 C 
HETATM    5  C4  UNL     1      25.133   0.324  53.028  1.00  0.00     0.031 C 
HETATM    6  C5  UNL     1      26.360   0.624  52.500  1.00  0.00    -0.000 C 
HETATM    7  C6  UNL     1      26.710   1.681  51.528  1.00  0.00     0.046 C 
HETATM    8  C7  UNL     1      25.651   2.585  51.088  1.00  0.00    -0.036 C 
HETATM    9  C16 UNL     1      24.381   2.958  51.174  1.00  0.00     0.141 C 
HETATM   10  O2  UNL     1      23.256   2.596  51.850  1.00  0.00    -0.360 OA
HETATM   11  C17 UNL     1      21.980   3.182  51.789  1.00  0.00     0.208 C 
HETATM   12  C18 UNL     1      20.907   2.141  51.689  1.00  0.00     0.171 C 
HETATM   13  C19 UNL     1      20.657   1.301  52.890  1.00  0.00     0.314 C 
HETATM   14  N1  UNL     1      21.859   0.604  53.263  1.00  0.00     0.107 N 
HETATM   15  H20 UNL     1      22.736   0.763  52.738  1.00  0.00     0.328 HD
ENDROOT
BRANCH   8  16
HETATM   16  C8  UNL     1      26.266   3.492  50.104  1.00  0.00     0.010 C 
HETATM   17  C9  UNL     1      26.118   4.746  49.763  1.00  0.00     0.012 C 
BRANCH  17  18
HETATM   18  C10 UNL     1      26.615   5.764  48.855  1.00  0.00    -0.036 A 
HETATM   19  C11 UNL     1      25.829   6.778  48.402  1.00  0.00     0.013 A 
HETATM   20  C12 UNL     1      26.454   7.651  47.554  1.00  0.00     0.024 A 
HETATM   21  C13 UNL     1      27.762   7.514  47.192  1.00  0.00     0.034 A 
HETATM   22 CL1  UNL     1      28.413   8.712  46.101  1.00  0.00    -0.084 Cl
HETATM   23  C14 UNL     1      28.552   6.484  47.657  1.00  0.00     0.024 A 
HETATM   24  C15 UNL     1      27.946   5.574  48.525  1.00  0.00     0.013 A 
ENDBRANCH  17  18
ENDBRANCH   8  16
BRANCH  12  25
HETATM   25  O3  UNL     1      21.256   1.352  50.556  1.00  0.00    -0.392 OA
HETATM   26  H17 UNL     1      21.613   0.496  50.912  1.00  0.00     0.210 HD
ENDBRANCH  12  25
TORSDOF 3
ENDMDL
MODEL 7
REMARK VINA RESULT:      -8.2      5.346      9.407
REMARK  3 active torsions:
REMARK  status: ('A' for Active; 'I' for Inactive)
REMARK    1  A    between atoms: C7_8  and  C8_9 
REMARK    2  A    between atoms: C9_10  and  C10_11 
REMARK    3  A    between atoms: C18_21  and  O3_22 
ROOT
HETATM    1  O1  UNL     1      30.354  10.740  48.105  1.00  0.00    -0.125 OA
HETATM    2  C1  UNL     1      30.581   9.479  48.005  1.00  0.00     0.302 A 
HETATM    3  C2  UNL     1      31.159   8.128  47.771  1.00  0.00     0.043 C 
HETATM    4  C3  UNL     1      30.931   6.794  47.774  1.00  0.00     0.004 C 
HETATM    5  C4  UNL     1      29.509   6.481  48.159  1.00  0.00     0.031 C 
HETATM    6  C5  UNL     1      29.048   5.194  48.236  1.00  0.00    -0.000 C 
HETATM    7  C6  UNL     1      27.692   4.722  48.587  1.00  0.00     0.046 C 
HETATM    8  C7  UNL     1      26.660   5.724  48.838  1.00  0.00    -0.036 C 
HETATM    9  C16 UNL     1      26.325   7.007  48.886  1.00  0.00     0.141 C 
HETATM   10  O2  UNL     1      26.906   8.220  48.681  1.00  0.00    -0.360 OA
HETATM   11  C17 UNL     1      26.315   9.493  48.774  1.00  0.00     0.208 C 
HETATM   12  C18 UNL     1      27.193  10.448  49.524  1.00  0.00     0.171 C 
HETATM   13  C19 UNL     1      28.449  10.885  48.859  1.00  0.00     0.314 C 
HETATM   14  N1  UNL     1      29.268   9.743  48.552  1.00  0.00     0.107 N 
HETATM   15  H20 UNL     1      28.928   8.789  48.760  1.00  0.00     0.328 HD
ENDROOT
BRANCH   8  16
HETATM   16  C8  UNL     1      25.443   4.980  49.202  1.00  0.00     0.010 C 
HETATM   17  C9  UNL     1      25.166   3.758  49.575  1.00  0.00     0.012 C 
BRANCH  17  18
HETATM   18  C10 UNL     1      24.071   2.885  49.958  1.00  0.00    -0.036 A 
HETATM   19  C11 UNL     1      22.985   2.693  49.161  1.00  0.00     0.013 A 
HETATM   20  C12 UNL     1      22.045   1.840  49.672  1.00  0.00     0.024 A 
HETATM   21  C13 UNL     1      22.187   1.231  50.884  1.00  0.00     0.034 A 
HETATM   22 CL1  UNL     1      20.898   0.169  51.394  1.00  0.00    -0.084 Cl
HETATM   23  C14 UNL     1      23.292   1.430  51.684  1.00  0.00     0.024 A 
HETATM   24  C15 UNL     1      24.271   2.295  51.195  1.00  0.00     0.013 A 
ENDBRANCH  17  18
ENDBRANCH   8  16
BRANCH  12  25
HETATM   25  O3  UNL     1      27.450   9.816  50.774  1.00  0.00    -0.392 OA
HETATM   26  H17 UNL     1      28.291  10.214  51.121  1.00  0.00     0.210 HD
ENDBRANCH  12  25
TORSDOF 3
ENDMDL
MODEL 8
REMARK VINA RESULT:      -8.2      5.181      9.350
REMARK  3 active torsions:
REMARK  status: ('A' for Active; 'I' for Inactive)
REMARK    1  A    between atoms: C7_8  and  C8_9 
REMARK    2  A    between atoms: C9_10  and  C10_11 
REMARK    3  A    between atoms: C18_21  and  O3_22 
ROOT
HETATM    1  O1  UNL     1      28.257   2.417  52.397  1.00  0.00    -0.125 OA
HETATM    2  C1  UNL     1      27.917   1.575  53.305  1.00  0.00     0.302 A 
HETATM    3  C2  UNL     1      27.871   0.588  54.419  1.00  0.00     0.043 C 
HETATM    4  C3  UNL     1      27.093  -0.243  55.150  1.00  0.00     0.004 C 
HETATM    5  C4  UNL     1      25.662  -0.210  54.681  1.00  0.00     0.031 C 
HETATM    6  C5  UNL     1      24.690  -0.968  55.276  1.00  0.00    -0.000 C 
HETATM    7  C6  UNL     1      23.254  -1.056  54.935  1.00  0.00     0.046 C 
HETATM    8  C7  UNL     1      22.775  -0.296  53.783  1.00  0.00    -0.036 C 
HETATM    9  C16 UNL     1      23.059   0.514  52.772  1.00  0.00     0.141 C 
HETATM   10  O2  UNL     1      24.147   1.132  52.237  1.00  0.00    -0.360 OA
HETATM   11  C17 UNL     1      24.205   1.958  51.100  1.00  0.00     0.208 C 
HETATM   12  C18 UNL     1      25.028   3.183  51.358  1.00  0.00     0.171 C 
HETATM   13  C19 UNL     1      26.495   2.997  51.515  1.00  0.00     0.314 C 
HETATM   14  N1  UNL     1      26.764   2.097  52.603  1.00  0.00     0.107 N 
HETATM   15  H20 UNL     1      25.983   1.653  53.116  1.00  0.00     0.328 HD
ENDROOT
BRANCH   8  16
HETATM   16  C8  UNL     1      21.324  -0.534  53.708  1.00  0.00     0.010 C 
HETATM   17  C9  UNL     1      20.379  -0.299  52.834  1.00  0.00     0.012 C 
BRANCH  17  18
HETATM   18  C10 UNL     1      18.955  -0.456  52.602  1.00  0.00    -0.036 A 
HETATM   19  C11 UNL     1      18.223  -1.427  53.212  1.00  0.00     0.013 A 
HETATM   20  C12 UNL     1      16.895  -1.435  52.882  1.00  0.00     0.024 A 
HETATM   21  C13 UNL     1      16.349  -0.539  52.011  1.00  0.00     0.034 A 
HETATM   22 CL1  UNL     1      14.638  -0.681  51.695  1.00  0.00    -0.084 Cl
HETATM   23  C14 UNL     1      17.098   0.443  51.397  1.00  0.00     0.024 A 
HETATM   24  C15 UNL     1      18.457   0.480  51.711  1.00  0.00     0.013 A 
ENDBRANCH  17  18
ENDBRANCH   8  16
BRANCH  12  25
HETATM   25  O3  UNL     1      24.446   3.789  52.507  1.00  0.00    -0.392 OA
HETATM   26  H17 UNL     1      23.463   3.769  52.366  1.00  0.00     0.210 HD
ENDBRANCH  12  25
TORSDOF 3
ENDMDL
MODEL 9
REMARK VINA RESULT:      -8.2      5.150      9.326
REMARK  3 active torsions:
REMARK  status: ('A' for Active; 'I' for Inactive)
REMARK    1  A    between atoms: C7_8  and  C8_9 
REMARK    2  A    between atoms: C9_10  and  C10_11 
REMARK    3  A    between atoms: C18_21  and  O3_22 
ROOT
HETATM    1  O1  UNL     1      26.350   8.571  48.230  1.00  0.00    -0.125 OA
HETATM    2  C1  UNL     1      26.818   7.384  48.376  1.00  0.00     0.302 A 
HETATM    3  C2  UNL     1      27.625   6.134  48.349  1.00  0.00     0.043 C 
HETATM    4  C3  UNL     1      27.680   4.826  48.692  1.00  0.00     0.004 C 
HETATM    5  C4  UNL     1      26.418   4.387  49.388  1.00  0.00     0.031 C 
HETATM    6  C5  UNL     1      26.248   3.104  49.832  1.00  0.00    -0.000 C 
HETATM    7  C6  UNL     1      25.079   2.516  50.519  1.00  0.00     0.046 C 
HETATM    8  C7  UNL     1      23.906   3.361  50.722  1.00  0.00    -0.036 C 
HETATM    9  C16 UNL     1      23.322   4.539  50.542  1.00  0.00     0.141 C 
HETATM   10  O2  UNL     1      23.607   5.740  49.969  1.00  0.00    -0.360 OA
HETATM   11  C17 UNL     1      22.784   6.877  49.880  1.00  0.00     0.208 C 
HETATM   12  C18 UNL     1      23.539   8.124  50.226  1.00  0.00     0.171 C 
HETATM   13  C19 UNL     1      24.576   8.582  49.264  1.00  0.00     0.314 C 
HETATM   14  N1  UNL     1      25.564   7.554  49.078  1.00  0.00     0.107 N 
HETATM   15  H20 UNL     1      25.460   6.641  49.552  1.00  0.00     0.328 HD
ENDROOT
BRANCH   8  16
HETATM   16  C8  UNL     1      22.928   2.541  51.458  1.00  0.00     0.010 C 
HETATM   17  C9  UNL     1      21.945   1.741  51.137  1.00  0.00     0.012 C 
BRANCH  17  18
HETATM   18  C10 UNL     1      20.918   0.886  51.706  1.00  0.00    -0.036 A 
HETATM   19  C11 UNL     1      19.715   0.698  51.101  1.00  0.00     0.013 A 
HETATM   20  C12 UNL     1      18.862  -0.138  51.769  1.00  0.00     0.024 A 
HETATM   21  C13 UNL     1      19.196  -0.736  52.949  1.00  0.00     0.034 A 
HETATM   22 CL1  UNL     1      17.997  -1.777  53.677  1.00  0.00    -0.084 Cl
HETATM   23  C14 UNL     1      20.419  -0.541  53.555  1.00  0.00     0.024 A 
HETATM   24  C15 UNL     1      21.313   0.307  52.900  1.00  0.00     0.013 A 
ENDBRANCH  17  18
ENDBRANCH   8  16
BRANCH  12  25
HETATM   25  O3  UNL     1      24.087   7.883  51.518  1.00  0.00    -0.392 OA
HETATM   26  H17 UNL     1      24.990   8.297  51.520  1.00  0.00     0.210 HD
ENDBRANCH  12  25
TORSDOF 3
ENDMDL
