MODEL 1
REMARK VINA RESULT:      -9.0      0.000      0.000
REMARK  3 active torsions:
REMARK  status: ('A' for Active; 'I' for Inactive)
REMARK    1  A    between atoms: N1_1  and  C1_2 
REMARK    2  A    between atoms: C7_8  and  C8_9 
REMARK    3  A    between atoms: C14_17  and  C15_18 
ROOT
HETATM    1  C1  UNL     1      22.443   4.124  51.337  1.00  0.00     0.020 A 
HETATM    2  C2  UNL     1      23.149   5.342  51.532  1.00  0.00     0.022 A 
HETATM    3  C3  UNL     1      24.391   5.442  50.816  1.00  0.00    -0.008 A 
HETATM    4  C4  UNL     1      24.536   4.289  50.105  1.00  0.00     0.072 A 
HETATM    5  C5  UNL     1      24.196   3.038  49.632  1.00  0.00     0.034 A 
HETATM    6  C6  UNL     1      23.206   3.404  50.466  1.00  0.00     0.079 A 
HETATM    7  C7  UNL     1      23.036   1.948  50.980  1.00  0.00     0.104 C 
HETATM    8  N3  UNL     1      24.039   1.438  51.510  1.00  0.00    -0.448 NA
HETATM    9  C13 UNL     1      25.155   0.974  52.060  1.00  0.00     0.259 C 
HETATM   10  C14 UNL     1      26.193   2.063  52.489  1.00  0.00     0.288 C 
HETATM   11  N4  UNL     1      26.443   2.764  51.167  1.00  0.00     0.098 N 
HETATM   12  C21 UNL     1      25.980   3.691  50.033  1.00  0.00     0.365 A 
HETATM   13  O1  UNL     1      25.824   3.096  51.104  1.00  0.00    -0.149 OA
HETATM   14  H17 UNL     1      27.477   2.482  50.803  1.00  0.00     0.323 HD
ENDROOT
BRANCH  10  15
HETATM   15  C15 UNL     1      27.399   1.536  53.042  1.00  0.00    -0.020 A 
HETATM   16  C16 UNL     1      28.324   2.307  53.699  1.00  0.00     0.009 A 
HETATM   17  C17 UNL     1      29.469   1.741  54.215  1.00  0.00     0.002 A 
HETATM   18  C18 UNL     1      29.692   0.388  54.071  1.00  0.00     0.024 A 
HETATM   19  C19 UNL     1      28.762  -0.412  53.404  1.00  0.00     0.034 A 
HETATM   20 CL1  UNL     1      29.037  -2.122  53.219  1.00  0.00    -0.084 Cl
HETATM   21  C20 UNL     1      27.641   0.175  52.907  1.00  0.00     0.033 A 
ENDBRANCH  10  15
BRANCH   7  22
HETATM   22  C8  UNL     1      21.678   1.493  50.773  1.00  0.00     0.004 A 
HETATM   23  C9  UNL     1      20.843   1.750  49.722  1.00  0.00     0.034 A 
HETATM   24  C10 UNL     1      19.556   1.255  49.742  1.00  0.00     0.117 A 
HETATM   25  N2  UNL     1      19.084   0.519  50.771  1.00  0.00    -0.273 NA
HETATM   26  C11 UNL     1      19.899   0.260  51.810  1.00  0.00     0.117 A 
HETATM   27  C12 UNL     1      21.208   0.729  51.851  1.00  0.00     0.034 A 
ENDBRANCH   7  22
BRANCH   1  28
HETATM   28  N1  UNL     1      21.242   3.949  52.055  1.00  0.00    -0.401 N 
HETATM   29  H1  UNL     1      21.403   3.991  53.100  1.00  0.00     0.156 HD
HETATM   30  H2  UNL     1      20.280   3.792  51.666  1.00  0.00     0.156 HD
ENDBRANCH   1  28
TORSDOF 3
ENDMDL
MODEL 2
REMARK VINA RESULT:      -8.9      2.845      6.968
REMARK  3 active torsions:
REMARK  status: ('A' for Active; 'I' for Inactive)
REMARK    1  A    between atoms: N1_1  and  C1_2 
REMARK    2  A    between atoms: C7_8  and  C8_9 
REMARK    3  A    between atoms: C14_17  and  C15_18 
ROOT
HETATM    1  C1  UNL     1      25.774   2.349  51.237  1.00  0.00     0.020 A 
HETATM    2  C2  UNL     1      25.353   3.343  50.311  1.00  0.00     0.022 A 
HETATM    3  C3  UNL     1      24.277   4.178  50.768  1.00  0.00    -0.008 A 
HETATM    4  C4  UNL     1      23.962   3.769  52.029  1.00  0.00     0.072 A 
HETATM    5  C5  UNL     1      24.058   3.014  53.179  1.00  0.00     0.034 A 
HETATM    6  C6  UNL     1      24.986   2.529  52.335  1.00  0.00     0.079 A 
HETATM    7  C7  UNL     1      24.739   1.075  52.824  1.00  0.00     0.104 C 
HETATM    8  N3  UNL     1      23.583   0.641  52.677  1.00  0.00    -0.448 NA
HETATM    9  C13 UNL     1      22.326   0.260  52.481  1.00  0.00     0.259 C 
HETATM   10  C14 UNL     1      21.525   1.105  51.437  1.00  0.00     0.288 C 
HETATM   11  N4  UNL     1      21.625   2.492  52.045  1.00  0.00     0.098 N 
HETATM   12  C21 UNL     1      22.440   3.746  52.394  1.00  0.00     0.365 A 
HETATM   13  O1  UNL     1      22.308   2.615  51.916  1.00  0.00    -0.149 OA
HETATM   14  H17 UNL     1      20.613   2.772  52.465  1.00  0.00     0.323 HD
ENDROOT
BRANCH  10  15
HETATM   15  C15 UNL     1      20.166   0.699  51.274  1.00  0.00    -0.020 A 
HETATM   16  C16 UNL     1      19.405   1.042  50.186  1.00  0.00     0.009 A 
HETATM   17  C17 UNL     1      18.098   0.617  50.083  1.00  0.00     0.002 A 
HETATM   18  C18 UNL     1      17.546  -0.160  51.080  1.00  0.00     0.024 A 
HETATM   19  C19 UNL     1      18.307  -0.518  52.194  1.00  0.00     0.034 A 
HETATM   20 CL1  UNL     1      17.617  -1.499  53.458  1.00  0.00    -0.084 Cl
HETATM   21  C20 UNL     1      19.594  -0.084  52.268  1.00  0.00     0.033 A 
ENDBRANCH  10  15
BRANCH   7  22
HETATM   22  C8  UNL     1      25.968   0.491  53.318  1.00  0.00     0.004 A 
HETATM   23  C9  UNL     1      26.864   1.014  54.208  1.00  0.00     0.034 A 
HETATM   24  C10 UNL     1      28.009   0.309  54.512  1.00  0.00     0.117 A 
HETATM   25  N2  UNL     1      28.281  -0.892  53.959  1.00  0.00    -0.273 NA
HETATM   26  C11 UNL     1      27.404  -1.417  53.083  1.00  0.00     0.117 A 
HETATM   27  C12 UNL     1      26.231  -0.756  52.733  1.00  0.00     0.034 A 
ENDBRANCH   7  22
BRANCH   1  28
HETATM   28  N1  UNL     1      26.792   1.467  50.822  1.00  0.00    -0.401 N 
HETATM   29  H1  UNL     1      26.738   0.542  51.332  1.00  0.00     0.156 HD
HETATM   30  H2  UNL     1      27.539   1.642  50.106  1.00  0.00     0.156 HD
ENDBRANCH   1  28
TORSDOF 3
ENDMDL
MODEL 3
REMARK VINA RESULT:      -8.8      3.467      6.248
REMARK  3 active torsions:
REMARK  status: ('A' for Active; 'I' for Inactive)
REMARK    1  A    between atoms: N1_1  and  C1_2 
REMARK    2  A    between atoms: C7_8  and  C8_9 
REMARK    3  A    between atoms: C14_17  and  C15_18 
ROOT
HETATM    1  C1  UNL     1      24.545   3.081  52.764  1.00  0.00     0.020 A 
HETATM    2  C2  UNL     1      23.537   4.082  52.828  1.00  0.00     0.022 A 
HETATM    3  C3  UNL     1      22.868   4.347  51.585  1.00  0.00    -0.008 A 
HETATM    4  C4  UNL     1      23.407   3.509  50.655  1.00  0.00     0.072 A 
HETATM    5  C5  UNL     1      24.232   2.517  50.167  1.00  0.00     0.034 A 
HETATM    6  C6  UNL     1      24.542   2.654  51.469  1.00  0.00     0.079 A 
HETATM    7  C7  UNL     1      26.048   2.397  51.187  1.00  0.00     0.104 C 
HETATM    8  N3  UNL     1      26.598   3.192  50.406  1.00  0.00    -0.448 NA
HETATM    9  C13 UNL     1      27.105   4.086  49.564  1.00  0.00     0.259 C 
HETATM   10  C14 UNL     1      26.279   5.406  49.413  1.00  0.00     0.288 C 
HETATM   11  N4  UNL     1      24.940   4.861  48.948  1.00  0.00     0.098 N 
HETATM   12  C21 UNL     1      23.632   4.106  49.226  1.00  0.00     0.365 A 
HETATM   13  O1  UNL     1      24.730   4.565  49.553  1.00  0.00    -0.149 OA
HETATM   14  H17 UNL     1      24.811   5.116  47.854  1.00  0.00     0.323 HD
ENDROOT
BRANCH  10  15
HETATM   15  C15 UNL     1      26.823   6.333  48.474  1.00  0.00    -0.020 A 
HETATM   16  C16 UNL     1      26.074   7.296  47.848  1.00  0.00     0.009 A 
HETATM   17  C17 UNL     1      26.657   8.167  46.953  1.00  0.00     0.002 A 
HETATM   18  C18 UNL     1      28.005   8.072  46.680  1.00  0.00     0.024 A 
HETATM   19  C19 UNL     1      28.783   7.097  47.308  1.00  0.00     0.034 A 
HETATM   20 CL1  UNL     1      30.487   6.971  46.969  1.00  0.00    -0.084 Cl
HETATM   21  C20 UNL     1      28.179   6.253  48.187  1.00  0.00     0.033 A 
ENDBRANCH  10  15
BRANCH   7  22
HETATM   22  C8  UNL     1      26.523   1.273  51.965  1.00  0.00     0.004 A 
HETATM   23  C9  UNL     1      25.941   0.050  52.142  1.00  0.00     0.034 A 
HETATM   24  C10 UNL     1      26.541  -0.874  52.971  1.00  0.00     0.117 A 
HETATM   25  N2  UNL     1      27.695  -0.613  53.622  1.00  0.00    -0.273 NA
HETATM   26  C11 UNL     1      28.277   0.588  53.454  1.00  0.00     0.117 A 
HETATM   27  C12 UNL     1      27.723   1.564  52.631  1.00  0.00     0.034 A 
ENDBRANCH   7  22
BRANCH   1  28
HETATM   28  N1  UNL     1      25.270   2.815  53.944  1.00  0.00    -0.401 N 
HETATM   29  H1  UNL     1      25.053   3.520  54.702  1.00  0.00     0.156 HD
HETATM   30  H2  UNL     1      25.953   2.037  54.113  1.00  0.00     0.156 HD
ENDBRANCH   1  28
TORSDOF 3
ENDMDL
MODEL 4
REMARK VINA RESULT:      -8.7      5.986      7.404
REMARK  3 active torsions:
REMARK  status: ('A' for Active; 'I' for Inactive)
REMARK    1  A    between atoms: N1_1  and  C1_2 
REMARK    2  A    between atoms: C7_8  and  C8_9 
REMARK    3  A    between atoms: C14_17  and  C15_18 
ROOT
HETATM    1  C1  UNL     1      26.844   8.106  49.797  1.00  0.00     0.020 A 
HETATM    2  C2  UNL     1      27.369   9.394  50.093  1.00  0.00     0.022 A 
HETATM    3  C3  UNL     1      28.127   9.996  49.032  1.00  0.00    -0.008 A 
HETATM    4  C4  UNL     1      28.111   9.125  47.985  1.00  0.00     0.072 A 
HETATM    5  C5  UNL     1      27.790   7.973  47.298  1.00  0.00     0.034 A 
HETATM    6  C6  UNL     1      27.236   7.847  48.517  1.00  0.00     0.079 A 
HETATM    7  C7  UNL     1      27.538   6.323  48.549  1.00  0.00     0.104 C 
HETATM    8  N3  UNL     1      28.736   6.004  48.456  1.00  0.00    -0.448 NA
HETATM    9  C13 UNL     1      30.037   5.755  48.352  1.00  0.00     0.259 C 
HETATM   10  C14 UNL     1      30.978   6.961  48.681  1.00  0.00     0.288 C 
HETATM   11  N4  UNL     1      30.499   7.989  47.672  1.00  0.00     0.098 N 
HETATM   12  C21 UNL     1      29.442   8.985  47.174  1.00  0.00     0.365 A 
HETATM   13  O1  UNL     1      29.875   8.141  47.964  1.00  0.00    -0.149 OA
HETATM   14  H17 UNL     1      31.289   8.097  46.870  1.00  0.00     0.323 HD
ENDROOT
BRANCH  10  15
HETATM   15  C15 UNL     1      32.368   6.678  48.525  1.00  0.00    -0.020 A 
HETATM   16  C16 UNL     1      33.342   7.642  48.582  1.00  0.00     0.009 A 
HETATM   17  C17 UNL     1      34.670   7.307  48.427  1.00  0.00     0.002 A 
HETATM   18  C18 UNL     1      35.027   5.993  48.210  1.00  0.00     0.024 A 
HETATM   19  C19 UNL     1      34.048   4.999  48.148  1.00  0.00     0.034 A 
HETATM   20 CL1  UNL     1      34.492   3.337  47.876  1.00  0.00    -0.084 Cl
HETATM   21  C20 UNL     1      32.747   5.360  48.306  1.00  0.00     0.033 A 
ENDBRANCH  10  15
BRANCH   7  22
HETATM   22  C8  UNL     1      26.318   5.569  48.743  1.00  0.00     0.004 A 
HETATM   23  C9  UNL     1      25.035   5.929  48.439  1.00  0.00     0.034 A 
HETATM   24  C10 UNL     1      23.999   5.076  48.751  1.00  0.00     0.117 A 
HETATM   25  N2  UNL     1      24.205   3.884  49.352  1.00  0.00    -0.273 NA
HETATM   26  C11 UNL     1      25.465   3.520  49.654  1.00  0.00     0.117 A 
HETATM   27  C12 UNL     1      26.554   4.335  49.365  1.00  0.00     0.034 A 
ENDBRANCH   7  22
BRANCH   1  28
HETATM   28  N1  UNL     1      26.135   7.444  50.820  1.00  0.00    -0.401 N 
HETATM   29  H1  UNL     1      25.910   8.095  51.623  1.00  0.00     0.156 HD
HETATM   30  H2  UNL     1      25.839   6.437  50.846  1.00  0.00     0.156 HD
ENDBRANCH   1  28
TORSDOF 3
ENDMDL
MODEL 5
REMARK VINA RESULT:      -8.5      1.936      3.721
REMARK  3 active torsions:
REMARK  status: ('A' for Active; 'I' for Inactive)
REMARK    1  A    between atoms: N1_1  and  C1_2 
REMARK    2  A    between atoms: C7_8  and  C8_9 
REMARK    3  A    between atoms: C14_17  and  C15_18 
ROOT
HETATM    1  C1  UNL     1      21.646   1.684  49.846  1.00  0.00     0.020 A 
HETATM    2  C2  UNL     1      21.347   0.336  50.186  1.00  0.00     0.022 A 
HETATM    3  C3  UNL     1      21.474   0.023  51.582  1.00  0.00    -0.008 A 
HETATM    4  C4  UNL     1      21.846   1.170  52.217  1.00  0.00     0.072 A 
HETATM    5  C5  UNL     1      22.182   2.503  52.336  1.00  0.00     0.034 A 
HETATM    6  C6  UNL     1      21.958   2.289  51.027  1.00  0.00     0.079 A 
HETATM    7  C7  UNL     1      23.096   3.267  50.624  1.00  0.00     0.104 C 
HETATM    8  N3  UNL     1      24.232   2.979  51.039  1.00  0.00    -0.448 NA
HETATM    9  C13 UNL     1      25.408   2.596  51.524  1.00  0.00     0.259 C 
HETATM   10  C14 UNL     1      25.496   1.096  51.961  1.00  0.00     0.288 C 
HETATM   11  N4  UNL     1      24.389   1.029  52.997  1.00  0.00     0.098 N 
HETATM   12  C21 UNL     1      22.898   1.021  53.366  1.00  0.00     0.365 A 
HETATM   13  O1  UNL     1      23.835   1.076  52.563  1.00  0.00    -0.149 OA
HETATM   14  H17 UNL     1      24.863   0.949  54.021  1.00  0.00     0.323 HD
ENDROOT
BRANCH  10  15
HETATM   15  C15 UNL     1      26.757   0.721  52.513  1.00  0.00    -0.020 A 
HETATM   16  C16 UNL     1      27.658   1.625  53.014  1.00  0.00     0.009 A 
HETATM   17  C17 UNL     1      28.859   1.201  53.539  1.00  0.00     0.002 A 
HETATM   18  C18 UNL     1      29.163  -0.144  53.562  1.00  0.00     0.024 A 
HETATM   19  C19 UNL     1      28.258  -1.078  53.056  1.00  0.00     0.034 A 
HETATM   20 CL1  UNL     1      28.635  -2.779  53.083  1.00  0.00    -0.084 Cl
HETATM   21  C20 UNL     1      27.080  -0.630  52.545  1.00  0.00     0.033 A 
ENDBRANCH  10  15
BRANCH   7  22
HETATM   22  C8  UNL     1      22.583   4.318  49.771  1.00  0.00     0.004 A 
HETATM   23  C9  UNL     1      21.383   4.968  49.846  1.00  0.00     0.034 A 
HETATM   24  C10 UNL     1      21.064   5.916  48.897  1.00  0.00     0.117 A 
HETATM   25  N2  UNL     1      21.901   6.229  47.885  1.00  0.00    -0.273 NA
HETATM   26  C11 UNL     1      23.086   5.596  47.803  1.00  0.00     0.117 A 
HETATM   27  C12 UNL     1      23.467   4.630  48.729  1.00  0.00     0.034 A 
ENDBRANCH   7  22
BRANCH   1  28
HETATM   28  N1  UNL     1      21.588   2.035  48.481  1.00  0.00    -0.401 N 
HETATM   29  H1  UNL     1      22.513   1.868  47.996  1.00  0.00     0.156 HD
HETATM   30  H2  UNL     1      20.767   2.420  47.953  1.00  0.00     0.156 HD
ENDBRANCH   1  28
TORSDOF 3
ENDMDL
MODEL 6
REMARK VINA RESULT:      -8.4      6.604     10.210
REMARK  3 active torsions:
REMARK  status: ('A' for Active; 'I' for Inactive)
REMARK    1  A    between atoms: N1_1  and  C1_2 
REMARK    2  A    between atoms: C7_8  and  C8_9 
REMARK    3  A    between atoms: C14_17  and  C15_18 
ROOT
HETATM    1  C1  UNL     1      32.351   7.489  46.750  1.00  0.00     0.020 A 
HETATM    2  C2  UNL     1      31.889   8.757  46.301  1.00  0.00     0.022 A 
HETATM    3  C3  UNL     1      31.176   9.523  47.285  1.00  0.00    -0.008 A 
HETATM    4  C4  UNL     1      31.161   8.786  48.432  1.00  0.00     0.072 A 
HETATM    5  C5  UNL     1      31.432   7.711  49.253  1.00  0.00     0.034 A 
HETATM    6  C6  UNL     1      31.963   7.409  48.054  1.00  0.00     0.079 A 
HETATM    7  C7  UNL     1      31.584   5.911  48.211  1.00  0.00     0.104 C 
HETATM    8  N3  UNL     1      30.373   5.668  48.350  1.00  0.00    -0.448 NA
HETATM    9  C13 UNL     1      29.063   5.501  48.492  1.00  0.00     0.259 C 
HETATM   10  C14 UNL     1      28.179   6.704  48.024  1.00  0.00     0.288 C 
HETATM   11  N4  UNL     1      28.723   7.821  48.896  1.00  0.00     0.098 N 
HETATM   12  C21 UNL     1      29.835   8.816  49.262  1.00  0.00     0.365 A 
HETATM   13  O1  UNL     1      29.350   7.904  48.584  1.00  0.00    -0.149 OA
HETATM   14  H17 UNL     1      27.950   8.067  49.685  1.00  0.00     0.323 HD
ENDROOT
BRANCH  10  15
HETATM   15  C15 UNL     1      26.779   6.515  48.224  1.00  0.00    -0.020 A 
HETATM   16  C16 UNL     1      25.831   7.400  47.780  1.00  0.00     0.009 A 
HETATM   17  C17 UNL     1      24.491   7.162  48.000  1.00  0.00     0.002 A 
HETATM   18  C18 UNL     1      24.097   6.024  48.671  1.00  0.00     0.024 A 
HETATM   19  C19 UNL     1      25.049   5.112  49.130  1.00  0.00     0.034 A 
HETATM   20 CL1  UNL     1      24.557   3.672  49.979  1.00  0.00    -0.084 Cl
HETATM   21  C20 UNL     1      26.363   5.375  48.898  1.00  0.00     0.033 A 
ENDBRANCH  10  15
BRANCH   7  22
HETATM   22  C8  UNL     1      32.762   5.077  48.103  1.00  0.00     0.004 A 
HETATM   23  C9  UNL     1      34.036   5.340  48.523  1.00  0.00     0.034 A 
HETATM   24  C10 UNL     1      35.034   4.422  48.279  1.00  0.00     0.117 A 
HETATM   25  N2  UNL     1      34.800   3.259  47.634  1.00  0.00    -0.273 NA
HETATM   26  C11 UNL     1      33.549   2.989  47.218  1.00  0.00     0.117 A 
HETATM   27  C12 UNL     1      32.497   3.874  47.433  1.00  0.00     0.034 A 
ENDBRANCH   7  22
BRANCH   1  28
HETATM   28  N1  UNL     1      33.012   6.671  45.810  1.00  0.00    -0.401 N 
HETATM   29  H1  UNL     1      32.462   6.586  44.911  1.00  0.00     0.156 HD
HETATM   30  H2  UNL     1      33.933   6.180  45.925  1.00  0.00     0.156 HD
ENDBRANCH   1  28
TORSDOF 3
ENDMDL
MODEL 7
REMARK VINA RESULT:      -8.3      3.728      5.118
REMARK  3 active torsions:
REMARK  status: ('A' for Active; 'I' for Inactive)
REMARK    1  A    between atoms: N1_1  and  C1_2 
REMARK    2  A    between atoms: C7_8  and  C8_9 
REMARK    3  A    between atoms: C14_17  and  C15_18 
ROOT
HETATM    1  C1  UNL     1      20.378   1.828  51.850  1.00  0.00     0.020 A 
HETATM    2  C2  UNL     1      19.669   2.794  51.084  1.00  0.00     0.022 A 
HETATM    3  C3  UNL     1      19.966   2.788  49.679  1.00  0.00    -0.008 A 
HETATM    4  C4  UNL     1      20.876   1.796  49.467  1.00  0.00     0.072 A 
HETATM    5  C5  UNL     1      21.712   0.750  49.797  1.00  0.00     0.034 A 
HETATM    6  C6  UNL     1      21.146   1.152  50.948  1.00  0.00     0.079 A 
HETATM    7  C7  UNL     1      22.454   0.884  51.741  1.00  0.00     0.104 C 
HETATM    8  N3  UNL     1      23.455   1.522  51.370  1.00  0.00    -0.448 NA
HETATM    9  C13 UNL     1      24.470   2.244  50.909  1.00  0.00     0.259 C 
HETATM   10  C14 UNL     1      24.071   3.484  50.043  1.00  0.00     0.288 C 
HETATM   11  N4  UNL     1      23.275   2.821  48.933  1.00  0.00     0.098 N 
HETATM   12  C21 UNL     1      22.013   2.101  48.436  1.00  0.00     0.365 A 
HETATM   13  O1  UNL     1      22.701   2.647  49.304  1.00  0.00    -0.149 OA
HETATM   14  H17 UNL     1      23.892   2.849  47.985  1.00  0.00     0.323 HD
ENDROOT
BRANCH  10  15
HETATM   15  C15 UNL     1      25.179   4.220  49.528  1.00  0.00    -0.020 A 
HETATM   16  C16 UNL     1      26.444   3.700  49.425  1.00  0.00     0.009 A 
HETATM   17  C17 UNL     1      27.475   4.458  48.915  1.00  0.00     0.002 A 
HETATM   18  C18 UNL     1      27.238   5.753  48.503  1.00  0.00     0.024 A 
HETATM   19  C19 UNL     1      25.957   6.299  48.601  1.00  0.00     0.034 A 
HETATM   20 CL1  UNL     1      25.650   7.933  48.082  1.00  0.00    -0.084 Cl
HETATM   21  C20 UNL     1      24.960   5.526  49.108  1.00  0.00     0.033 A 
ENDBRANCH  10  15
BRANCH   7  22
HETATM   22  C8  UNL     1      22.210  -0.048  52.821  1.00  0.00     0.004 A 
HETATM   23  C9  UNL     1      21.114  -0.836  53.037  1.00  0.00     0.034 A 
HETATM   24  C10 UNL     1      21.059  -1.627  54.165  1.00  0.00     0.117 A 
HETATM   25  N2  UNL     1      22.057  -1.654  55.073  1.00  0.00    -0.273 NA
HETATM   26  C11 UNL     1      23.141  -0.883  54.869  1.00  0.00     0.117 A 
HETATM   27  C12 UNL     1      23.259  -0.063  53.752  1.00  0.00     0.034 A 
ENDBRANCH   7  22
BRANCH   1  28
HETATM   28  N1  UNL     1      20.165   1.823  53.244  1.00  0.00    -0.401 N 
HETATM   29  H1  UNL     1      19.295   2.364  53.507  1.00  0.00     0.156 HD
HETATM   30  H2  UNL     1      20.754   1.362  53.979  1.00  0.00     0.156 HD
ENDBRANCH   1  28
TORSDOF 3
ENDMDL
MODEL 8
REMARK VINA RESULT:      -8.2      1.775      2.239
REMARK  3 active torsions:
REMARK  status: ('A' for Active; 'I' for Inactive)
REMARK    1  A    between atoms: N1_1  and  C1_2 
REMARK    2  A    between atoms: C7_8  and  C8_9 
REMARK    3  A    between atoms: C14_17  and  C15_18 
ROOT
HETATM    1  C1  UNL     1      23.228   5.695  50.824  1.00  0.00     0.020 A 
HETATM    2  C2  UNL     1      24.355   6.559  50.760  1.00  0.00     0.022 A 
HETATM    3  C3  UNL     1      25.452   6.065  49.975  1.00  0.00    -0.008 A 
HETATM    4  C4  UNL     1      25.073   4.856  49.475  1.00  0.00     0.072 A 
HETATM    5  C5  UNL     1      24.239   3.780  49.253  1.00  0.00     0.034 A 
HETATM    6  C6  UNL     1      23.561   4.617  50.058  1.00  0.00     0.079 A 
HETATM    7  C7  UNL     1      22.922   3.432  50.833  1.00  0.00     0.104 C 
HETATM    8  N3  UNL     1      23.717   2.657  51.393  1.00  0.00    -0.448 NA
HETATM    9  C13 UNL     1      24.636   1.883  51.959  1.00  0.00     0.259 C 
HETATM   10  C14 UNL     1      26.047   2.535  52.131  1.00  0.00     0.288 C 
HETATM   11  N4  UNL     1      26.384   2.884  50.693  1.00  0.00     0.098 N 
HETATM   12  C21 UNL     1      26.171   3.742  49.437  1.00  0.00     0.365 A 
HETATM   13  O1  UNL     1      25.931   3.417  50.604  1.00  0.00    -0.149 OA
HETATM   14  H17 UNL     1      27.188   2.174  50.332  1.00  0.00     0.323 HD
ENDROOT
BRANCH  10  15
HETATM   15  C15 UNL     1      27.026   1.670  52.706  1.00  0.00    -0.020 A 
HETATM   16  C16 UNL     1      27.035   0.312  52.514  1.00  0.00     0.009 A 
HETATM   17  C17 UNL     1      28.009  -0.472  53.092  1.00  0.00     0.002 A 
HETATM   18  C18 UNL     1      28.986   0.109  53.873  1.00  0.00     0.024 A 
HETATM   19  C19 UNL     1      28.992   1.490  54.080  1.00  0.00     0.034 A 
HETATM   20 CL1  UNL     1      30.223   2.231  55.064  1.00  0.00    -0.084 Cl
HETATM   21  C20 UNL     1      28.018   2.237  53.495  1.00  0.00     0.033 A 
ENDBRANCH  10  15
BRANCH   7  22
HETATM   22  C8  UNL     1      21.478   3.514  50.782  1.00  0.00     0.004 A 
HETATM   23  C9  UNL     1      20.584   3.467  51.814  1.00  0.00     0.034 A 
HETATM   24  C10 UNL     1      19.233   3.515  51.544  1.00  0.00     0.117 A 
HETATM   25  N2  UNL     1      18.754   3.607  50.285  1.00  0.00    -0.273 NA
HETATM   26  C11 UNL     1      19.626   3.655  49.262  1.00  0.00     0.117 A 
HETATM   27  C12 UNL     1      21.002   3.612  49.467  1.00  0.00     0.034 A 
ENDBRANCH   7  22
BRANCH   1  28
HETATM   28  N1  UNL     1      22.141   6.105  51.624  1.00  0.00    -0.401 N 
HETATM   29  H1  UNL     1      21.428   5.333  51.739  1.00  0.00     0.156 HD
HETATM   30  H2  UNL     1      21.997   7.041  52.076  1.00  0.00     0.156 HD
ENDBRANCH   1  28
TORSDOF 3
ENDMDL
MODEL 9
REMARK VINA RESULT:      -7.8      6.974     10.259
REMARK  3 active torsions:
REMARK  status: ('A' for Active; 'I' for Inactive)
REMARK    1  A    between atoms: N1_1  and  C1_2 
REMARK    2  A    between atoms: C7_8  and  C8_9 
REMARK    3  A    between atoms: C14_17  and  C15_18 
ROOT
HETATM    1  C1  UNL     1      29.807  10.043  46.597  1.00  0.00     0.020 A 
HETATM    2  C2  UNL     1      28.571  10.746  46.625  1.00  0.00     0.022 A 
HETATM    3  C3  UNL     1      27.918  10.768  47.904  1.00  0.00    -0.008 A 
HETATM    4  C4  UNL     1      28.717  10.089  48.774  1.00  0.00     0.072 A 
HETATM    5  C5  UNL     1      29.820   9.371  49.187  1.00  0.00     0.034 A 
HETATM    6  C6  UNL     1      29.996   9.604  47.874  1.00  0.00     0.079 A 
HETATM    7  C7  UNL     1      30.650   8.210  47.666  1.00  0.00     0.104 C 
HETATM    8  N3  UNL     1      29.945   7.229  47.959  1.00  0.00    -0.448 NA
HETATM    9  C13 UNL     1      29.122   6.241  48.296  1.00  0.00     0.259 C 
HETATM   10  C14 UNL     1      27.608   6.626  48.367  1.00  0.00     0.288 C 
HETATM   11  N4  UNL     1      27.638   7.737  49.401  1.00  0.00     0.098 N 
HETATM   12  C21 UNL     1      27.994   9.173  49.816  1.00  0.00     0.365 A 
HETATM   13  O1  UNL     1      27.949   8.236  49.012  1.00  0.00    -0.149 OA
HETATM   14  H17 UNL     1      27.181   7.346  50.359  1.00  0.00     0.323 HD
ENDROOT
BRANCH  10  15
HETATM   15  C15 UNL     1      26.751   5.558  48.768  1.00  0.00    -0.020 A 
HETATM   16  C16 UNL     1      27.212   4.315  49.117  1.00  0.00     0.009 A 
HETATM   17  C17 UNL     1      26.335   3.323  49.500  1.00  0.00     0.002 A 
HETATM   18  C18 UNL     1      24.980   3.578  49.533  1.00  0.00     0.024 A 
HETATM   19  C19 UNL     1      24.493   4.838  49.180  1.00  0.00     0.034 A 
HETATM   20 CL1  UNL     1      22.783   5.168  49.219  1.00  0.00    -0.084 Cl
HETATM   21  C20 UNL     1      25.383   5.796  48.807  1.00  0.00     0.033 A 
ENDBRANCH  10  15
BRANCH   7  22
HETATM   22  C8  UNL     1      31.976   8.352  47.102  1.00  0.00     0.004 A 
HETATM   23  C9  UNL     1      32.930   9.286  47.390  1.00  0.00     0.034 A 
HETATM   24  C10 UNL     1      34.122   9.274  46.698  1.00  0.00     0.117 A 
HETATM   25  N2  UNL     1      34.386   8.364  45.737  1.00  0.00    -0.273 NA
HETATM   26  C11 UNL     1      33.453   7.439  45.446  1.00  0.00     0.117 A 
HETATM   27  C12 UNL     1      32.230   7.396  46.108  1.00  0.00     0.034 A 
ENDBRANCH   7  22
BRANCH   1  28
HETATM   28  N1  UNL     1      30.468   9.944  45.355  1.00  0.00    -0.401 N 
HETATM   29  H1  UNL     1      31.133   9.122  45.332  1.00  0.00     0.156 HD
HETATM   30  H2  UNL     1      30.361  10.571  44.521  1.00  0.00     0.156 HD
ENDBRANCH   1  28
TORSDOF 3
ENDMDL
