MODEL 1
REMARK VINA RESULT:     -10.4      0.000      0.000
REMARK  4 active torsions:
REMARK  status: ('A' for Active; 'I' for Inactive)
REMARK    1  A    between atoms: C16_18  and  N1_19 
REMARK    2  A    between atoms: N2_21  and  C18_22 
REMARK    3  A    between atoms: C18_22  and  C19_23 
REMARK    4  A    between atoms: C19_23  and  C20_24 
ROOT
HETATM    1  C1  UNL     1      21.076   1.556  48.640  1.00  0.00     0.036 C 
HETATM    2  C2  UNL     1      21.709   1.939  49.926  1.00  0.00    -0.023 C 
HETATM    3  C3  UNL     1      21.444   1.511  51.188  1.00  0.00    -0.046 C 
HETATM    4  C4  UNL     1      20.363   0.547  51.048  1.00  0.00     0.032 C 
HETATM    5  C5  UNL     1      19.696  -0.208  51.934  1.00  0.00     0.135 C 
HETATM    6  O1  UNL     1      20.008  -0.139  53.232  1.00  0.00    -0.356 OA
HETATM    7  C6  UNL     1      20.321  -1.150  54.201  1.00  0.00     0.252 C 
HETATM    8  C7  UNL     1      21.864  -1.085  54.458  1.00  0.00     0.154 C 
HETATM    9  O2  UNL     1      22.477  -1.582  55.411  1.00  0.00    -0.295 OA
HETATM   10  C8  UNL     1      22.446  -0.351  53.397  1.00  0.00     0.109 C 
HETATM   11  C9  UNL     1      23.658   0.257  53.074  1.00  0.00     0.007 C 
HETATM   12  C10 UNL     1      23.581   1.494  52.504  1.00  0.00     0.021 A 
HETATM   13  C11 UNL     1      22.257   2.125  52.252  1.00  0.00     0.099 A 
HETATM   14  C12 UNL     1      22.750   3.457  51.705  1.00  0.00    -0.041 A 
HETATM   15  C13 UNL     1      24.069   3.544  51.596  1.00  0.00     0.015 A 
HETATM   16  C14 UNL     1      24.683   4.814  51.059  1.00  0.00     0.059 C 
HETATM   17  C15 UNL     1      23.843   5.955  51.578  1.00  0.00     0.041 C 
HETATM   18  C16 UNL     1      22.492   5.787  50.899  1.00  0.00     0.222 C 
HETATM   19  C17 UNL     1      21.804   4.531  51.381  1.00  0.00     0.072 C 
HETATM   20  N2  UNL     1      24.627   2.303  52.099  1.00  0.00    -0.353 N 
ENDROOT
BRANCH  20  21
HETATM   21  C18 UNL     1      26.053   2.209  52.060  1.00  0.00     0.129 C 
BRANCH  21  22
HETATM   22  C19 UNL     1      26.670   0.893  51.778  1.00  0.00     0.029 C 
BRANCH  22  23
HETATM   23  C20 UNL     1      27.216   0.246  53.067  1.00  0.00     0.013 A 
HETATM   24  C21 UNL     1      28.497   0.850  53.469  1.00  0.00    -0.022 A 
HETATM   25  C22 UNL     1      29.681   0.248  53.673  1.00  0.00    -0.004 A 
HETATM   26  C23 UNL     1      29.797  -1.188  53.495  1.00  0.00    -0.004 A 
HETATM   27  C24 UNL     1      28.675  -1.764  53.135  1.00  0.00    -0.026 A 
HETATM   28  C25 UNL     1      27.337  -1.226  52.881  1.00  0.00     0.035 A 
ENDBRANCH  22  23
ENDBRANCH  21  22
ENDBRANCH  20  21
BRANCH  18  29
HETATM   29  N1  UNL     1      21.689   6.945  51.171  1.00  0.00     0.083 N 
HETATM   30  H18 UNL     1      21.805   7.235  52.173  1.00  0.00     0.313 HD
HETATM   31  H19 UNL     1      20.694   6.744  50.931  1.00  0.00     0.313 HD
ENDBRANCH  18  29
TORSDOF 4
ENDMDL
MODEL 2
REMARK VINA RESULT:      -9.5      1.231      1.558
REMARK  4 active torsions:
REMARK  status: ('A' for Active; 'I' for Inactive)
REMARK    1  A    between atoms: C16_18  and  N1_19 
REMARK    2  A    between atoms: N2_21  and  C18_22 
REMARK    3  A    between atoms: C18_22  and  C19_23 
REMARK    4  A    between atoms: C19_23  and  C20_24 
ROOT
HETATM    1  C1  UNL     1      21.071   1.925  48.226  1.00  0.00     0.036 C 
HETATM    2  C2  UNL     1      21.578   2.384  49.542  1.00  0.00    -0.023 C 
HETATM    3  C3  UNL     1      21.232   1.987  50.794  1.00  0.00    -0.046 C 
HETATM    4  C4  UNL     1      20.213   0.965  50.607  1.00  0.00     0.032 C 
HETATM    5  C5  UNL     1      19.513   0.209  51.465  1.00  0.00     0.135 C 
HETATM    6  O1  UNL     1      19.716   0.338  52.780  1.00  0.00    -0.356 OA
HETATM    7  C6  UNL     1      19.997  -0.621  53.809  1.00  0.00     0.252 C 
HETATM    8  C7  UNL     1      21.509  -0.469  54.185  1.00  0.00     0.154 C 
HETATM    9  O2  UNL     1      22.065  -0.902  55.202  1.00  0.00    -0.295 OA
HETATM   10  C8  UNL     1      22.139   0.256  53.146  1.00  0.00     0.109 C 
HETATM   11  C9  UNL     1      23.344   0.913  52.897  1.00  0.00     0.007 C 
HETATM   12  C10 UNL     1      23.254   2.123  52.276  1.00  0.00     0.021 A 
HETATM   13  C11 UNL     1      21.926   2.678  51.895  1.00  0.00     0.099 A 
HETATM   14  C12 UNL     1      22.398   4.013  51.338  1.00  0.00    -0.041 A 
HETATM   15  C13 UNL     1      23.715   4.163  51.331  1.00  0.00     0.015 A 
HETATM   16  C14 UNL     1      24.310   5.443  50.796  1.00  0.00     0.059 C 
HETATM   17  C15 UNL     1      23.377   6.558  51.203  1.00  0.00     0.041 C 
HETATM   18  C16 UNL     1      22.095   6.298  50.425  1.00  0.00     0.222 C 
HETATM   19  C17 UNL     1      21.431   5.026  50.898  1.00  0.00     0.072 C 
HETATM   20  N2  UNL     1      24.290   2.970  51.924  1.00  0.00    -0.353 N 
ENDROOT
BRANCH  20  21
HETATM   21  C18 UNL     1      25.717   2.947  52.002  1.00  0.00     0.129 C 
BRANCH  21  22
HETATM   22  C19 UNL     1      26.449   1.871  51.296  1.00  0.00     0.029 C 
BRANCH  22  23
HETATM   23  C20 UNL     1      27.201   0.963  52.290  1.00  0.00     0.013 A 
HETATM   24  C21 UNL     1      26.749  -0.434  52.187  1.00  0.00    -0.022 A 
HETATM   25  C22 UNL     1      26.247  -1.226  53.149  1.00  0.00    -0.004 A 
HETATM   26  C23 UNL     1      26.097  -0.713  54.498  1.00  0.00    -0.004 A 
HETATM   27  C24 UNL     1      26.489   0.533  54.631  1.00  0.00    -0.026 A 
HETATM   28  C25 UNL     1      27.044   1.490  53.673  1.00  0.00     0.035 A 
ENDBRANCH  22  23
ENDBRANCH  21  22
ENDBRANCH  20  21
BRANCH  18  29
HETATM   29  N1  UNL     1      21.219   7.423  50.588  1.00  0.00     0.083 N 
HETATM   30  H18 UNL     1      21.362   8.107  49.806  1.00  0.00     0.313 HD
HETATM   31  H19 UNL     1      21.377   7.855  51.524  1.00  0.00     0.313 HD
ENDBRANCH  18  29
TORSDOF 4
ENDMDL
MODEL 3
REMARK VINA RESULT:      -9.2      1.654      2.395
REMARK  4 active torsions:
REMARK  status: ('A' for Active; 'I' for Inactive)
REMARK    1  A    between atoms: C16_18  and  N1_19 
REMARK    2  A    between atoms: N2_21  and  C18_22 
REMARK    3  A    between atoms: C18_22  and  C19_23 
REMARK    4  A    between atoms: C19_23  and  C20_24 
ROOT
HETATM    1  C1  UNL     1      21.790   1.754  48.229  1.00  0.00     0.036 C 
HETATM    2  C2  UNL     1      21.726   1.814  49.710  1.00  0.00    -0.023 C 
HETATM    3  C3  UNL     1      20.675   1.604  50.545  1.00  0.00    -0.046 C 
HETATM    4  C4  UNL     1      19.552   1.286  49.676  1.00  0.00     0.032 C 
HETATM    5  C5  UNL     1      18.270   0.976  49.922  1.00  0.00     0.135 C 
HETATM    6  O1  UNL     1      17.832   0.918  51.184  1.00  0.00    -0.356 OA
HETATM    7  C6  UNL     1      17.113  -0.090  51.907  1.00  0.00     0.252 C 
HETATM    8  C7  UNL     1      18.129  -0.779  52.879  1.00  0.00     0.154 C 
HETATM    9  O2  UNL     1      17.855  -1.486  53.856  1.00  0.00    -0.295 OA
HETATM   10  C8  UNL     1      19.434  -0.450  52.439  1.00  0.00     0.109 C 
HETATM   11  C9  UNL     1      20.750  -0.520  52.893  1.00  0.00     0.007 C 
HETATM   12  C10 UNL     1      21.523   0.582  52.674  1.00  0.00     0.021 A 
HETATM   13  C11 UNL     1      20.960   1.771  51.981  1.00  0.00     0.099 A 
HETATM   14  C12 UNL     1      22.178   2.679  52.077  1.00  0.00    -0.041 A 
HETATM   15  C13 UNL     1      23.236   2.108  52.637  1.00  0.00     0.015 A 
HETATM   16  C14 UNL     1      24.511   2.903  52.785  1.00  0.00     0.059 C 
HETATM   17  C15 UNL     1      24.104   4.322  53.097  1.00  0.00     0.041 C 
HETATM   18  C16 UNL     1      23.410   4.816  51.836  1.00  0.00     0.222 C 
HETATM   19  C17 UNL     1      22.116   4.069  51.610  1.00  0.00     0.072 C 
HETATM   20  N2  UNL     1      22.848   0.767  53.029  1.00  0.00    -0.353 N 
ENDROOT
BRANCH  20  21
HETATM   21  C18 UNL     1      23.869  -0.012  53.656  1.00  0.00     0.129 C 
BRANCH  21  22
HETATM   22  C19 UNL     1      25.095  -0.327  52.887  1.00  0.00     0.029 C 
BRANCH  22  23
HETATM   23  C20 UNL     1      26.180  -0.940  53.795  1.00  0.00     0.013 A 
HETATM   24  C21 UNL     1      26.782   0.078  54.672  1.00  0.00    -0.022 A 
HETATM   25  C22 UNL     1      28.075   0.424  54.791  1.00  0.00    -0.004 A 
HETATM   26  C23 UNL     1      29.076  -0.247  53.983  1.00  0.00    -0.004 A 
HETATM   27  C24 UNL     1      28.578  -1.162  53.185  1.00  0.00    -0.026 A 
HETATM   28  C25 UNL     1      27.206  -1.625  52.964  1.00  0.00     0.035 A 
ENDBRANCH  22  23
ENDBRANCH  21  22
ENDBRANCH  20  21
BRANCH  18  29
HETATM   29  N1  UNL     1      23.169   6.226  51.962  1.00  0.00     0.083 N 
HETATM   30  H18 UNL     1      23.720   6.751  51.239  1.00  0.00     0.313 HD
HETATM   31  H19 UNL     1      23.398   6.533  52.932  1.00  0.00     0.313 HD
ENDBRANCH  18  29
TORSDOF 4
ENDMDL
MODEL 4
REMARK VINA RESULT:      -9.2      3.633      5.946
REMARK  4 active torsions:
REMARK  status: ('A' for Active; 'I' for Inactive)
REMARK    1  A    between atoms: C16_18  and  N1_19 
REMARK    2  A    between atoms: N2_21  and  C18_22 
REMARK    3  A    between atoms: C18_22  and  C19_23 
REMARK    4  A    between atoms: C19_23  and  C20_24 
ROOT
HETATM    1  C1  UNL     1      21.847   6.812  50.980  1.00  0.00     0.036 C 
HETATM    2  C2  UNL     1      22.530   5.652  50.356  1.00  0.00    -0.023 C 
HETATM    3  C3  UNL     1      23.586   5.620  49.503  1.00  0.00    -0.046 C 
HETATM    4  C4  UNL     1      23.956   7.012  49.296  1.00  0.00     0.032 C 
HETATM    5  C5  UNL     1      24.920   7.600  48.573  1.00  0.00     0.135 C 
HETATM    6  O1  UNL     1      25.769   6.849  47.863  1.00  0.00    -0.356 OA
HETATM    7  C6  UNL     1      27.201   6.818  47.795  1.00  0.00     0.252 C 
HETATM    8  C7  UNL     1      27.675   5.537  48.560  1.00  0.00     0.154 C 
HETATM    9  O2  UNL     1      28.788   5.004  48.491  1.00  0.00    -0.295 OA
HETATM   10  C8  UNL     1      26.594   5.089  49.357  1.00  0.00     0.109 C 
HETATM   11  C9  UNL     1      26.222   3.968  50.098  1.00  0.00     0.007 C 
HETATM   12  C10 UNL     1      24.932   3.550  49.955  1.00  0.00     0.021 A 
HETATM   13  C11 UNL     1      24.000   4.279  49.052  1.00  0.00     0.099 A 
HETATM   14  C12 UNL     1      22.786   3.376  49.213  1.00  0.00    -0.041 A 
HETATM   15  C13 UNL     1      22.959   2.385  50.078  1.00  0.00     0.015 A 
HETATM   16  C14 UNL     1      21.825   1.422  50.332  1.00  0.00     0.059 C 
HETATM   17  C15 UNL     1      21.121   1.222  49.012  1.00  0.00     0.041 C 
HETATM   18  C16 UNL     1      20.499   2.574  48.693  1.00  0.00     0.222 C 
HETATM   19  C17 UNL     1      21.570   3.605  48.424  1.00  0.00     0.072 C 
HETATM   20  N2  UNL     1      24.321   2.471  50.569  1.00  0.00    -0.353 N 
ENDROOT
BRANCH  20  21
HETATM   21  C18 UNL     1      24.697   1.475  51.523  1.00  0.00     0.129 C 
BRANCH  21  22
HETATM   22  C19 UNL     1      24.881   1.879  52.935  1.00  0.00     0.029 C 
BRANCH  22  23
HETATM   23  C20 UNL     1      25.543   0.752  53.754  1.00  0.00     0.013 A 
HETATM   24  C21 UNL     1      26.956   1.053  54.037  1.00  0.00    -0.022 A 
HETATM   25  C22 UNL     1      28.044   0.324  53.740  1.00  0.00    -0.004 A 
HETATM   26  C23 UNL     1      27.895  -0.943  53.049  1.00  0.00    -0.004 A 
HETATM   27  C24 UNL     1      26.647  -1.247  52.778  1.00  0.00    -0.026 A 
HETATM   28  C25 UNL     1      25.390  -0.546  53.043  1.00  0.00     0.035 A 
ENDBRANCH  22  23
ENDBRANCH  21  22
ENDBRANCH  20  21
BRANCH  18  29
HETATM   29  N1  UNL     1      19.634   2.429  47.556  1.00  0.00     0.083 N 
HETATM   30  H18 UNL     1      19.404   3.371  47.157  1.00  0.00     0.313 HD
HETATM   31  H19 UNL     1      18.781   1.898  47.834  1.00  0.00     0.313 HD
ENDBRANCH  18  29
TORSDOF 4
ENDMDL
MODEL 5
REMARK VINA RESULT:      -9.0      7.315      9.038
REMARK  4 active torsions:
REMARK  status: ('A' for Active; 'I' for Inactive)
REMARK    1  A    between atoms: C16_18  and  N1_19 
REMARK    2  A    between atoms: N2_21  and  C18_22 
REMARK    3  A    between atoms: C18_22  and  C19_23 
REMARK    4  A    between atoms: C19_23  and  C20_24 
ROOT
HETATM    1  C1  UNL     1      26.089   8.950  45.599  1.00  0.00     0.036 C 
HETATM    2  C2  UNL     1      27.021   8.504  46.664  1.00  0.00    -0.023 C 
HETATM    3  C3  UNL     1      26.792   7.715  47.745  1.00  0.00    -0.046 C 
HETATM    4  C4  UNL     1      25.384   7.358  47.671  1.00  0.00     0.032 C 
HETATM    5  C5  UNL     1      24.595   6.598  48.445  1.00  0.00     0.135 C 
HETATM    6  O1  UNL     1      25.105   6.000  49.527  1.00  0.00    -0.356 OA
HETATM    7  C6  UNL     1      25.070   4.639  49.979  1.00  0.00     0.252 C 
HETATM    8  C7  UNL     1      26.491   4.031  49.732  1.00  0.00     0.154 C 
HETATM    9  O2  UNL     1      26.951   2.997  50.232  1.00  0.00    -0.295 OA
HETATM   10  C8  UNL     1      27.168   4.878  48.822  1.00  0.00     0.109 C 
HETATM   11  C9  UNL     1      28.456   5.083  48.329  1.00  0.00     0.007 C 
HETATM   12  C10 UNL     1      28.863   6.381  48.227  1.00  0.00     0.021 A 
HETATM   13  C11 UNL     1      27.953   7.489  48.625  1.00  0.00     0.099 A 
HETATM   14  C12 UNL     1      28.906   8.652  48.388  1.00  0.00    -0.041 A 
HETATM   15  C13 UNL     1      30.083   8.295  47.892  1.00  0.00     0.015 A 
HETATM   16  C14 UNL     1      31.117   9.358  47.607  1.00  0.00     0.059 C 
HETATM   17  C15 UNL     1      30.985  10.395  48.695  1.00  0.00     0.041 C 
HETATM   18  C16 UNL     1      29.617  11.025  48.472  1.00  0.00     0.222 C 
HETATM   19  C17 UNL     1      28.517  10.023  48.736  1.00  0.00     0.072 C 
HETATM   20  N2  UNL     1      30.085   6.849  47.778  1.00  0.00    -0.353 N 
ENDROOT
BRANCH  20  21
HETATM   21  C18 UNL     1      31.284   6.274  47.254  1.00  0.00     0.129 C 
BRANCH  21  22
HETATM   22  C19 UNL     1      32.296   5.756  48.204  1.00  0.00     0.029 C 
BRANCH  22  23
HETATM   23  C20 UNL     1      33.680   5.639  47.533  1.00  0.00     0.013 A 
HETATM   24  C21 UNL     1      33.556   5.386  46.088  1.00  0.00    -0.022 A 
HETATM   25  C22 UNL     1      34.059   4.370  45.368  1.00  0.00    -0.004 A 
HETATM   26  C23 UNL     1      34.842   3.341  46.026  1.00  0.00    -0.004 A 
HETATM   27  C24 UNL     1      34.975   3.530  47.318  1.00  0.00    -0.026 A 
HETATM   28  C25 UNL     1      34.480   4.581  48.208  1.00  0.00     0.035 A 
ENDBRANCH  22  23
ENDBRANCH  21  22
ENDBRANCH  20  21
BRANCH  18  29
HETATM   29  N1  UNL     1      29.487  12.166  49.333  1.00  0.00     0.083 N 
HETATM   30  H18 UNL     1      29.849  13.024  48.850  1.00  0.00     0.313 HD
HETATM   31  H19 UNL     1      29.980  11.981  50.233  1.00  0.00     0.313 HD
ENDBRANCH  18  29
TORSDOF 4
ENDMDL
MODEL 6
REMARK VINA RESULT:      -8.8      4.054      6.720
REMARK  4 active torsions:
REMARK  status: ('A' for Active; 'I' for Inactive)
REMARK    1  A    between atoms: C16_18  and  N1_19 
REMARK    2  A    between atoms: N2_21  and  C18_22 
REMARK    3  A    between atoms: C18_22  and  C19_23 
REMARK    4  A    between atoms: C19_23  and  C20_24 
ROOT
HETATM    1  C1  UNL     1      21.632   7.114  50.694  1.00  0.00     0.036 C 
HETATM    2  C2  UNL     1      22.320   5.959  50.066  1.00  0.00    -0.023 C 
HETATM    3  C3  UNL     1      23.420   5.930  49.270  1.00  0.00    -0.046 C 
HETATM    4  C4  UNL     1      23.835   7.318  49.135  1.00  0.00     0.032 C 
HETATM    5  C5  UNL     1      24.852   7.906  48.487  1.00  0.00     0.135 C 
HETATM    6  O1  UNL     1      25.719   7.158  47.797  1.00  0.00    -0.356 OA
HETATM    7  C6  UNL     1      27.152   7.092  47.806  1.00  0.00     0.252 C 
HETATM    8  C7  UNL     1      27.551   5.772  48.548  1.00  0.00     0.154 C 
HETATM    9  O2  UNL     1      28.654   5.212  48.520  1.00  0.00    -0.295 OA
HETATM   10  C8  UNL     1      26.417   5.325  49.268  1.00  0.00     0.109 C 
HETATM   11  C9  UNL     1      25.978   4.188  49.946  1.00  0.00     0.007 C 
HETATM   12  C10 UNL     1      24.688   3.810  49.718  1.00  0.00     0.021 A 
HETATM   13  C11 UNL     1      23.826   4.595  48.794  1.00  0.00     0.099 A 
HETATM   14  C12 UNL     1      22.583   3.719  48.855  1.00  0.00    -0.041 A 
HETATM   15  C13 UNL     1      22.683   2.694  49.691  1.00  0.00     0.015 A 
HETATM   16  C14 UNL     1      21.514   1.752  49.847  1.00  0.00     0.059 C 
HETATM   17  C15 UNL     1      20.879   1.619  48.485  1.00  0.00     0.041 C 
HETATM   18  C16 UNL     1      20.309   2.997  48.182  1.00  0.00     0.222 C 
HETATM   19  C17 UNL     1      21.418   4.008  48.010  1.00  0.00     0.072 C 
HETATM   20  N2  UNL     1      24.018   2.727  50.258  1.00  0.00    -0.353 N 
ENDROOT
BRANCH  20  21
HETATM   21  C18 UNL     1      24.316   1.688  51.193  1.00  0.00     0.129 C 
BRANCH  21  22
HETATM   22  C19 UNL     1      23.609   1.680  52.494  1.00  0.00     0.029 C 
BRANCH  22  23
HETATM   23  C20 UNL     1      22.846   0.357  52.705  1.00  0.00     0.013 A 
HETATM   24  C21 UNL     1      21.548   0.584  53.362  1.00  0.00    -0.022 A 
HETATM   25  C22 UNL     1      21.082   0.053  54.504  1.00  0.00    -0.004 A 
HETATM   26  C23 UNL     1      21.906  -0.878  55.253  1.00  0.00    -0.004 A 
HETATM   27  C24 UNL     1      23.073  -1.107  54.700  1.00  0.00    -0.026 A 
HETATM   28  C25 UNL     1      23.691  -0.596  53.474  1.00  0.00     0.035 A 
ENDBRANCH  22  23
ENDBRANCH  21  22
ENDBRANCH  20  21
BRANCH  18  29
HETATM   29  N1  UNL     1      19.505   2.915  46.996  1.00  0.00     0.083 N 
HETATM   30  H18 UNL     1      19.867   3.580  46.269  1.00  0.00     0.313 HD
HETATM   31  H19 UNL     1      18.507   3.099  47.238  1.00  0.00     0.313 HD
ENDBRANCH  18  29
TORSDOF 4
ENDMDL
MODEL 7
REMARK VINA RESULT:      -8.8      3.207      5.356
REMARK  4 active torsions:
REMARK  status: ('A' for Active; 'I' for Inactive)
REMARK    1  A    between atoms: C16_18  and  N1_19 
REMARK    2  A    between atoms: N2_21  and  C18_22 
REMARK    3  A    between atoms: C18_22  and  C19_23 
REMARK    4  A    between atoms: C19_23  and  C20_24 
ROOT
HETATM    1  C1  UNL     1      21.668   1.000  50.266  1.00  0.00     0.036 C 
HETATM    2  C2  UNL     1      22.774   1.911  50.652  1.00  0.00    -0.023 C 
HETATM    3  C3  UNL     1      23.650   1.828  51.686  1.00  0.00    -0.046 C 
HETATM    4  C4  UNL     1      23.295   0.606  52.393  1.00  0.00     0.032 C 
HETATM    5  C5  UNL     1      23.804  -0.000  53.475  1.00  0.00     0.135 C 
HETATM    6  O1  UNL     1      24.852   0.540  54.106  1.00  0.00    -0.356 OA
HETATM    7  C6  UNL     1      26.116  -0.005  54.510  1.00  0.00     0.252 C 
HETATM    8  C7  UNL     1      27.200   0.559  53.530  1.00  0.00     0.154 C 
HETATM    9  O2  UNL     1      28.424   0.561  53.703  1.00  0.00    -0.295 OA
HETATM   10  C8  UNL     1      26.526   1.070  52.395  1.00  0.00     0.109 C 
HETATM   11  C9  UNL     1      26.791   1.862  51.278  1.00  0.00     0.007 C 
HETATM   12  C10 UNL     1      25.850   2.798  50.966  1.00  0.00     0.021 A 
HETATM   13  C11 UNL     1      24.619   2.933  51.791  1.00  0.00     0.099 A 
HETATM   14  C12 UNL     1      23.998   4.120  51.068  1.00  0.00    -0.041 A 
HETATM   15  C13 UNL     1      24.687   4.531  50.012  1.00  0.00     0.015 A 
HETATM   16  C14 UNL     1      24.173   5.698  49.204  1.00  0.00     0.059 C 
HETATM   17  C15 UNL     1      23.553   6.664  50.185  1.00  0.00     0.041 C 
HETATM   18  C16 UNL     1      22.340   5.933  50.740  1.00  0.00     0.222 C 
HETATM   19  C17 UNL     1      22.766   4.741  51.566  1.00  0.00     0.072 C 
HETATM   20  N2  UNL     1      25.875   3.704  49.921  1.00  0.00    -0.353 N 
ENDROOT
BRANCH  20  21
HETATM   21  C18 UNL     1      26.750   4.001  48.830  1.00  0.00     0.129 C 
BRANCH  21  22
HETATM   22  C19 UNL     1      27.930   4.861  49.080  1.00  0.00     0.029 C 
BRANCH  22  23
HETATM   23  C20 UNL     1      27.922   6.098  48.159  1.00  0.00     0.013 A 
HETATM   24  C21 UNL     1      29.287   6.472  47.753  1.00  0.00    -0.022 A 
HETATM   25  C22 UNL     1      29.918   7.647  47.916  1.00  0.00    -0.004 A 
HETATM   26  C23 UNL     1      29.232   8.747  48.569  1.00  0.00    -0.004 A 
HETATM   27  C24 UNL     1      28.011   8.452  48.948  1.00  0.00    -0.026 A 
HETATM   28  C25 UNL     1      27.221   7.224  48.832  1.00  0.00     0.035 A 
ENDBRANCH  22  23
ENDBRANCH  21  22
ENDBRANCH  20  21
BRANCH  18  29
HETATM   29  N1  UNL     1      21.567   6.850  51.529  1.00  0.00     0.083 N 
HETATM   30  H18 UNL     1      22.141   7.205  52.332  1.00  0.00     0.313 HD
HETATM   31  H19 UNL     1      20.690   6.384  51.846  1.00  0.00     0.313 HD
ENDBRANCH  18  29
TORSDOF 4
ENDMDL
MODEL 8
REMARK VINA RESULT:      -8.2      4.306      6.022
REMARK  4 active torsions:
REMARK  status: ('A' for Active; 'I' for Inactive)
REMARK    1  A    between atoms: C16_18  and  N1_19 
REMARK    2  A    between atoms: N2_21  and  C18_22 
REMARK    3  A    between atoms: C18_22  and  C19_23 
REMARK    4  A    between atoms: C19_23  and  C20_24 
ROOT
HETATM    1  C1  UNL     1      22.069   3.264  47.408  1.00  0.00     0.036 C 
HETATM    2  C2  UNL     1      22.972   4.106  48.231  1.00  0.00    -0.023 C 
HETATM    3  C3  UNL     1      23.577   3.833  49.416  1.00  0.00    -0.046 C 
HETATM    4  C4  UNL     1      23.162   2.481  49.757  1.00  0.00     0.032 C 
HETATM    5  C5  UNL     1      23.444   1.676  50.792  1.00  0.00     0.135 C 
HETATM    6  O1  UNL     1      24.263   2.102  51.760  1.00  0.00    -0.356 OA
HETATM    7  C6  UNL     1      25.432   1.523  52.355  1.00  0.00     0.252 C 
HETATM    8  C7  UNL     1      26.670   2.312  51.810  1.00  0.00     0.154 C 
HETATM    9  O2  UNL     1      27.812   2.314  52.283  1.00  0.00    -0.295 OA
HETATM   10  C8  UNL     1      26.250   3.030  50.664  1.00  0.00     0.109 C 
HETATM   11  C9  UNL     1      26.710   4.047  49.828  1.00  0.00     0.007 C 
HETATM   12  C10 UNL     1      25.799   4.999  49.478  1.00  0.00     0.021 A 
HETATM   13  C11 UNL     1      24.399   4.921  49.976  1.00  0.00     0.099 A 
HETATM   14  C12 UNL     1      23.877   6.214  49.367  1.00  0.00    -0.041 A 
HETATM   15  C13 UNL     1      24.763   6.858  48.620  1.00  0.00     0.015 A 
HETATM   16  C14 UNL     1      24.366   8.153  47.954  1.00  0.00     0.059 C 
HETATM   17  C15 UNL     1      23.452   8.873  48.916  1.00  0.00     0.041 C 
HETATM   18  C16 UNL     1      22.204   8.005  48.993  1.00  0.00     0.222 C 
HETATM   19  C17 UNL     1      22.514   6.680  49.650  1.00  0.00     0.072 C 
HETATM   20  N2  UNL     1      26.002   6.104  48.671  1.00  0.00    -0.353 N 
ENDROOT
BRANCH  20  21
HETATM   21  C18 UNL     1      27.087   6.650  47.917  1.00  0.00     0.129 C 
BRANCH  21  22
HETATM   22  C19 UNL     1      27.971   7.646  48.563  1.00  0.00     0.029 C 
BRANCH  22  23
HETATM   23  C20 UNL     1      29.406   7.561  48.007  1.00  0.00     0.013 A 
HETATM   24  C21 UNL     1      29.836   6.162  47.844  1.00  0.00    -0.022 A 
HETATM   25  C22 UNL     1      30.908   5.547  48.371  1.00  0.00    -0.004 A 
HETATM   26  C23 UNL     1      31.815   6.290  49.227  1.00  0.00    -0.004 A 
HETATM   27  C24 UNL     1      31.465   7.543  49.397  1.00  0.00    -0.026 A 
HETATM   28  C25 UNL     1      30.335   8.321  48.886  1.00  0.00     0.035 A 
ENDBRANCH  22  23
ENDBRANCH  21  22
ENDBRANCH  20  21
BRANCH  18  29
HETATM   29  N1  UNL     1      21.193   8.713  49.725  1.00  0.00     0.083 N 
HETATM   30  H18 UNL     1      21.589   9.075  50.627  1.00  0.00     0.313 HD
HETATM   31  H19 UNL     1      20.371   8.088  49.878  1.00  0.00     0.313 HD
ENDBRANCH  18  29
TORSDOF 4
ENDMDL
MODEL 9
REMARK VINA RESULT:      -8.0      6.377      7.953
REMARK  4 active torsions:
REMARK  status: ('A' for Active; 'I' for Inactive)
REMARK    1  A    between atoms: C16_18  and  N1_19 
REMARK    2  A    between atoms: N2_21  and  C18_22 
REMARK    3  A    between atoms: C18_22  and  C19_23 
REMARK    4  A    between atoms: C19_23  and  C20_24 
ROOT
HETATM    1  C1  UNL     1      24.252   7.779  45.860  1.00  0.00     0.036 C 
HETATM    2  C2  UNL     1      25.385   7.683  46.813  1.00  0.00    -0.023 C 
HETATM    3  C3  UNL     1      25.473   7.024  47.997  1.00  0.00    -0.046 C 
HETATM    4  C4  UNL     1      24.179   6.384  48.178  1.00  0.00     0.032 C 
HETATM    5  C5  UNL     1      23.679   5.597  49.142  1.00  0.00     0.135 C 
HETATM    6  O1  UNL     1      24.439   5.271  50.193  1.00  0.00    -0.356 OA
HETATM    7  C6  UNL     1      24.760   4.009  50.793  1.00  0.00     0.252 C 
HETATM    8  C7  UNL     1      26.238   3.671  50.401  1.00  0.00     0.154 C 
HETATM    9  O2  UNL     1      26.972   2.832  50.937  1.00  0.00    -0.295 OA
HETATM   10  C8  UNL     1      26.593   4.501  49.311  1.00  0.00     0.109 C 
HETATM   11  C9  UNL     1      27.733   4.891  48.608  1.00  0.00     0.007 C 
HETATM   12  C10 UNL     1      27.829   6.216  48.303  1.00  0.00     0.021 A 
HETATM   13  C11 UNL     1      26.755   7.163  48.709  1.00  0.00     0.099 A 
HETATM   14  C12 UNL     1      27.393   8.449  48.204  1.00  0.00    -0.041 A 
HETATM   15  C13 UNL     1      28.548   8.271  47.576  1.00  0.00     0.015 A 
HETATM   16  C14 UNL     1      29.279   9.469  47.021  1.00  0.00     0.059 C 
HETATM   17  C15 UNL     1      29.060  10.601  47.996  1.00  0.00     0.041 C 
HETATM   18  C16 UNL     1      27.571  10.904  47.915  1.00  0.00     0.222 C 
HETATM   19  C17 UNL     1      26.759   9.749  48.453  1.00  0.00     0.072 C 
HETATM   20  N2  UNL     1      28.852   6.853  47.623  1.00  0.00    -0.353 N 
ENDROOT
BRANCH  20  21
HETATM   21  C18 UNL     1      30.073   6.464  46.990  1.00  0.00     0.129 C 
BRANCH  21  22
HETATM   22  C19 UNL     1      31.347   6.669  47.718  1.00  0.00     0.029 C 
BRANCH  22  23
HETATM   23  C20 UNL     1      31.954   5.324  48.166  1.00  0.00     0.013 A 
HETATM   24  C21 UNL     1      33.424   5.392  48.224  1.00  0.00    -0.022 A 
HETATM   25  C22 UNL     1      34.325   4.623  47.590  1.00  0.00    -0.004 A 
HETATM   26  C23 UNL     1      33.872   3.559  46.712  1.00  0.00    -0.004 A 
HETATM   27  C24 UNL     1      32.565   3.467  46.633  1.00  0.00    -0.026 A 
HETATM   28  C25 UNL     1      31.490   4.235  47.263  1.00  0.00     0.035 A 
ENDBRANCH  22  23
ENDBRANCH  21  22
ENDBRANCH  20  21
BRANCH  18  29
HETATM   29  N1  UNL     1      27.302  12.105  48.655  1.00  0.00     0.083 N 
HETATM   30  H18 UNL     1      27.568  12.945  48.086  1.00  0.00     0.313 HD
HETATM   31  H19 UNL     1      27.805  12.071  49.568  1.00  0.00     0.313 HD
ENDBRANCH  18  29
TORSDOF 4
ENDMDL
