MODEL 1
REMARK VINA RESULT:      -6.9      0.000      0.000
REMARK  5 active torsions:
REMARK  status: ('A' for Active; 'I' for Inactive)
REMARK    1  A    between atoms: C2_2  and  O1_3 
REMARK    2  A    between atoms: O1_3  and  C3_4 
REMARK    3  A    between atoms: N1_10  and  C8_11 
REMARK    4  A    between atoms: N2_12  and  C9_13 
REMARK    5  A    between atoms: C9_13  and  C11_15 
ROOT
HETATM    1  C8  UNL     1      25.017   2.626  53.764  1.00  0.00     0.227 C 
HETATM    2  N2  UNL     1      26.123   2.028  54.062  1.00  0.00    -0.273 NA
ENDROOT
BRANCH   1   3
HETATM    3  N1  UNL     1      25.184   2.876  52.397  1.00  0.00    -0.246 NA
HETATM    4  C7  UNL     1      24.356   2.623  51.457  1.00  0.00     0.072 C 
HETATM    5  C3  UNL     1      23.004   2.010  51.487  1.00  0.00     0.314 C 
HETATM    6  C6  UNL     1      24.829   3.011  50.099  1.00  0.00     0.089 C 
HETATM    7  O2  UNL     1      22.127   2.800  50.693  1.00  0.00    -0.327 OA
HETATM    8  C4  UNL     1      22.440   2.960  49.356  1.00  0.00     0.135 C 
HETATM    9  C5  UNL     1      23.740   3.057  49.100  1.00  0.00     0.003 C 
BRANCH   5  10
HETATM   10  O1  UNL     1      22.519   1.876  52.789  1.00  0.00    -0.356 OA
BRANCH  10  11
HETATM   11  C2  UNL     1      21.875   0.653  52.971  1.00  0.00     0.167 C 
HETATM   12  C1  UNL     1      22.875  -0.342  53.569  1.00  0.00     0.033 C 
ENDBRANCH  10  11
ENDBRANCH   5  10
ENDBRANCH   1   3
BRANCH   2  13
HETATM   13  C9  UNL     1      27.102   1.810  53.035  1.00  0.00     0.138 C 
HETATM   14  C10 UNL     1      28.374   2.516  53.501  1.00  0.00     0.039 C 
BRANCH  13  15
HETATM   15  C11 UNL     1      27.439   0.353  52.961  1.00  0.00    -0.033 A 
HETATM   16  C12 UNL     1      26.521  -0.551  52.424  1.00  0.00     0.009 A 
HETATM   17  C13 UNL     1      26.825  -1.904  52.352  1.00  0.00     0.001 A 
HETATM   18  C14 UNL     1      28.048  -2.377  52.812  1.00  0.00     0.007 A 
HETATM   19  C15 UNL     1      28.976  -1.490  53.350  1.00  0.00    -0.061 A 
HETATM   20  C16 UNL     1      30.313  -1.951  53.861  1.00  0.00     0.048 C 
HETATM   21  C17 UNL     1      28.653  -0.151  53.412  1.00  0.00     0.016 A 
ENDBRANCH  13  15
ENDBRANCH   2  13
TORSDOF 5
ENDMDL
MODEL 2
REMARK VINA RESULT:      -6.7      2.420      5.829
REMARK  5 active torsions:
REMARK  status: ('A' for Active; 'I' for Inactive)
REMARK    1  A    between atoms: C2_2  and  O1_3 
REMARK    2  A    between atoms: O1_3  and  C3_4 
REMARK    3  A    between atoms: N1_10  and  C8_11 
REMARK    4  A    between atoms: N2_12  and  C9_13 
REMARK    5  A    between atoms: C9_13  and  C11_15 
ROOT
HETATM    1  C8  UNL     1      23.867   3.360  52.135  1.00  0.00     0.227 C 
HETATM    2  N2  UNL     1      23.535   3.672  50.926  1.00  0.00    -0.273 NA
ENDROOT
BRANCH   1   3
HETATM    3  N1  UNL     1      25.066   2.666  51.934  1.00  0.00    -0.246 NA
HETATM    4  C7  UNL     1      25.422   1.564  52.473  1.00  0.00     0.072 C 
HETATM    5  C3  UNL     1      24.726   0.685  53.446  1.00  0.00     0.314 C 
HETATM    6  C6  UNL     1      26.766   1.079  52.052  1.00  0.00     0.089 C 
HETATM    7  O2  UNL     1      24.821  -0.661  52.993  1.00  0.00    -0.327 OA
HETATM    8  C4  UNL     1      26.084  -1.198  52.835  1.00  0.00     0.135 C 
HETATM    9  C5  UNL     1      26.996  -0.344  52.384  1.00  0.00     0.003 C 
BRANCH   5  10
HETATM   10  O1  UNL     1      23.395   1.060  53.632  1.00  0.00    -0.356 OA
BRANCH  10  11
HETATM   11  C2  UNL     1      22.524   0.007  53.350  1.00  0.00     0.167 C 
HETATM   12  C1  UNL     1      21.567  -0.166  54.534  1.00  0.00     0.033 C 
ENDBRANCH  10  11
ENDBRANCH   5  10
ENDBRANCH   1   3
BRANCH   2  13
HETATM   13  C9  UNL     1      24.382   3.271  49.839  1.00  0.00     0.138 C 
HETATM   14  C10 UNL     1      23.450   2.820  48.716  1.00  0.00     0.039 C 
BRANCH  13  15
HETATM   15  C11 UNL     1      25.124   4.459  49.312  1.00  0.00    -0.033 A 
HETATM   16  C12 UNL     1      24.439   5.644  49.033  1.00  0.00     0.009 A 
HETATM   17  C13 UNL     1      25.119   6.751  48.543  1.00  0.00     0.001 A 
HETATM   18  C14 UNL     1      26.490   6.696  48.325  1.00  0.00     0.007 A 
HETATM   19  C15 UNL     1      27.189   5.524  48.598  1.00  0.00    -0.061 A 
HETATM   20  C16 UNL     1      28.673   5.414  48.379  1.00  0.00     0.048 C 
HETATM   21  C17 UNL     1      26.494   4.437  49.083  1.00  0.00     0.016 A 
ENDBRANCH  13  15
ENDBRANCH   2  13
TORSDOF 5
ENDMDL
MODEL 3
REMARK VINA RESULT:      -6.7      1.778      2.702
REMARK  5 active torsions:
REMARK  status: ('A' for Active; 'I' for Inactive)
REMARK    1  A    between atoms: C2_2  and  O1_3 
REMARK    2  A    between atoms: O1_3  and  C3_4 
REMARK    3  A    between atoms: N1_10  and  C8_11 
REMARK    4  A    between atoms: N2_12  and  C9_13 
REMARK    5  A    between atoms: C9_13  and  C11_15 
ROOT
HETATM    1  C8  UNL     1      24.249   1.819  51.367  1.00  0.00     0.227 C 
HETATM    2  N2  UNL     1      24.817   1.246  52.376  1.00  0.00    -0.273 NA
ENDROOT
BRANCH   1   3
HETATM    3  N1  UNL     1      25.314   2.533  50.804  1.00  0.00    -0.246 NA
HETATM    4  C7  UNL     1      25.246   3.473  49.942  1.00  0.00     0.072 C 
HETATM    5  C3  UNL     1      24.077   4.100  49.273  1.00  0.00     0.314 C 
HETATM    6  C6  UNL     1      26.565   4.036  49.539  1.00  0.00     0.089 C 
HETATM    7  O2  UNL     1      24.226   5.514  49.327  1.00  0.00    -0.327 OA
HETATM    8  C4  UNL     1      25.344   6.066  48.730  1.00  0.00     0.135 C 
HETATM    9  C5  UNL     1      26.449   5.337  48.846  1.00  0.00     0.003 C 
BRANCH   5  10
HETATM   10  O1  UNL     1      22.869   3.700  49.847  1.00  0.00    -0.356 OA
BRANCH  10  11
HETATM   11  C2  UNL     1      22.068   4.796  50.165  1.00  0.00     0.167 C 
HETATM   12  C1  UNL     1      21.637   4.678  51.630  1.00  0.00     0.033 C 
ENDBRANCH  10  11
ENDBRANCH   5  10
ENDBRANCH   1   3
BRANCH   2  13
HETATM   13  C9  UNL     1      26.214   1.471  52.616  1.00  0.00     0.138 C 
HETATM   14  C10 UNL     1      26.311   2.112  54.000  1.00  0.00     0.039 C 
BRANCH  13  15
HETATM   15  C11 UNL     1      26.927   0.159  52.715  1.00  0.00    -0.033 A 
HETATM   16  C12 UNL     1      26.307  -1.010  52.266  1.00  0.00     0.009 A 
HETATM   17  C13 UNL     1      26.961  -2.232  52.355  1.00  0.00     0.001 A 
HETATM   18  C14 UNL     1      28.241  -2.309  52.890  1.00  0.00     0.007 A 
HETATM   19  C15 UNL     1      28.874  -1.155  53.343  1.00  0.00    -0.061 A 
HETATM   20  C16 UNL     1      30.259  -1.186  53.930  1.00  0.00     0.048 C 
HETATM   21  C17 UNL     1      28.207   0.048  53.246  1.00  0.00     0.016 A 
ENDBRANCH  13  15
ENDBRANCH   2  13
TORSDOF 5
ENDMDL
MODEL 4
REMARK VINA RESULT:      -6.5      2.320      6.651
REMARK  5 active torsions:
REMARK  status: ('A' for Active; 'I' for Inactive)
REMARK    1  A    between atoms: C2_2  and  O1_3 
REMARK    2  A    between atoms: O1_3  and  C3_4 
REMARK    3  A    between atoms: N1_10  and  C8_11 
REMARK    4  A    between atoms: N2_12  and  C9_13 
REMARK    5  A    between atoms: C9_13  and  C11_15 
ROOT
HETATM    1  C8  UNL     1      25.818   1.916  51.616  1.00  0.00     0.227 C 
HETATM    2  N2  UNL     1      25.278   2.935  51.034  1.00  0.00    -0.273 NA
ENDROOT
BRANCH   1   3
HETATM    3  N1  UNL     1      24.715   1.323  52.241  1.00  0.00    -0.246 NA
HETATM    4  C7  UNL     1      24.720   0.322  53.034  1.00  0.00     0.072 C 
HETATM    5  C3  UNL     1      25.837  -0.517  53.539  1.00  0.00     0.314 C 
HETATM    6  C6  UNL     1      23.374  -0.073  53.537  1.00  0.00     0.089 C 
HETATM    7  O2  UNL     1      25.688  -0.675  54.945  1.00  0.00    -0.327 OA
HETATM    8  C4  UNL     1      24.529  -1.273  55.405  1.00  0.00     0.135 C 
HETATM    9  C5  UNL     1      23.437  -0.968  54.712  1.00  0.00     0.003 C 
BRANCH   5  10
HETATM   10  O1  UNL     1      27.083   0.027  53.225  1.00  0.00    -0.356 OA
BRANCH  10  11
HETATM   11  C2  UNL     1      27.942   0.004  54.323  1.00  0.00     0.167 C 
HETATM   12  C1  UNL     1      29.277  -0.608  53.888  1.00  0.00     0.033 C 
ENDBRANCH  10  11
ENDBRANCH   5  10
ENDBRANCH   1   3
BRANCH   2  13
HETATM   13  C9  UNL     1      23.866   3.155  51.171  1.00  0.00     0.138 C 
HETATM   14  C10 UNL     1      23.707   4.569  51.726  1.00  0.00     0.039 C 
BRANCH  13  15
HETATM   15  C11 UNL     1      23.224   3.165  49.818  1.00  0.00    -0.033 A 
HETATM   16  C12 UNL     1      22.673   1.992  49.296  1.00  0.00     0.009 A 
HETATM   17  C13 UNL     1      22.076   1.993  48.043  1.00  0.00     0.001 A 
HETATM   18  C14 UNL     1      22.017   3.159  47.290  1.00  0.00     0.007 A 
HETATM   19  C15 UNL     1      22.561   4.337  47.794  1.00  0.00    -0.061 A 
HETATM   20  C16 UNL     1      22.523   5.626  47.019  1.00  0.00     0.048 C 
HETATM   21  C17 UNL     1      23.150   4.315  49.041  1.00  0.00     0.016 A 
ENDBRANCH  13  15
ENDBRANCH   2  13
TORSDOF 5
ENDMDL
MODEL 5
REMARK VINA RESULT:      -6.4      2.604      5.111
REMARK  5 active torsions:
REMARK  status: ('A' for Active; 'I' for Inactive)
REMARK    1  A    between atoms: C2_2  and  O1_3 
REMARK    2  A    between atoms: O1_3  and  C3_4 
REMARK    3  A    between atoms: N1_10  and  C8_11 
REMARK    4  A    between atoms: N2_12  and  C9_13 
REMARK    5  A    between atoms: C9_13  and  C11_15 
ROOT
HETATM    1  C8  UNL     1      24.113   3.283  52.352  1.00  0.00     0.227 C 
HETATM    2  N2  UNL     1      24.443   2.225  53.014  1.00  0.00    -0.273 NA
ENDROOT
BRANCH   1   3
HETATM    3  N1  UNL     1      23.646   2.737  51.150  1.00  0.00    -0.246 NA
HETATM    4  C7  UNL     1      23.072   3.355  50.191  1.00  0.00     0.072 C 
HETATM    5  C3  UNL     1      22.718   4.788  50.026  1.00  0.00     0.314 C 
HETATM    6  C6  UNL     1      22.692   2.488  49.040  1.00  0.00     0.089 C 
HETATM    7  O2  UNL     1      23.124   5.212  48.729  1.00  0.00    -0.327 OA
HETATM    8  C4  UNL     1      22.576   4.560  47.640  1.00  0.00     0.135 C 
HETATM    9  C5  UNL     1      22.380   3.258  47.817  1.00  0.00     0.003 C 
BRANCH   5  10
HETATM   10  O1  UNL     1      23.293   5.586  51.017  1.00  0.00    -0.356 OA
BRANCH  10  11
HETATM   11  C2  UNL     1      24.244   6.456  50.485  1.00  0.00     0.167 C 
HETATM   12  C1  UNL     1      23.831   7.893  50.816  1.00  0.00     0.033 C 
ENDBRANCH  10  11
ENDBRANCH   5  10
ENDBRANCH   1   3
BRANCH   2  13
HETATM   13  C9  UNL     1      24.264   0.934  52.411  1.00  0.00     0.138 C 
HETATM   14  C10 UNL     1      25.583   0.189  52.599  1.00  0.00     0.039 C 
BRANCH  13  15
HETATM   15  C11 UNL     1      23.236   0.159  53.175  1.00  0.00    -0.033 A 
HETATM   16  C12 UNL     1      23.619  -0.628  54.263  1.00  0.00     0.009 A 
HETATM   17  C13 UNL     1      22.671  -1.351  54.977  1.00  0.00     0.001 A 
HETATM   18  C14 UNL     1      21.330  -1.301  54.619  1.00  0.00     0.007 A 
HETATM   19  C15 UNL     1      20.930  -0.522  53.536  1.00  0.00    -0.061 A 
HETATM   20  C16 UNL     1      19.491  -0.434  53.108  1.00  0.00     0.048 C 
HETATM   21  C17 UNL     1      21.887   0.187  52.841  1.00  0.00     0.016 A 
ENDBRANCH  13  15
ENDBRANCH   2  13
TORSDOF 5
ENDMDL
MODEL 6
REMARK VINA RESULT:      -6.3      2.309      6.464
REMARK  5 active torsions:
REMARK  status: ('A' for Active; 'I' for Inactive)
REMARK    1  A    between atoms: C2_2  and  O1_3 
REMARK    2  A    between atoms: O1_3  and  C3_4 
REMARK    3  A    between atoms: N1_10  and  C8_11 
REMARK    4  A    between atoms: N2_12  and  C9_13 
REMARK    5  A    between atoms: C9_13  and  C11_15 
ROOT
HETATM    1  C8  UNL     1      25.708   1.750  51.780  1.00  0.00     0.227 C 
HETATM    2  N2  UNL     1      25.176   2.841  51.337  1.00  0.00    -0.273 NA
ENDROOT
BRANCH   1   3
HETATM    3  N1  UNL     1      24.628   1.151  52.440  1.00  0.00    -0.246 NA
HETATM    4  C7  UNL     1      24.670   0.182  53.271  1.00  0.00     0.072 C 
HETATM    5  C3  UNL     1      25.816  -0.603  53.798  1.00  0.00     0.314 C 
HETATM    6  C6  UNL     1      23.341  -0.231  53.804  1.00  0.00     0.089 C 
HETATM    7  O2  UNL     1      25.685  -0.709  55.211  1.00  0.00    -0.327 OA
HETATM    8  C4  UNL     1      24.549  -1.321  55.706  1.00  0.00     0.135 C 
HETATM    9  C5  UNL     1      23.442  -1.076  55.013  1.00  0.00     0.003 C 
BRANCH   5  10
HETATM   10  O1  UNL     1      27.043  -0.035  53.449  1.00  0.00    -0.356 OA
BRANCH  10  11
HETATM   11  C2  UNL     1      27.965  -1.009  53.065  1.00  0.00     0.167 C 
HETATM   12  C1  UNL     1      29.306  -0.706  53.741  1.00  0.00     0.033 C 
ENDBRANCH  10  11
ENDBRANCH   5  10
ENDBRANCH   1   3
BRANCH   2  13
HETATM   13  C9  UNL     1      23.793   3.109  51.609  1.00  0.00     0.138 C 
HETATM   14  C10 UNL     1      23.661   4.629  51.693  1.00  0.00     0.039 C 
BRANCH  13  15
HETATM   15  C11 UNL     1      22.957   2.683  50.442  1.00  0.00    -0.033 A 
HETATM   16  C12 UNL     1      23.417   2.890  49.140  1.00  0.00     0.009 A 
HETATM   17  C13 UNL     1      22.648   2.498  48.052  1.00  0.00     0.001 A 
HETATM   18  C14 UNL     1      21.412   1.894  48.243  1.00  0.00     0.007 A 
HETATM   19  C15 UNL     1      20.937   1.681  49.534  1.00  0.00    -0.061 A 
HETATM   20  C16 UNL     1      19.606   1.031  49.795  1.00  0.00     0.048 C 
HETATM   21  C17 UNL     1      21.717   2.077  50.600  1.00  0.00     0.016 A 
ENDBRANCH  13  15
ENDBRANCH   2  13
TORSDOF 5
ENDMDL
MODEL 7
REMARK VINA RESULT:      -6.3      1.789      3.142
REMARK  5 active torsions:
REMARK  status: ('A' for Active; 'I' for Inactive)
REMARK    1  A    between atoms: C2_2  and  O1_3 
REMARK    2  A    between atoms: O1_3  and  C3_4 
REMARK    3  A    between atoms: N1_10  and  C8_11 
REMARK    4  A    between atoms: N2_12  and  C9_13 
REMARK    5  A    between atoms: C9_13  and  C11_15 
ROOT
HETATM    1  C8  UNL     1      23.500   2.977  52.748  1.00  0.00     0.227 C 
HETATM    2  N2  UNL     1      24.784   2.992  52.609  1.00  0.00    -0.273 NA
ENDROOT
BRANCH   1   3
HETATM    3  N1  UNL     1      23.112   2.074  51.751  1.00  0.00    -0.246 NA
HETATM    4  C7  UNL     1      22.056   2.119  51.034  1.00  0.00     0.072 C 
HETATM    5  C3  UNL     1      20.933   3.091  51.012  1.00  0.00     0.314 C 
HETATM    6  C6  UNL     1      21.929   1.005  50.053  1.00  0.00     0.089 C 
HETATM    7  O2  UNL     1      20.660   3.441  49.660  1.00  0.00    -0.327 OA
HETATM    8  C4  UNL     1      20.298   2.426  48.794  1.00  0.00     0.135 C 
HETATM    9  C5  UNL     1      20.921   1.272  49.005  1.00  0.00     0.003 C 
BRANCH   5  10
HETATM   10  O1  UNL     1      21.207   4.225  51.778  1.00  0.00    -0.356 OA
BRANCH  10  11
HETATM   11  C2  UNL     1      21.169   5.385  51.005  1.00  0.00     0.167 C 
HETATM   12  C1  UNL     1      22.559   6.030  51.024  1.00  0.00     0.033 C 
ENDBRANCH  10  11
ENDBRANCH   5  10
ENDBRANCH   1   3
BRANCH   2  13
HETATM   13  C9  UNL     1      25.389   2.179  51.592  1.00  0.00     0.138 C 
HETATM   14  C10 UNL     1      26.121   3.139  50.657  1.00  0.00     0.039 C 
BRANCH  13  15
HETATM   15  C11 UNL     1      26.444   1.310  52.204  1.00  0.00    -0.033 A 
HETATM   16  C12 UNL     1      27.522   1.888  52.878  1.00  0.00     0.009 A 
HETATM   17  C13 UNL     1      28.505   1.089  53.448  1.00  0.00     0.001 A 
HETATM   18  C14 UNL     1      28.430  -0.295  53.356  1.00  0.00     0.007 A 
HETATM   19  C15 UNL     1      27.363  -0.888  52.688  1.00  0.00    -0.061 A 
HETATM   20  C16 UNL     1      27.235  -2.381  52.561  1.00  0.00     0.048 C 
HETATM   21  C17 UNL     1      26.398  -0.077  52.129  1.00  0.00     0.016 A 
ENDBRANCH  13  15
ENDBRANCH   2  13
TORSDOF 5
ENDMDL
MODEL 8
REMARK VINA RESULT:      -6.3      4.107      5.920
REMARK  5 active torsions:
REMARK  status: ('A' for Active; 'I' for Inactive)
REMARK    1  A    between atoms: C2_2  and  O1_3 
REMARK    2  A    between atoms: O1_3  and  C3_4 
REMARK    3  A    between atoms: N1_10  and  C8_11 
REMARK    4  A    between atoms: N2_12  and  C9_13 
REMARK    5  A    between atoms: C9_13  and  C11_15 
ROOT
HETATM    1  C8  UNL     1      23.739   5.205  50.957  1.00  0.00     0.227 C 
HETATM    2  N2  UNL     1      23.308   4.300  51.771  1.00  0.00    -0.273 NA
ENDROOT
BRANCH   1   3
HETATM    3  N1  UNL     1      24.892   4.603  50.439  1.00  0.00    -0.246 NA
HETATM    4  C7  UNL     1      25.702   5.091  49.581  1.00  0.00     0.072 C 
HETATM    5  C3  UNL     1      25.702   6.396  48.872  1.00  0.00     0.314 C 
HETATM    6  C6  UNL     1      26.841   4.197  49.231  1.00  0.00     0.089 C 
HETATM    7  O2  UNL     1      27.010   6.952  48.941  1.00  0.00    -0.327 OA
HETATM    8  C4  UNL     1      28.047   6.223  48.389  1.00  0.00     0.135 C 
HETATM    9  C5  UNL     1      27.941   4.907  48.543  1.00  0.00     0.003 C 
BRANCH   5  10
HETATM   10  O1  UNL     1      24.755   7.277  49.397  1.00  0.00    -0.356 OA
BRANCH  10  11
HETATM   11  C2  UNL     1      24.119   8.002  48.391  1.00  0.00     0.167 C 
HETATM   12  C1  UNL     1      23.373   7.023  47.479  1.00  0.00     0.033 C 
ENDBRANCH  10  11
ENDBRANCH   5  10
ENDBRANCH   1   3
BRANCH   2  13
HETATM   13  C9  UNL     1      24.039   3.072  51.907  1.00  0.00     0.138 C 
HETATM   14  C10 UNL     1      24.642   3.088  53.310  1.00  0.00     0.039 C 
BRANCH  13  15
HETATM   15  C11 UNL     1      23.091   1.914  51.874  1.00  0.00    -0.033 A 
HETATM   16  C12 UNL     1      22.302   1.687  50.745  1.00  0.00     0.009 A 
HETATM   17  C13 UNL     1      21.419   0.616  50.706  1.00  0.00     0.001 A 
HETATM   18  C14 UNL     1      21.311  -0.247  51.790  1.00  0.00     0.007 A 
HETATM   19  C15 UNL     1      22.089  -0.036  52.924  1.00  0.00    -0.061 A 
HETATM   20  C16 UNL     1      22.008  -0.941  54.124  1.00  0.00     0.048 C 
HETATM   21  C17 UNL     1      22.959   1.034  52.942  1.00  0.00     0.016 A 
ENDBRANCH  13  15
ENDBRANCH   2  13
TORSDOF 5
ENDMDL
MODEL 9
REMARK VINA RESULT:      -6.1      3.329      5.438
REMARK  5 active torsions:
REMARK  status: ('A' for Active; 'I' for Inactive)
REMARK    1  A    between atoms: C2_2  and  O1_3 
REMARK    2  A    between atoms: O1_3  and  C3_4 
REMARK    3  A    between atoms: N1_10  and  C8_11 
REMARK    4  A    between atoms: N2_12  and  C9_13 
REMARK    5  A    between atoms: C9_13  and  C11_15 
ROOT
HETATM    1  C8  UNL     1      22.170   1.762  49.494  1.00  0.00     0.227 C 
HETATM    2  N2  UNL     1      21.790   0.765  50.221  1.00  0.00    -0.273 NA
ENDROOT
BRANCH   1   3
HETATM    3  N1  UNL     1      21.603   2.847  50.173  1.00  0.00    -0.246 NA
HETATM    4  C7  UNL     1      22.176   3.941  50.499  1.00  0.00     0.072 C 
HETATM    5  C3  UNL     1      23.567   4.416  50.284  1.00  0.00     0.314 C 
HETATM    6  C6  UNL     1      21.298   4.905  51.220  1.00  0.00     0.089 C 
HETATM    7  O2  UNL     1      23.521   5.750  49.791  1.00  0.00    -0.327 OA
HETATM    8  C4  UNL     1      22.914   6.707  50.582  1.00  0.00     0.135 C 
HETATM    9  C5  UNL     1      21.853   6.275  51.255  1.00  0.00     0.003 C 
BRANCH   5  10
HETATM   10  O1  UNL     1      24.275   3.584  49.416  1.00  0.00    -0.356 OA
BRANCH  10  11
HETATM   11  C2  UNL     1      25.512   3.223  49.950  1.00  0.00     0.167 C 
HETATM   12  C1  UNL     1      26.595   4.100  49.312  1.00  0.00     0.033 C 
ENDBRANCH  10  11
ENDBRANCH   5  10
ENDBRANCH   1   3
BRANCH   2  13
HETATM   13  C9  UNL     1      20.986   1.010  51.385  1.00  0.00     0.138 C 
HETATM   14  C10 UNL     1      19.626   0.375  51.106  1.00  0.00     0.039 C 
BRANCH  13  15
HETATM   15  C11 UNL     1      21.557   0.273  52.556  1.00  0.00    -0.033 A 
HETATM   16  C12 UNL     1      20.709  -0.378  53.455  1.00  0.00     0.009 A 
HETATM   17  C13 UNL     1      21.230  -1.063  54.544  1.00  0.00     0.001 A 
HETATM   18  C14 UNL     1      22.602  -1.112  54.755  1.00  0.00     0.007 A 
HETATM   19  C15 UNL     1      23.463  -0.469  53.870  1.00  0.00    -0.061 A 
HETATM   20  C16 UNL     1      24.956  -0.493  54.054  1.00  0.00     0.048 C 
HETATM   21  C17 UNL     1      22.925   0.206  52.795  1.00  0.00     0.016 A 
ENDBRANCH  13  15
ENDBRANCH   2  13
TORSDOF 5
ENDMDL
